data_image0
_chemical_formula_structural       F12Fe2Li2Rb4
_chemical_formula_sum              "F12 Fe2 Li2 Rb4"
_cell_length_a       5.71185
_cell_length_b       5.71185
_cell_length_c       9.84969
_cell_angle_alpha    73.145
_cell_angle_beta     106.855
_cell_angle_gamma    120

_space_group_name_H-M_alt    "P 1"
_space_group_IT_number       1

loop_
  _space_group_symop_operation_xyz
  'x, y, z'

loop_
  _atom_site_type_symbol
  _atom_site_label
  _atom_site_symmetry_multiplicity
  _atom_site_fract_x
  _atom_site_fract_y
  _atom_site_fract_z
  _atom_site_occupancy
  F   F1        1.0  0.20300  0.28600  0.12000  1.0000
  F   F2        1.0  0.71400  0.79700  0.12000  1.0000
  F   F3        1.0  0.20300  0.79700  0.12000  1.0000
  F   F4        1.0  0.61000  0.39000  0.38000  1.0000
  F   F5        1.0  0.15900  0.39000  0.38000  1.0000
  F   F6        1.0  0.61000  0.84100  0.38000  1.0000
  F   F7        1.0  0.39000  0.15900  0.62000  1.0000
  F   F8        1.0  0.84100  0.61000  0.62000  1.0000
  F   F9        1.0  0.39000  0.61000  0.62000  1.0000
  F   F10       1.0  0.79700  0.20300  0.88000  1.0000
  F   F11       1.0  0.28600  0.20300  0.88000  1.0000
  F   F12       1.0  0.79700  0.71400  0.88000  1.0000
  Fe  Fe1       1.0  0.00000  0.00000  0.00000  1.0000
  Fe  Fe2       1.0  0.50000  0.50000  0.50000  1.0000
  Li  Li1       1.0  0.40600  0.59400  0.21800  1.0000
  Li  Li2       1.0  0.59400  0.40600  0.78200  1.0000
  Rb  Rb1       1.0  0.71500  0.28500  0.14600  1.0000
  Rb  Rb2       1.0  0.12700  0.87300  0.38200  1.0000
  Rb  Rb3       1.0  0.87300  0.12700  0.61800  1.0000
  Rb  Rb4       1.0  0.28500  0.71500  0.85400  1.0000
