data_image0
_chemical_formula_structural       Ni2Se14Ta4
_chemical_formula_sum              "Ni2 Se14 Ta4"
_cell_length_a       3.51322
_cell_length_b       7.42519
_cell_length_c       17.8841
_cell_angle_alpha    93.1875
_cell_angle_beta     95.6368
_cell_angle_gamma    103.684

_space_group_name_H-M_alt    "P 1"
_space_group_IT_number       1

loop_
  _space_group_symop_operation_xyz
  'x, y, z'

loop_
  _atom_site_type_symbol
  _atom_site_label
  _atom_site_symmetry_multiplicity
  _atom_site_fract_x
  _atom_site_fract_y
  _atom_site_fract_z
  _atom_site_occupancy
  Ni  Ni1       1.0  0.52000  0.83000  0.20900  1.0000
  Ni  Ni2       1.0  0.48000  0.17000  0.79100  1.0000
  Se  Se1       1.0  0.65100  0.28900  0.01210  1.0000
  Se  Se2       1.0  0.05360  0.96800  0.13900  1.0000
  Se  Se3       1.0  0.33200  0.49000  0.17400  1.0000
  Se  Se4       1.0  0.72700  0.15800  0.29500  1.0000
  Se  Se5       1.0  0.04290  0.78600  0.29900  1.0000
  Se  Se6       1.0  0.89500  0.37100  0.42000  1.0000
  Se  Se7       1.0  0.64800  0.85100  0.44500  1.0000
  Se  Se8       1.0  0.35200  0.14900  0.55500  1.0000
  Se  Se9       1.0  0.10500  0.62900  0.58000  1.0000
  Se  Se10      1.0  0.95700  0.21400  0.70100  1.0000
  Se  Se11      1.0  0.27300  0.84200  0.70500  1.0000
  Se  Se12      1.0  0.66800  0.51000  0.82600  1.0000
  Se  Se13      1.0  0.94600  0.03170  0.86100  1.0000
  Se  Se14      1.0  0.34900  0.71100  0.98800  1.0000
  Ta  Ta1       1.0  0.86200  0.63300  0.09050  1.0000
  Ta  Ta2       1.0  0.24800  0.09640  0.40000  1.0000
  Ta  Ta3       1.0  0.75200  0.90400  0.60000  1.0000
  Ta  Ta4       1.0  0.13800  0.36700  0.91000  1.0000
