data_image0
_chemical_formula_structural       As4Cl8Hg8
_chemical_formula_sum              "As4 Cl8 Hg8"
_cell_length_a       8.28453
_cell_length_b       8.28453
_cell_length_c       9.11428
_cell_angle_alpha    97.2245
_cell_angle_beta     97.2245
_cell_angle_gamma    61.2815

_space_group_name_H-M_alt    "P 1"
_space_group_IT_number       1

loop_
  _space_group_symop_operation_xyz
  'x, y, z'

loop_
  _atom_site_type_symbol
  _atom_site_label
  _atom_site_symmetry_multiplicity
  _atom_site_fract_x
  _atom_site_fract_y
  _atom_site_fract_z
  _atom_site_occupancy
  As  As1       1.0  0.44500  0.44500  0.09120  1.0000
  As  As2       1.0  0.04150  0.04150  0.39100  1.0000
  As  As3       1.0  0.95900  0.95900  0.60900  1.0000
  As  As4       1.0  0.55500  0.55500  0.90900  1.0000
  Cl  Cl1       1.0  0.11000  0.11000  0.01240  1.0000
  Cl  Cl2       1.0  0.99200  0.54900  0.26100  1.0000
  Cl  Cl3       1.0  0.54900  0.99200  0.26100  1.0000
  Cl  Cl4       1.0  0.60900  0.60900  0.48200  1.0000
  Cl  Cl5       1.0  0.39100  0.39100  0.51800  1.0000
  Cl  Cl6       1.0  0.45100  0.00826  0.73900  1.0000
  Cl  Cl7       1.0  0.00826  0.45100  0.73900  1.0000
  Cl  Cl8       1.0  0.89000  0.89000  0.98800  1.0000
  Hg  Hg1       1.0  0.72400  0.72400  0.04440  1.0000
  Hg  Hg2       1.0  0.73400  0.22600  0.24300  1.0000
  Hg  Hg3       1.0  0.22600  0.73400  0.24300  1.0000
  Hg  Hg4       1.0  0.21800  0.21800  0.48900  1.0000
  Hg  Hg5       1.0  0.78200  0.78200  0.51100  1.0000
  Hg  Hg6       1.0  0.77400  0.26600  0.75700  1.0000
  Hg  Hg7       1.0  0.26600  0.77400  0.75700  1.0000
  Hg  Hg8       1.0  0.27600  0.27600  0.95600  1.0000
