data_image0
_chemical_formula_structural       Nd14Ni6
_chemical_formula_sum              "Nd14 Ni6"
_cell_length_a       9.90808
_cell_length_b       9.908
_cell_length_c       6.35353
_cell_angle_alpha    90
_cell_angle_beta     90
_cell_angle_gamma    120

_space_group_name_H-M_alt    "P 1"
_space_group_IT_number       1

loop_
  _space_group_symop_operation_xyz
  'x, y, z'

loop_
  _atom_site_type_symbol
  _atom_site_label
  _atom_site_symmetry_multiplicity
  _atom_site_fract_x
  _atom_site_fract_y
  _atom_site_fract_z
  _atom_site_occupancy
  Nd  Nd1       1.0  0.33300  0.66700  0.04170  1.0000
  Nd  Nd2       1.0  0.53900  0.46100  0.06150  1.0000
  Nd  Nd3       1.0  0.92300  0.46100  0.06150  1.0000
  Nd  Nd4       1.0  0.53900  0.07730  0.06150  1.0000
  Nd  Nd5       1.0  0.12600  0.87400  0.25100  1.0000
  Nd  Nd6       1.0  0.74800  0.87400  0.25100  1.0000
  Nd  Nd7       1.0  0.12600  0.25200  0.25100  1.0000
  Nd  Nd8       1.0  0.66700  0.33300  0.54200  1.0000
  Nd  Nd9       1.0  0.07730  0.53900  0.56100  1.0000
  Nd  Nd10      1.0  0.46100  0.53900  0.56100  1.0000
  Nd  Nd11      1.0  0.46100  0.92300  0.56100  1.0000
  Nd  Nd12      1.0  0.25200  0.12600  0.75100  1.0000
  Nd  Nd13      1.0  0.87400  0.12600  0.75100  1.0000
  Nd  Nd14      1.0  0.87400  0.74800  0.75100  1.0000
  Ni  Ni1       1.0  0.81100  0.62300  0.30900  1.0000
  Ni  Ni2       1.0  0.37700  0.18900  0.30900  1.0000
  Ni  Ni3       1.0  0.81100  0.18900  0.30900  1.0000
  Ni  Ni4       1.0  0.18900  0.37700  0.80900  1.0000
  Ni  Ni5       1.0  0.18900  0.81100  0.80900  1.0000
  Ni  Ni6       1.0  0.62300  0.81100  0.80900  1.0000
