data_image0
_chemical_formula_structural       Cr8Ga12Li12O48
_chemical_formula_sum              "Cr8 Ga12 Li12 O48"
_cell_length_a       9.88175
_cell_length_b       9.88175
_cell_length_c       9.88175
_cell_angle_alpha    109.471
_cell_angle_beta     109.471
_cell_angle_gamma    109.471

_space_group_name_H-M_alt    "P 1"
_space_group_IT_number       1

loop_
  _space_group_symop_operation_xyz
  'x, y, z'

loop_
  _atom_site_type_symbol
  _atom_site_label
  _atom_site_symmetry_multiplicity
  _atom_site_fract_x
  _atom_site_fract_y
  _atom_site_fract_z
  _atom_site_occupancy
  Cr  Cr1       1.0  0.00000  0.00000  0.00000  1.0000
  Cr  Cr2       1.0  0.50000  0.00000  0.00000  1.0000
  Cr  Cr3       1.0  0.50000  0.50000  0.00000  1.0000
  Cr  Cr4       1.0  0.00000  0.50000  0.00000  1.0000
  Cr  Cr5       1.0  0.50000  0.00000  0.50000  1.0000
  Cr  Cr6       1.0  1.00000  0.50000  0.50000  1.0000
  Cr  Cr7       1.0  0.00000  0.00000  0.50000  1.0000
  Cr  Cr8       1.0  0.50000  0.50000  0.50000  1.0000
  Ga  Ga1       1.0  0.25000  0.87500  0.12500  1.0000
  Ga  Ga2       1.0  0.37500  0.25000  0.12500  1.0000
  Ga  Ga3       1.0  0.87500  0.12500  0.25000  1.0000
  Ga  Ga4       1.0  0.37500  0.62500  0.25000  1.0000
  Ga  Ga5       1.0  0.12500  0.75000  0.37500  1.0000
  Ga  Ga6       1.0  0.75000  0.62500  0.37500  1.0000
  Ga  Ga7       1.0  0.25000  0.37500  0.62500  1.0000
  Ga  Ga8       1.0  0.87500  0.25000  0.62500  1.0000
  Ga  Ga9       1.0  0.62500  0.37500  0.75000  1.0000
  Ga  Ga10      1.0  0.12500  0.87500  0.75000  1.0000
  Ga  Ga11      1.0  0.62500  0.75000  0.87500  1.0000
  Ga  Ga12      1.0  0.75000  0.12500  0.87500  1.0000
  Li  Li1       1.0  0.75000  0.37500  0.12500  1.0000
  Li  Li2       1.0  0.87500  0.75000  0.12500  1.0000
  Li  Li3       1.0  0.12500  0.37500  0.25000  1.0000
  Li  Li4       1.0  0.62500  0.87500  0.25000  1.0000
  Li  Li5       1.0  0.62500  0.25000  0.37500  1.0000
  Li  Li6       1.0  0.25000  0.12500  0.37500  1.0000
  Li  Li7       1.0  0.75000  0.87500  0.62500  1.0000
  Li  Li8       1.0  0.37500  0.75000  0.62500  1.0000
  Li  Li9       1.0  0.37500  0.12500  0.75000  1.0000
  Li  Li10      1.0  0.87500  0.62500  0.75000  1.0000
  Li  Li11      1.0  0.12500  0.25000  0.87500  1.0000
  Li  Li12      1.0  0.25000  0.62500  0.87500  1.0000
  O   O1        1.0  0.21400  0.61100  0.03890  1.0000
  O   O2        1.0  0.32500  0.42800  0.03890  1.0000
  O   O3        1.0  0.96100  0.17500  0.07190  1.0000
  O   O4        1.0  0.61100  0.89700  0.07190  1.0000
  O   O5        1.0  0.88900  0.92800  0.10300  1.0000
  O   O6        1.0  0.71400  0.17500  0.10300  1.0000
  O   O7        1.0  0.57200  0.39700  0.11100  1.0000
  O   O8        1.0  0.03890  0.71400  0.11100  1.0000
  O   O9        1.0  0.21400  0.10300  0.17500  1.0000
  O   O10       1.0  0.46100  0.07190  0.17500  1.0000
  O   O11       1.0  0.60300  0.67500  0.21400  1.0000
  O   O12       1.0  0.11100  0.53900  0.21400  1.0000
  O   O13       1.0  0.32500  0.39700  0.28600  1.0000
  O   O14       1.0  0.46100  0.88900  0.28600  1.0000
  O   O15       1.0  0.92800  0.53900  0.32500  1.0000
  O   O16       1.0  0.89700  0.78600  0.32500  1.0000
  O   O17       1.0  0.60300  0.42800  0.38900  1.0000
  O   O18       1.0  0.28600  0.96100  0.38900  1.0000
  O   O19       1.0  0.07190  0.11100  0.39700  1.0000
  O   O20       1.0  0.82500  0.28600  0.39700  1.0000
  O   O21       1.0  0.82500  0.03890  0.42800  1.0000
  O   O22       1.0  0.10300  0.38900  0.42800  1.0000
  O   O23       1.0  0.38900  0.78600  0.46100  1.0000
  O   O24       1.0  0.57200  0.67500  0.46100  1.0000
  O   O25       1.0  0.61100  0.21400  0.53900  1.0000
  O   O26       1.0  0.42800  0.32500  0.53900  1.0000
  O   O27       1.0  0.89700  0.61100  0.57200  1.0000
  O   O28       1.0  0.17500  0.96100  0.57200  1.0000
  O   O29       1.0  0.17500  0.71400  0.60300  1.0000
  O   O30       1.0  0.92800  0.88900  0.60300  1.0000
  O   O31       1.0  0.71400  0.03890  0.61100  1.0000
  O   O32       1.0  0.39700  0.57200  0.61100  1.0000
  O   O33       1.0  0.10300  0.21400  0.67500  1.0000
  O   O34       1.0  0.07190  0.46100  0.67500  1.0000
  O   O35       1.0  0.53900  0.11100  0.71400  1.0000
  O   O36       1.0  0.67500  0.60300  0.71400  1.0000
  O   O37       1.0  0.39700  0.32500  0.78600  1.0000
  O   O38       1.0  0.88900  0.46100  0.78600  1.0000
  O   O39       1.0  0.53900  0.92800  0.82500  1.0000
  O   O40       1.0  0.78600  0.89700  0.82500  1.0000
  O   O41       1.0  0.96100  0.28600  0.88900  1.0000
  O   O42       1.0  0.42800  0.60300  0.88900  1.0000
  O   O43       1.0  0.11100  0.07190  0.89700  1.0000
  O   O44       1.0  0.28600  0.82500  0.89700  1.0000
  O   O45       1.0  0.03890  0.82500  0.92800  1.0000
  O   O46       1.0  0.38900  0.10300  0.92800  1.0000
  O   O47       1.0  0.67500  0.57200  0.96100  1.0000
  O   O48       1.0  0.78600  0.38900  0.96100  1.0000
