data_image0
_chemical_formula_structural       Cr2Cs4F12Na2
_chemical_formula_sum              "Cr2 Cs4 F12 Na2"
_cell_length_a       6.12432
_cell_length_b       6.12432
_cell_length_c       10.501
_cell_angle_alpha    106.954
_cell_angle_beta     73.0459
_cell_angle_gamma    120

_space_group_name_H-M_alt    "P 1"
_space_group_IT_number       1

loop_
  _space_group_symop_operation_xyz
  'x, y, z'

loop_
  _atom_site_type_symbol
  _atom_site_label
  _atom_site_symmetry_multiplicity
  _atom_site_fract_x
  _atom_site_fract_y
  _atom_site_fract_z
  _atom_site_occupancy
  Cr  Cr1       1.0  0.00000  0.00000  0.00000  1.0000
  Cr  Cr2       1.0  0.50000  0.50000  0.50000  1.0000
  Cs  Cs1       1.0  0.28200  0.71800  0.15300  1.0000
  Cs  Cs2       1.0  0.87200  0.12800  0.38300  1.0000
  Cs  Cs3       1.0  0.12800  0.87200  0.61700  1.0000
  Cs  Cs4       1.0  0.71800  0.28200  0.84700  1.0000
  F   F1        1.0  0.26200  0.18600  0.11100  1.0000
  F   F2        1.0  0.81400  0.18600  0.11100  1.0000
  F   F3        1.0  0.81400  0.73800  0.11100  1.0000
  F   F4        1.0  0.39300  0.16900  0.38400  1.0000
  F   F5        1.0  0.39300  0.60700  0.38400  1.0000
  F   F6        1.0  0.83100  0.60700  0.38400  1.0000
  F   F7        1.0  0.16900  0.39300  0.61600  1.0000
  F   F8        1.0  0.60700  0.39300  0.61600  1.0000
  F   F9        1.0  0.60700  0.83100  0.61600  1.0000
  F   F10       1.0  0.18600  0.26200  0.88900  1.0000
  F   F11       1.0  0.18600  0.81400  0.88900  1.0000
  F   F12       1.0  0.73800  0.81400  0.88900  1.0000
  Na  Na1       1.0  0.59700  0.40300  0.21000  1.0000
  Na  Na2       1.0  0.40300  0.59700  0.79000  1.0000
