data_image0
_chemical_formula_structural       I16Nb4
_chemical_formula_sum              "I16 Nb4"
_cell_length_a       8.02946
_cell_length_b       8.02946
_cell_length_c       14.8756
_cell_angle_alpha    90
_cell_angle_beta     90
_cell_angle_gamma    122.006

_space_group_name_H-M_alt    "P 1"
_space_group_IT_number       1

loop_
  _space_group_symop_operation_xyz
  'x, y, z'

loop_
  _atom_site_type_symbol
  _atom_site_label
  _atom_site_symmetry_multiplicity
  _atom_site_fract_x
  _atom_site_fract_y
  _atom_site_fract_z
  _atom_site_occupancy
  I   I1        1.0  0.74500  0.25500  0.03910  1.0000
  I   I2        1.0  0.26400  0.73600  0.05160  1.0000
  I   I3        1.0  0.48800  0.51200  0.19500  1.0000
  I   I4        1.0  0.00773  0.99200  0.20700  1.0000
  I   I5        1.0  0.01130  0.47500  0.27500  1.0000
  I   I6        1.0  0.52500  0.98900  0.27500  1.0000
  I   I7        1.0  0.26000  0.23000  0.47200  1.0000
  I   I8        1.0  0.77000  0.74000  0.47200  1.0000
  I   I9        1.0  0.25500  0.74500  0.53900  1.0000
  I   I10       1.0  0.73600  0.26400  0.55200  1.0000
  I   I11       1.0  0.51200  0.48800  0.69500  1.0000
  I   I12       1.0  0.99200  0.00773  0.70700  1.0000
  I   I13       1.0  0.47500  0.01130  0.77500  1.0000
  I   I14       1.0  0.98900  0.52500  0.77500  1.0000
  I   I15       1.0  0.23000  0.26000  0.97200  1.0000
  I   I16       1.0  0.74000  0.77000  0.97200  1.0000
  Nb  Nb1       1.0  0.08900  0.33700  0.12300  1.0000
  Nb  Nb2       1.0  0.66300  0.91100  0.12300  1.0000
  Nb  Nb3       1.0  0.33700  0.08900  0.62300  1.0000
  Nb  Nb4       1.0  0.91100  0.66300  0.62300  1.0000
