data_image0
_chemical_formula_structural       F12Ga2Li2Rb4
_chemical_formula_sum              "F12 Ga2 Li2 Rb4"
_cell_length_a       5.70625
_cell_length_b       5.70625
_cell_length_c       9.86642
_cell_angle_alpha    106.809
_cell_angle_beta     106.809
_cell_angle_gamma    60

_space_group_name_H-M_alt    "P 1"
_space_group_IT_number       1

loop_
  _space_group_symop_operation_xyz
  'x, y, z'

loop_
  _atom_site_type_symbol
  _atom_site_label
  _atom_site_symmetry_multiplicity
  _atom_site_fract_x
  _atom_site_fract_y
  _atom_site_fract_z
  _atom_site_occupancy
  F   F1        1.0  0.72000  0.19800  0.11700  1.0000
  F   F2        1.0  0.19800  0.19800  0.11700  1.0000
  F   F3        1.0  0.19800  0.72000  0.11700  1.0000
  F   F4        1.0  0.61100  0.15300  0.37600  1.0000
  F   F5        1.0  0.61100  0.61100  0.37600  1.0000
  F   F6        1.0  0.15300  0.61100  0.37600  1.0000
  F   F7        1.0  0.84700  0.38900  0.62400  1.0000
  F   F8        1.0  0.38900  0.38900  0.62400  1.0000
  F   F9        1.0  0.38900  0.84700  0.62400  1.0000
  F   F10       1.0  0.80200  0.28000  0.88300  1.0000
  F   F11       1.0  0.80200  0.80200  0.88300  1.0000
  F   F12       1.0  0.28000  0.80200  0.88300  1.0000
  Ga  Ga1       1.0  0.00000  0.00000  0.00000  1.0000
  Ga  Ga2       1.0  0.50000  0.50000  0.50000  1.0000
  Li  Li1       1.0  0.40400  0.40400  0.21300  1.0000
  Li  Li2       1.0  0.59600  0.59600  0.78700  1.0000
  Rb  Rb1       1.0  0.71600  0.71600  0.14700  1.0000
  Rb  Rb2       1.0  0.12700  0.12700  0.38100  1.0000
  Rb  Rb3       1.0  0.87300  0.87300  0.61900  1.0000
  Rb  Rb4       1.0  0.28400  0.28400  0.85300  1.0000
