data_image0
_chemical_formula_structural       Ag6Sr14
_chemical_formula_sum              "Ag6 Sr14"
_cell_length_a       11.2859
_cell_length_b       11.286
_cell_length_c       7.21092
_cell_angle_alpha    90
_cell_angle_beta     90
_cell_angle_gamma    120

_space_group_name_H-M_alt    "P 1"
_space_group_IT_number       1

loop_
  _space_group_symop_operation_xyz
  'x, y, z'

loop_
  _atom_site_type_symbol
  _atom_site_label
  _atom_site_symmetry_multiplicity
  _atom_site_fract_x
  _atom_site_fract_y
  _atom_site_fract_z
  _atom_site_occupancy
  Ag  Ag1       1.0  0.81100  0.62100  0.33100  1.0000
  Ag  Ag2       1.0  0.37900  0.18900  0.33100  1.0000
  Ag  Ag3       1.0  0.81100  0.18900  0.33100  1.0000
  Ag  Ag4       1.0  0.18900  0.37900  0.83100  1.0000
  Ag  Ag5       1.0  0.18900  0.81100  0.83100  1.0000
  Ag  Ag6       1.0  0.62100  0.81100  0.83100  1.0000
  Sr  Sr1       1.0  0.33300  0.66700  0.05520  1.0000
  Sr  Sr2       1.0  0.54100  0.45900  0.05580  1.0000
  Sr  Sr3       1.0  0.91800  0.45900  0.05580  1.0000
  Sr  Sr4       1.0  0.54100  0.08230  0.05580  1.0000
  Sr  Sr5       1.0  0.12500  0.24900  0.25700  1.0000
  Sr  Sr6       1.0  0.12500  0.87500  0.25700  1.0000
  Sr  Sr7       1.0  0.75100  0.87500  0.25700  1.0000
  Sr  Sr8       1.0  0.66700  0.33300  0.55500  1.0000
  Sr  Sr9       1.0  0.08230  0.54100  0.55600  1.0000
  Sr  Sr10      1.0  0.45900  0.54100  0.55600  1.0000
  Sr  Sr11      1.0  0.45900  0.91800  0.55600  1.0000
  Sr  Sr12      1.0  0.24900  0.12500  0.75700  1.0000
  Sr  Sr13      1.0  0.87500  0.12500  0.75700  1.0000
  Sr  Sr14      1.0  0.87500  0.75100  0.75700  1.0000
