data_image0
_chemical_formula_structural       Mn12Sn8
_chemical_formula_sum              "Mn12 Sn8"
_cell_length_a       7.4344
_cell_length_b       5.37596
_cell_length_c       8.37885
_cell_angle_alpha    90
_cell_angle_beta     90
_cell_angle_gamma    90

_space_group_name_H-M_alt    "P 1"
_space_group_IT_number       1

loop_
  _space_group_symop_operation_xyz
  'x, y, z'

loop_
  _atom_site_type_symbol
  _atom_site_label
  _atom_site_symmetry_multiplicity
  _atom_site_fract_x
  _atom_site_fract_y
  _atom_site_fract_z
  _atom_site_occupancy
  Mn  Mn1       1.0  0.90500  0.25000  0.11700  1.0000
  Mn  Mn2       1.0  0.23200  0.00697  0.12700  1.0000
  Mn  Mn3       1.0  0.23200  0.49300  0.12700  1.0000
  Mn  Mn4       1.0  0.73200  0.00697  0.37300  1.0000
  Mn  Mn5       1.0  0.73200  0.49300  0.37300  1.0000
  Mn  Mn6       1.0  0.40500  0.25000  0.38300  1.0000
  Mn  Mn7       1.0  0.59500  0.75000  0.61700  1.0000
  Mn  Mn8       1.0  0.26800  0.50700  0.62700  1.0000
  Mn  Mn9       1.0  0.26800  0.99300  0.62700  1.0000
  Mn  Mn10      1.0  0.76800  0.50700  0.87300  1.0000
  Mn  Mn11      1.0  0.76800  0.99300  0.87300  1.0000
  Mn  Mn12      1.0  0.09480  0.75000  0.88300  1.0000
  Sn  Sn1       1.0  0.55700  0.25000  0.09560  1.0000
  Sn  Sn2       1.0  0.90100  0.75000  0.14500  1.0000
  Sn  Sn3       1.0  0.40100  0.75000  0.35500  1.0000
  Sn  Sn4       1.0  0.05670  0.25000  0.40400  1.0000
  Sn  Sn5       1.0  0.94300  0.75000  0.59600  1.0000
  Sn  Sn6       1.0  0.59900  0.25000  0.64500  1.0000
  Sn  Sn7       1.0  0.09860  0.25000  0.85500  1.0000
  Sn  Sn8       1.0  0.44300  0.75000  0.90400  1.0000
