data_image0
_chemical_formula_structural       Cs4Si4Te12
_chemical_formula_sum              "Cs4 Si4 Te12"
_cell_length_a       8.32619
_cell_length_b       8.32619
_cell_length_c       13.6762
_cell_angle_alpha    95.5609
_cell_angle_beta     95.5609
_cell_angle_gamma    117.554

_space_group_name_H-M_alt    "P 1"
_space_group_IT_number       1

loop_
  _space_group_symop_operation_xyz
  'x, y, z'

loop_
  _atom_site_type_symbol
  _atom_site_label
  _atom_site_symmetry_multiplicity
  _atom_site_fract_x
  _atom_site_fract_y
  _atom_site_fract_z
  _atom_site_occupancy
  Cs  Cs1       1.0  0.77600  0.27600  0.19000  1.0000
  Cs  Cs2       1.0  0.34200  0.52100  0.41200  1.0000
  Cs  Cs3       1.0  0.27600  0.77600  0.69000  1.0000
  Cs  Cs4       1.0  0.52100  0.34200  0.91200  1.0000
  Si  Si1       1.0  0.09970  0.94900  0.13200  1.0000
  Si  Si2       1.0  0.94300  0.83200  0.38900  1.0000
  Si  Si3       1.0  0.94900  0.09970  0.63200  1.0000
  Si  Si4       1.0  0.83200  0.94300  0.88900  1.0000
  Te  Te1       1.0  0.23100  0.28700  0.13200  1.0000
  Te  Te2       1.0  0.80000  0.79300  0.20500  1.0000
  Te  Te3       1.0  0.31500  0.85900  0.22500  1.0000
  Te  Te4       1.0  0.29700  0.03470  0.41600  1.0000
  Te  Te5       1.0  0.79700  0.02810  0.45100  1.0000
  Te  Te6       1.0  0.84900  0.54300  0.45500  1.0000
  Te  Te7       1.0  0.28700  0.23100  0.63200  1.0000
  Te  Te8       1.0  0.79300  0.80000  0.70500  1.0000
  Te  Te9       1.0  0.85900  0.31500  0.72500  1.0000
  Te  Te10      1.0  0.03470  0.29700  0.91600  1.0000
  Te  Te11      1.0  0.02810  0.79700  0.95100  1.0000
  Te  Te12      1.0  0.54300  0.84900  0.95500  1.0000
