data_image0
_chemical_formula_structural       Ce2S12Yb6
_chemical_formula_sum              "Ce2 S12 Yb6"
_cell_length_a       11.4654
_cell_length_b       11.2688
_cell_length_c       4.13514
_cell_angle_alpha    90
_cell_angle_beta     90
_cell_angle_gamma    106.106

_space_group_name_H-M_alt    "P 1"
_space_group_IT_number       1

loop_
  _space_group_symop_operation_xyz
  'x, y, z'

loop_
  _atom_site_type_symbol
  _atom_site_label
  _atom_site_symmetry_multiplicity
  _atom_site_fract_x
  _atom_site_fract_y
  _atom_site_fract_z
  _atom_site_occupancy
  Ce  Ce1       1.0  0.53600  0.17800  0.25000  1.0000
  Ce  Ce2       1.0  0.46400  0.82200  0.75000  1.0000
  S   S1        1.0  0.95900  0.08980  0.25000  1.0000
  S   S2        1.0  0.33600  0.28800  0.25000  1.0000
  S   S3        1.0  0.91700  0.57600  0.25000  1.0000
  S   S4        1.0  0.37400  0.62400  0.25000  1.0000
  S   S5        1.0  0.26200  0.74500  0.25000  1.0000
  S   S6        1.0  0.62200  0.95800  0.25000  1.0000
  S   S7        1.0  0.37800  0.04190  0.75000  1.0000
  S   S8        1.0  0.73800  0.25500  0.75000  1.0000
  S   S9        1.0  0.62600  0.37600  0.75000  1.0000
  S   S10       1.0  0.08280  0.42400  0.75000  1.0000
  S   S11       1.0  0.66400  0.71200  0.75000  1.0000
  S   S12       1.0  0.04140  0.91000  0.75000  1.0000
  Yb  Yb1       1.0  0.19200  0.04830  0.25000  1.0000
  Yb  Yb2       1.0  0.93500  0.33700  0.25000  1.0000
  Yb  Yb3       1.0  0.68800  0.57100  0.25000  1.0000
  Yb  Yb4       1.0  0.31200  0.42900  0.75000  1.0000
  Yb  Yb5       1.0  0.06490  0.66300  0.75000  1.0000
  Yb  Yb6       1.0  0.80800  0.95200  0.75000  1.0000
