data_image0
_chemical_formula_structural       Cs4Te16
_chemical_formula_sum              "Cs4 Te16"
_cell_length_a       8.14
_cell_length_b       7.35416
_cell_length_c       14.2553
_cell_angle_alpha    90
_cell_angle_beta     93.4743
_cell_angle_gamma    90

_space_group_name_H-M_alt    "P 1"
_space_group_IT_number       1

loop_
  _space_group_symop_operation_xyz
  'x, y, z'

loop_
  _atom_site_type_symbol
  _atom_site_label
  _atom_site_symmetry_multiplicity
  _atom_site_fract_x
  _atom_site_fract_y
  _atom_site_fract_z
  _atom_site_occupancy
  Cs  Cs1       1.0  0.85700  0.37900  0.14800  1.0000
  Cs  Cs2       1.0  0.14300  0.87900  0.35200  1.0000
  Cs  Cs3       1.0  0.85700  0.12100  0.64800  1.0000
  Cs  Cs4       1.0  0.14300  0.62100  0.85200  1.0000
  Te  Te1       1.0  0.87100  0.89100  0.03230  1.0000
  Te  Te2       1.0  0.46400  0.69400  0.06680  1.0000
  Te  Te3       1.0  0.37800  0.05970  0.12600  1.0000
  Te  Te4       1.0  0.35000  0.48300  0.21300  1.0000
  Te  Te5       1.0  0.65000  0.98300  0.28700  1.0000
  Te  Te6       1.0  0.62200  0.56000  0.37400  1.0000
  Te  Te7       1.0  0.53600  0.19400  0.43300  1.0000
  Te  Te8       1.0  0.12900  0.39100  0.46800  1.0000
  Te  Te9       1.0  0.87100  0.60900  0.53200  1.0000
  Te  Te10      1.0  0.46400  0.80600  0.56700  1.0000
  Te  Te11      1.0  0.37800  0.44000  0.62600  1.0000
  Te  Te12      1.0  0.35000  0.01720  0.71300  1.0000
  Te  Te13      1.0  0.65000  0.51700  0.78700  1.0000
  Te  Te14      1.0  0.62200  0.94000  0.87400  1.0000
  Te  Te15      1.0  0.53600  0.30600  0.93300  1.0000
  Te  Te16      1.0  0.12900  0.10900  0.96800  1.0000
