data_image0
_chemical_formula_structural       Dy2O12Sb2Sr4
_chemical_formula_sum              "Dy2 O12 Sb2 Sr4"
_cell_length_a       5.81689
_cell_length_b       5.86515
_cell_length_c       8.24843
_cell_angle_alpha    90
_cell_angle_beta     90.2223
_cell_angle_gamma    90

_space_group_name_H-M_alt    "P 1"
_space_group_IT_number       1

loop_
  _space_group_symop_operation_xyz
  'x, y, z'

loop_
  _atom_site_type_symbol
  _atom_site_label
  _atom_site_symmetry_multiplicity
  _atom_site_fract_x
  _atom_site_fract_y
  _atom_site_fract_z
  _atom_site_occupancy
  Dy  Dy1       1.0  0.50000  0.00000  0.00000  1.0000
  Dy  Dy2       1.0  0.00000  0.50000  0.50000  1.0000
  O   O1        1.0  0.27400  0.30000  0.04090  1.0000
  O   O2        1.0  0.19600  0.77500  0.04250  1.0000
  O   O3        1.0  0.92100  0.47900  0.23600  1.0000
  O   O4        1.0  0.57900  0.97900  0.26400  1.0000
  O   O5        1.0  0.30400  0.27500  0.45700  1.0000
  O   O6        1.0  0.22600  0.80000  0.45900  1.0000
  O   O7        1.0  0.77400  0.20000  0.54100  1.0000
  O   O8        1.0  0.69600  0.72500  0.54300  1.0000
  O   O9        1.0  0.42100  0.02130  0.73600  1.0000
  O   O10       1.0  0.07890  0.52100  0.76400  1.0000
  O   O11       1.0  0.80400  0.22500  0.95700  1.0000
  O   O12       1.0  0.72600  0.70000  0.95900  1.0000
  Sb  Sb1       1.0  0.00000  0.50000  0.00000  1.0000
  Sb  Sb2       1.0  0.50000  0.00000  0.50000  1.0000
  Sr  Sr1       1.0  0.00808  0.03430  0.25000  1.0000
  Sr  Sr2       1.0  0.49200  0.53400  0.25000  1.0000
  Sr  Sr3       1.0  0.50800  0.46600  0.75000  1.0000
  Sr  Sr4       1.0  0.99200  0.96600  0.75000  1.0000
