data_image0
_chemical_formula_structural       F12Na6V2
_chemical_formula_sum              "F12 Na6 V2"
_cell_length_a       5.33577
_cell_length_b       5.60876
_cell_length_c       7.70173
_cell_angle_alpha    90
_cell_angle_beta     90.748
_cell_angle_gamma    90

_space_group_name_H-M_alt    "P 1"
_space_group_IT_number       1

loop_
  _space_group_symop_operation_xyz
  'x, y, z'

loop_
  _atom_site_type_symbol
  _atom_site_label
  _atom_site_symmetry_multiplicity
  _atom_site_fract_x
  _atom_site_fract_y
  _atom_site_fract_z
  _atom_site_occupancy
  F   F1        1.0  0.70200  0.17700  0.05830  1.0000
  F   F2        1.0  0.83500  0.71000  0.07180  1.0000
  F   F3        1.0  0.12700  0.05520  0.23300  1.0000
  F   F4        1.0  0.37300  0.55500  0.26700  1.0000
  F   F5        1.0  0.66500  0.21000  0.42800  1.0000
  F   F6        1.0  0.79800  0.67700  0.44200  1.0000
  F   F7        1.0  0.20200  0.32300  0.55800  1.0000
  F   F8        1.0  0.33500  0.79000  0.57200  1.0000
  F   F9        1.0  0.62700  0.44500  0.73300  1.0000
  F   F10       1.0  0.87300  0.94500  0.76700  1.0000
  F   F11       1.0  0.16500  0.29000  0.92800  1.0000
  F   F12       1.0  0.29800  0.82300  0.94200  1.0000
  Na  Na1       1.0  0.50000  0.50000  1.00000  1.0000
  Na  Na2       1.0  0.52000  0.93100  0.24700  1.0000
  Na  Na3       1.0  0.98000  0.43100  0.25300  1.0000
  Na  Na4       1.0  0.00000  0.00000  0.50000  1.0000
  Na  Na5       1.0  0.02040  0.56900  0.74700  1.0000
  Na  Na6       1.0  0.48000  0.06850  0.75300  1.0000
  V   V1        1.0  0.00000  0.00000  0.00000  1.0000
  V   V2        1.0  0.50000  0.50000  0.50000  1.0000
