data_image0
_chemical_formula_structural       Hg4P4Se12
_chemical_formula_sum              "Hg4 P4 Se12"
_cell_length_a       6.66709
_cell_length_b       6.69518
_cell_length_c       14.5307
_cell_angle_alpha    93.9885
_cell_angle_beta     98.0304
_cell_angle_gamma    60.1387

_space_group_name_H-M_alt    "P 1"
_space_group_IT_number       1

loop_
  _space_group_symop_operation_xyz
  'x, y, z'

loop_
  _atom_site_type_symbol
  _atom_site_label
  _atom_site_symmetry_multiplicity
  _atom_site_fract_x
  _atom_site_fract_y
  _atom_site_fract_z
  _atom_site_occupancy
  Hg  Hg1       1.0  0.42100  0.80400  0.06760  1.0000
  Hg  Hg2       1.0  0.77500  0.80400  0.43200  1.0000
  Hg  Hg3       1.0  0.22500  0.19600  0.56800  1.0000
  Hg  Hg4       1.0  0.57900  0.19600  0.93200  1.0000
  P   P1        1.0  0.06170  0.46500  0.07950  1.0000
  P   P2        1.0  0.47300  0.46500  0.42100  1.0000
  P   P3        1.0  0.52700  0.53500  0.57900  1.0000
  P   P4        1.0  0.93800  0.53500  0.92100  1.0000
  Se  Se1       1.0  0.43000  0.39100  0.10600  1.0000
  Se  Se2       1.0  0.03690  0.16300  0.11800  1.0000
  Se  Se3       1.0  0.82800  0.77600  0.15200  1.0000
  Se  Se4       1.0  0.39600  0.77600  0.34800  1.0000
  Se  Se5       1.0  0.80000  0.16300  0.38200  1.0000
  Se  Se6       1.0  0.17800  0.39100  0.39400  1.0000
  Se  Se7       1.0  0.82200  0.60900  0.60600  1.0000
  Se  Se8       1.0  0.20000  0.83700  0.61800  1.0000
  Se  Se9       1.0  0.60400  0.22400  0.65200  1.0000
  Se  Se10      1.0  0.17200  0.22400  0.84800  1.0000
  Se  Se11      1.0  0.96300  0.83700  0.88200  1.0000
  Se  Se12      1.0  0.57000  0.60900  0.89400  1.0000
