data_image0
_chemical_formula_structural       Cl10Mo2N4S4
_chemical_formula_sum              "Cl10 Mo2 N4 S4"
_cell_length_a       6.9679
_cell_length_b       7.43427
_cell_length_c       9.80959
_cell_angle_alpha    76.541
_cell_angle_beta     80.5217
_cell_angle_gamma    86.7276

_space_group_name_H-M_alt    "P 1"
_space_group_IT_number       1

loop_
  _space_group_symop_operation_xyz
  'x, y, z'

loop_
  _atom_site_type_symbol
  _atom_site_label
  _atom_site_symmetry_multiplicity
  _atom_site_fract_x
  _atom_site_fract_y
  _atom_site_fract_z
  _atom_site_occupancy
  Cl  Cl1       1.0  0.24000  0.03280  0.03480  1.0000
  Cl  Cl2       1.0  0.49100  0.31100  0.15200  1.0000
  Cl  Cl3       1.0  0.88100  0.02630  0.29900  1.0000
  Cl  Cl4       1.0  0.51800  0.64100  0.32100  1.0000
  Cl  Cl5       1.0  0.09430  0.36700  0.37500  1.0000
  Cl  Cl6       1.0  0.90600  0.63300  0.62500  1.0000
  Cl  Cl7       1.0  0.48200  0.35900  0.67900  1.0000
  Cl  Cl8       1.0  0.11900  0.97400  0.70100  1.0000
  Cl  Cl9       1.0  0.50900  0.68900  0.84800  1.0000
  Cl  Cl10      1.0  0.76000  0.96700  0.96500  1.0000
  Mo  Mo1       1.0  0.19600  0.15400  0.23600  1.0000
  Mo  Mo2       1.0  0.80400  0.84600  0.76400  1.0000
  N   N1        1.0  0.06310  0.38500  0.07780  1.0000
  N   N2        1.0  0.30100  0.97000  0.35600  1.0000
  N   N3        1.0  0.69900  0.02960  0.64400  1.0000
  N   N4        1.0  0.93700  0.61500  0.92200  1.0000
  S   S1        1.0  0.97000  0.59200  0.08840  1.0000
  S   S2        1.0  0.39200  0.80500  0.45600  1.0000
  S   S3        1.0  0.60800  0.19500  0.54400  1.0000
  S   S4        1.0  0.02960  0.40800  0.91200  1.0000
