data_image0
_chemical_formula_structural       CI12Sc7
_chemical_formula_sum              "C1 I12 Sc7"
_cell_length_a       9.39498
_cell_length_b       9.39498
_cell_length_c       9.39498
_cell_angle_alpha    108.173
_cell_angle_beta     108.173
_cell_angle_gamma    108.173

_space_group_name_H-M_alt    "P 1"
_space_group_IT_number       1

loop_
  _space_group_symop_operation_xyz
  'x, y, z'

loop_
  _atom_site_type_symbol
  _atom_site_label
  _atom_site_symmetry_multiplicity
  _atom_site_fract_x
  _atom_site_fract_y
  _atom_site_fract_z
  _atom_site_occupancy
  C   C1        1.0  0.00017  0.00017  0.00017  1.0000
  I   I1        1.0  0.22300  0.70400  0.07410  1.0000
  I   I2        1.0  0.46000  0.38300  0.14800  1.0000
  I   I3        1.0  0.70400  0.07410  0.22300  1.0000
  I   I4        1.0  0.92400  0.78100  0.29800  1.0000
  I   I5        1.0  0.14800  0.46000  0.38300  1.0000
  I   I6        1.0  0.38300  0.14800  0.46000  1.0000
  I   I7        1.0  0.61800  0.83900  0.54700  1.0000
  I   I8        1.0  0.83900  0.54700  0.61800  1.0000
  I   I9        1.0  0.07410  0.22300  0.70400  1.0000
  I   I10       1.0  0.29800  0.92400  0.78100  1.0000
  I   I11       1.0  0.54700  0.61800  0.83900  1.0000
  I   I12       1.0  0.78100  0.29800  0.92400  1.0000
  Sc  Sc1       1.0  0.09640  0.27300  0.03780  1.0000
  Sc  Sc2       1.0  0.27300  0.03780  0.09640  1.0000
  Sc  Sc3       1.0  0.03780  0.09640  0.27300  1.0000
  Sc  Sc4       1.0  0.47600  0.47600  0.47600  1.0000
  Sc  Sc5       1.0  0.97500  0.91500  0.73300  1.0000
  Sc  Sc6       1.0  0.73300  0.97500  0.91500  1.0000
  Sc  Sc7       1.0  0.91500  0.73300  0.97500  1.0000
