data_image0
_chemical_formula_structural       C6Cs2N6Se6
_chemical_formula_sum              "C6 Cs2 N6 Se6"
_cell_length_a       5.56817
_cell_length_b       8.00745
_cell_length_c       11.2905
_cell_angle_alpha    69.2305
_cell_angle_beta     92.6437
_cell_angle_gamma    97.4739

_space_group_name_H-M_alt    "P 1"
_space_group_IT_number       1

loop_
  _space_group_symop_operation_xyz
  'x, y, z'

loop_
  _atom_site_type_symbol
  _atom_site_label
  _atom_site_symmetry_multiplicity
  _atom_site_fract_x
  _atom_site_fract_y
  _atom_site_fract_z
  _atom_site_occupancy
  C   C1        1.0  0.31600  0.10200  0.23800  1.0000
  C   C2        1.0  0.18400  0.66000  0.23800  1.0000
  C   C3        1.0  0.75000  0.35800  0.28400  1.0000
  C   C4        1.0  0.25000  0.64200  0.71600  1.0000
  C   C5        1.0  0.81600  0.34000  0.76200  1.0000
  C   C6        1.0  0.68400  0.89800  0.76200  1.0000
  Cs  Cs1       1.0  0.75000  0.77900  0.44200  1.0000
  Cs  Cs2       1.0  0.25000  0.22100  0.55800  1.0000
  N   N1        1.0  0.18400  0.08440  0.32100  1.0000
  N   N2        1.0  0.31600  0.59400  0.32100  1.0000
  N   N3        1.0  0.75000  0.30200  0.39500  1.0000
  N   N4        1.0  0.25000  0.69800  0.60500  1.0000
  N   N5        1.0  0.68400  0.40600  0.67900  1.0000
  N   N6        1.0  0.81600  0.91600  0.67900  1.0000
  Se  Se1       1.0  0.75000  0.44500  0.11000  1.0000
  Se  Se2       1.0  0.53300  0.12300  0.11500  1.0000
  Se  Se3       1.0  0.96700  0.76200  0.11500  1.0000
  Se  Se4       1.0  0.03260  0.23800  0.88500  1.0000
  Se  Se5       1.0  0.46700  0.87700  0.88500  1.0000
  Se  Se6       1.0  0.25000  0.55500  0.89000  1.0000
