data_image0
_chemical_formula_structural       Ba4Ir2Lu2O12
_chemical_formula_sum              "Ba4 Ir2 Lu2 O12"
_cell_length_a       5.85313
_cell_length_b       5.85145
_cell_length_c       8.27972
_cell_angle_alpha    90
_cell_angle_beta     90.0522
_cell_angle_gamma    90

_space_group_name_H-M_alt    "P 1"
_space_group_IT_number       1

loop_
  _space_group_symop_operation_xyz
  'x, y, z'

loop_
  _atom_site_type_symbol
  _atom_site_label
  _atom_site_symmetry_multiplicity
  _atom_site_fract_x
  _atom_site_fract_y
  _atom_site_fract_z
  _atom_site_occupancy
  Ba  Ba1       1.0  0.50000  0.50000  0.25000  1.0000
  Ba  Ba2       1.0  0.99994  0.99991  0.25000  1.0000
  Ba  Ba3       1.0  0.00006  0.00009  0.75000  1.0000
  Ba  Ba4       1.0  0.50000  0.50000  0.75000  1.0000
  Ir  Ir1       1.0  0.50000  0.00000  0.00000  1.0000
  Ir  Ir2       1.0  1.00000  0.50000  0.50000  1.0000
  Lu  Lu1       1.0  0.00000  0.50000  0.00000  1.0000
  Lu  Lu2       1.0  0.50000  0.00000  0.50000  1.0000
  O   O1        1.0  0.73500  0.24400  0.00011  1.0000
  O   O2        1.0  0.25600  0.23500  0.00036  1.0000
  O   O3        1.0  0.50000  0.00029  0.23900  1.0000
  O   O4        1.0  0.00000  0.50000  0.26100  1.0000
  O   O5        1.0  0.24400  0.73500  0.50000  1.0000
  O   O6        1.0  0.76500  0.74400  0.50000  1.0000
  O   O7        1.0  0.23500  0.25600  0.50000  1.0000
  O   O8        1.0  0.75600  0.26500  0.50000  1.0000
  O   O9        1.0  0.00048  0.50000  0.73900  1.0000
  O   O10       1.0  0.50000  0.00000  0.76100  1.0000
  O   O11       1.0  0.74400  0.76500  0.00000  1.0000
  O   O12       1.0  0.26500  0.75600  0.00000  1.0000
