data_image0
_chemical_formula_structural       Mn2Na10O8
_chemical_formula_sum              "Mn2 Na10 O8"
_cell_length_a       5.78592
_cell_length_b       7.75319
_cell_length_c       5.98123
_cell_angle_alpha    90
_cell_angle_beta     90
_cell_angle_gamma    90

_space_group_name_H-M_alt    "P 1"
_space_group_IT_number       1

loop_
  _space_group_symop_operation_xyz
  'x, y, z'

loop_
  _atom_site_type_symbol
  _atom_site_label
  _atom_site_symmetry_multiplicity
  _atom_site_fract_x
  _atom_site_fract_y
  _atom_site_fract_z
  _atom_site_occupancy
  Mn  Mn1       1.0  0.00590  0.00000  0.17300  1.0000
  Mn  Mn2       1.0  0.50600  0.50000  0.82700  1.0000
  Na  Na1       1.0  0.56300  0.17900  0.07200  1.0000
  Na  Na2       1.0  0.56300  0.82100  0.07200  1.0000
  Na  Na3       1.0  0.76100  0.50000  0.32300  1.0000
  Na  Na4       1.0  0.25300  0.30200  0.39400  1.0000
  Na  Na5       1.0  0.25300  0.69800  0.39400  1.0000
  Na  Na6       1.0  0.75300  0.19800  0.60600  1.0000
  Na  Na7       1.0  0.75300  0.80200  0.60600  1.0000
  Na  Na8       1.0  0.26100  0.00000  0.67700  1.0000
  Na  Na9       1.0  0.06330  0.32100  0.92800  1.0000
  Na  Na10      1.0  0.06330  0.67900  0.92800  1.0000
  O   O1        1.0  0.38400  0.50000  0.12900  1.0000
  O   O2        1.0  0.90400  0.22700  0.25800  1.0000
  O   O3        1.0  0.90400  0.77300  0.25800  1.0000
  O   O4        1.0  0.31600  0.00000  0.28500  1.0000
  O   O5        1.0  0.81600  0.50000  0.71500  1.0000
  O   O6        1.0  0.40400  0.27300  0.74200  1.0000
  O   O7        1.0  0.40400  0.72700  0.74200  1.0000
  O   O8        1.0  0.88400  0.00000  0.87100  1.0000
