data_image0
_chemical_formula_structural       Hg8Na12
_chemical_formula_sum              "Hg8 Na12"
_cell_length_a       8.65308
_cell_length_b       8.65308
_cell_length_c       7.29934
_cell_angle_alpha    90
_cell_angle_beta     90
_cell_angle_gamma    90

_space_group_name_H-M_alt    "P 1"
_space_group_IT_number       1

loop_
  _space_group_symop_operation_xyz
  'x, y, z'

loop_
  _atom_site_type_symbol
  _atom_site_label
  _atom_site_symmetry_multiplicity
  _atom_site_fract_x
  _atom_site_fract_y
  _atom_site_fract_z
  _atom_site_occupancy
  Hg  Hg1       1.0  0.13900  0.13900  0.20600  1.0000
  Hg  Hg2       1.0  0.86100  0.86100  0.20600  1.0000
  Hg  Hg3       1.0  0.63900  0.36100  0.29400  1.0000
  Hg  Hg4       1.0  0.36100  0.63900  0.29400  1.0000
  Hg  Hg5       1.0  0.63900  0.36100  0.70600  1.0000
  Hg  Hg6       1.0  0.36100  0.63900  0.70600  1.0000
  Hg  Hg7       1.0  0.13900  0.13900  0.79400  1.0000
  Hg  Hg8       1.0  0.86100  0.86100  0.79400  1.0000
  Na  Na1       1.0  0.50000  0.00000  0.00000  1.0000
  Na  Na2       1.0  0.82000  0.18000  0.00000  1.0000
  Na  Na3       1.0  0.36600  0.36600  0.00000  1.0000
  Na  Na4       1.0  0.00000  0.50000  0.00000  1.0000
  Na  Na5       1.0  0.63400  0.63400  0.00000  1.0000
  Na  Na6       1.0  0.18000  0.82000  0.00000  1.0000
  Na  Na7       1.0  0.50000  0.00000  0.50000  1.0000
  Na  Na8       1.0  0.86600  0.13400  0.50000  1.0000
  Na  Na9       1.0  0.32000  0.32000  0.50000  1.0000
  Na  Na10      1.0  0.00000  0.50000  0.50000  1.0000
  Na  Na11      1.0  0.68000  0.68000  0.50000  1.0000
  Na  Na12      1.0  0.13400  0.86600  0.50000  1.0000
