data_image0
_chemical_formula_structural       Cs4F12Ga2Na2
_chemical_formula_sum              "Cs4 F12 Ga2 Na2"
_cell_length_a       6.07687
_cell_length_b       6.07687
_cell_length_c       10.4684
_cell_angle_alpha    73.1271
_cell_angle_beta     106.873
_cell_angle_gamma    120

_space_group_name_H-M_alt    "P 1"
_space_group_IT_number       1

loop_
  _space_group_symop_operation_xyz
  'x, y, z'

loop_
  _atom_site_type_symbol
  _atom_site_label
  _atom_site_symmetry_multiplicity
  _atom_site_fract_x
  _atom_site_fract_y
  _atom_site_fract_z
  _atom_site_occupancy
  Cs  Cs1       1.0  0.37300  0.62700  0.11800  1.0000
  Cs  Cs2       1.0  0.78200  0.21800  0.34600  1.0000
  Cs  Cs3       1.0  0.21800  0.78200  0.65400  1.0000
  Cs  Cs4       1.0  0.62700  0.37300  0.88200  1.0000
  F   F1        1.0  0.89200  0.10800  0.11600  1.0000
  F   F2        1.0  0.89200  0.66800  0.11600  1.0000
  F   F3        1.0  0.33200  0.10800  0.11600  1.0000
  F   F4        1.0  0.31400  0.23800  0.38900  1.0000
  F   F5        1.0  0.76200  0.68600  0.38900  1.0000
  F   F6        1.0  0.31400  0.68600  0.38900  1.0000
  F   F7        1.0  0.68600  0.31400  0.61100  1.0000
  F   F8        1.0  0.23800  0.31400  0.61100  1.0000
  F   F9        1.0  0.68600  0.76200  0.61100  1.0000
  F   F10       1.0  0.10800  0.33200  0.88400  1.0000
  F   F11       1.0  0.66800  0.89200  0.88400  1.0000
  F   F12       1.0  0.10800  0.89200  0.88400  1.0000
  Ga  Ga1       1.0  0.00000  0.00000  0.00000  1.0000
  Ga  Ga2       1.0  0.50000  0.50000  0.50000  1.0000
  Na  Na1       1.0  0.09690  0.90300  0.29100  1.0000
  Na  Na2       1.0  0.90300  0.09690  0.70900  1.0000
