data_image0
_chemical_formula_structural       O12Pb6S2
_chemical_formula_sum              "O12 Pb6 S2"
_cell_length_a       6.86786
_cell_length_b       5.6067
_cell_length_c       7.62012
_cell_angle_alpha    89.7277
_cell_angle_beta     98.6822
_cell_angle_gamma    88.8458

_space_group_name_H-M_alt    "P 1"
_space_group_IT_number       1

loop_
  _space_group_symop_operation_xyz
  'x, y, z'

loop_
  _atom_site_type_symbol
  _atom_site_label
  _atom_site_symmetry_multiplicity
  _atom_site_fract_x
  _atom_site_fract_y
  _atom_site_fract_z
  _atom_site_occupancy
  O   O1        1.0  0.82100  0.50500  0.38000  1.0000
  O   O2        1.0  0.17900  0.49500  0.62000  1.0000
  O   O3        1.0  0.82600  0.99600  0.37800  1.0000
  O   O4        1.0  0.17400  0.00406  0.62200  1.0000
  O   O5        1.0  0.82600  0.25200  0.72400  1.0000
  O   O6        1.0  0.17400  0.74800  0.27600  1.0000
  O   O7        1.0  0.81500  0.24700  0.03940  1.0000
  O   O8        1.0  0.18500  0.75300  0.96100  1.0000
  O   O9        1.0  0.56100  0.04720  0.83800  1.0000
  O   O10       1.0  0.43900  0.95300  0.16200  1.0000
  O   O11       1.0  0.56800  0.47700  0.84200  1.0000
  O   O12       1.0  0.43200  0.52300  0.15800  1.0000
  Pb  Pb1       1.0  0.09130  0.25000  0.36600  1.0000
  Pb  Pb2       1.0  0.90900  0.75000  0.63400  1.0000
  Pb  Pb3       1.0  0.20600  0.24800  0.86200  1.0000
  Pb  Pb4       1.0  0.79400  0.75200  0.13800  1.0000
  Pb  Pb5       1.0  0.59200  0.25100  0.41600  1.0000
  Pb  Pb6       1.0  0.40800  0.74900  0.58400  1.0000
  S   S1        1.0  0.69200  0.25600  0.86300  1.0000
  S   S2        1.0  0.30800  0.74400  0.13700  1.0000
