data_image0
_chemical_formula_structural       Al2Cs4F12Na2
_chemical_formula_sum              "Al2 Cs4 F12 Na2"
_cell_length_a       5.85183
_cell_length_b       10.0402
_cell_length_c       5.85183
_cell_angle_alpha    106.988
_cell_angle_beta     59.9139
_cell_angle_gamma    106.988

_space_group_name_H-M_alt    "P 1"
_space_group_IT_number       1

loop_
  _space_group_symop_operation_xyz
  'x, y, z'

loop_
  _atom_site_type_symbol
  _atom_site_label
  _atom_site_symmetry_multiplicity
  _atom_site_fract_x
  _atom_site_fract_y
  _atom_site_fract_z
  _atom_site_occupancy
  Al  Al1       1.0  0.50000  0.50000  0.50000  1.0000
  Al  Al2       1.0  0.00000  0.00000  0.00000  1.0000
  Cs  Cs1       1.0  0.71800  0.15300  0.71800  1.0000
  Cs  Cs2       1.0  0.28200  0.84700  0.28200  1.0000
  Cs  Cs3       1.0  0.12700  0.38100  0.12700  1.0000
  Cs  Cs4       1.0  0.87300  0.61900  0.87300  1.0000
  F   F1        1.0  0.18200  0.10800  0.18200  1.0000
  F   F2        1.0  0.81800  0.89200  0.81800  1.0000
  F   F3        1.0  0.18300  0.10800  0.74300  1.0000
  F   F4        1.0  0.25700  0.89200  0.81700  1.0000
  F   F5        1.0  0.81700  0.89200  0.25700  1.0000
  F   F6        1.0  0.74300  0.10800  0.18300  1.0000
  F   F7        1.0  0.60700  0.38700  0.60700  1.0000
  F   F8        1.0  0.39300  0.61300  0.39300  1.0000
  F   F9        1.0  0.17300  0.38700  0.60700  1.0000
  F   F10       1.0  0.39300  0.61300  0.82700  1.0000
  F   F11       1.0  0.82700  0.61300  0.39300  1.0000
  F   F12       1.0  0.60700  0.38700  0.17300  1.0000
  Na  Na1       1.0  0.40200  0.20700  0.40200  1.0000
  Na  Na2       1.0  0.59800  0.79300  0.59800  1.0000
