data_image0
_chemical_formula_structural       Cu4F12Na4
_chemical_formula_sum              "Cu4 F12 Na4"
_cell_length_a       5.25815
_cell_length_b       5.47389
_cell_length_c       7.58392
_cell_angle_alpha    90.0999
_cell_angle_beta     90.6472
_cell_angle_gamma    89.2688

_space_group_name_H-M_alt    "P 1"
_space_group_IT_number       1

loop_
  _space_group_symop_operation_xyz
  'x, y, z'

loop_
  _atom_site_type_symbol
  _atom_site_label
  _atom_site_symmetry_multiplicity
  _atom_site_fract_x
  _atom_site_fract_y
  _atom_site_fract_z
  _atom_site_occupancy
  Cu  Cu1       1.0  0.50000  0.00000  1.00000  1.0000
  Cu  Cu2       1.0  1.00000  0.50000  0.00000  1.0000
  Cu  Cu3       1.0  0.50000  0.00000  0.50000  1.0000
  Cu  Cu4       1.0  0.00000  0.50000  0.50000  1.0000
  F   F1        1.0  0.69400  0.30100  0.05260  1.0000
  F   F2        1.0  0.80600  0.80000  0.05730  1.0000
  F   F3        1.0  0.39300  0.97000  0.25000  1.0000
  F   F4        1.0  0.10600  0.46400  0.25000  1.0000
  F   F5        1.0  0.80700  0.80100  0.44500  1.0000
  F   F6        1.0  0.69200  0.30100  0.44700  1.0000
  F   F7        1.0  0.30800  0.69900  0.55300  1.0000
  F   F8        1.0  0.19300  0.19900  0.55500  1.0000
  F   F9        1.0  0.89400  0.53600  0.75000  1.0000
  F   F10       1.0  0.60700  0.03020  0.75000  1.0000
  F   F11       1.0  0.19400  0.20000  0.94300  1.0000
  F   F12       1.0  0.30600  0.69900  0.94700  1.0000
  Na  Na1       1.0  0.51600  0.56200  0.24800  1.0000
  Na  Na2       1.0  0.98100  0.06330  0.25200  1.0000
  Na  Na3       1.0  0.01940  0.93700  0.74800  1.0000
  Na  Na4       1.0  0.48400  0.43800  0.75200  1.0000
