data_image0
_chemical_formula_structural       I16Th4
_chemical_formula_sum              "I16 Th4"
_cell_length_a       13.8679
_cell_length_b       8.21854
_cell_length_c       8.49608
_cell_angle_alpha    90
_cell_angle_beta     103.276
_cell_angle_gamma    90

_space_group_name_H-M_alt    "P 1"
_space_group_IT_number       1

loop_
  _space_group_symop_operation_xyz
  'x, y, z'

loop_
  _atom_site_type_symbol
  _atom_site_label
  _atom_site_symmetry_multiplicity
  _atom_site_fract_x
  _atom_site_fract_y
  _atom_site_fract_z
  _atom_site_occupancy
  I   I1        1.0  0.15400  0.35600  0.01050  1.0000
  I   I2        1.0  0.31100  0.75300  0.02460  1.0000
  I   I3        1.0  0.94800  0.08420  0.17400  1.0000
  I   I4        1.0  0.39800  0.18600  0.20200  1.0000
  I   I5        1.0  0.10200  0.68600  0.29800  1.0000
  I   I6        1.0  0.55200  0.58400  0.32600  1.0000
  I   I7        1.0  0.18900  0.25300  0.47500  1.0000
  I   I8        1.0  0.34600  0.85600  0.49000  1.0000
  I   I9        1.0  0.65400  0.14400  0.51000  1.0000
  I   I10       1.0  0.81100  0.74700  0.52500  1.0000
  I   I11       1.0  0.44800  0.41600  0.67400  1.0000
  I   I12       1.0  0.89800  0.31400  0.70200  1.0000
  I   I13       1.0  0.60200  0.81400  0.79800  1.0000
  I   I14       1.0  0.05150  0.91600  0.82600  1.0000
  I   I15       1.0  0.68900  0.24700  0.97500  1.0000
  I   I16       1.0  0.84600  0.64400  0.99000  1.0000
  Th  Th1       1.0  0.18300  0.01260  0.17800  1.0000
  Th  Th2       1.0  0.31700  0.51300  0.32200  1.0000
  Th  Th3       1.0  0.68300  0.48700  0.67800  1.0000
  Th  Th4       1.0  0.81700  0.98700  0.82200  1.0000
