data_image0
_chemical_formula_structural       F12Mn2Na6
_chemical_formula_sum              "F12 Mn2 Na6"
_cell_length_a       5.28296
_cell_length_b       5.53981
_cell_length_c       7.88366
_cell_angle_alpha    90
_cell_angle_beta     88.7811
_cell_angle_gamma    90

_space_group_name_H-M_alt    "P 1"
_space_group_IT_number       1

loop_
  _space_group_symop_operation_xyz
  'x, y, z'

loop_
  _atom_site_type_symbol
  _atom_site_label
  _atom_site_symmetry_multiplicity
  _atom_site_fract_x
  _atom_site_fract_y
  _atom_site_fract_z
  _atom_site_occupancy
  F   F1        1.0  0.71100  0.17500  0.06050  1.0000
  F   F2        1.0  0.83700  0.71500  0.06980  1.0000
  F   F3        1.0  0.12700  0.06130  0.24200  1.0000
  F   F4        1.0  0.37300  0.56100  0.25800  1.0000
  F   F5        1.0  0.66300  0.21500  0.43000  1.0000
  F   F6        1.0  0.78900  0.67500  0.44000  1.0000
  F   F7        1.0  0.21100  0.32500  0.56000  1.0000
  F   F8        1.0  0.33700  0.78500  0.57000  1.0000
  F   F9        1.0  0.62700  0.43900  0.74200  1.0000
  F   F10       1.0  0.87300  0.93900  0.75800  1.0000
  F   F11       1.0  0.16300  0.28500  0.93000  1.0000
  F   F12       1.0  0.28900  0.82500  0.94000  1.0000
  Mn  Mn1       1.0  0.00000  0.00000  0.00000  1.0000
  Mn  Mn2       1.0  0.50000  0.50000  0.50000  1.0000
  Na  Na1       1.0  0.50000  0.50000  0.00000  1.0000
  Na  Na2       1.0  0.98500  0.43700  0.24900  1.0000
  Na  Na3       1.0  0.51500  0.93700  0.25100  1.0000
  Na  Na4       1.0  1.00000  0.00000  0.50000  1.0000
  Na  Na5       1.0  0.48500  0.06340  0.74900  1.0000
  Na  Na6       1.0  0.01520  0.56300  0.75100  1.0000
