data_image0
_chemical_formula_structural       Br12Cs4Cu4
_chemical_formula_sum              "Br12 Cs4 Cu4"
_cell_length_a       7.51654
_cell_length_b       7.51654
_cell_length_c       12.8972
_cell_angle_alpha    90
_cell_angle_beta     90
_cell_angle_gamma    118.082

_space_group_name_H-M_alt    "P 1"
_space_group_IT_number       1

loop_
  _space_group_symop_operation_xyz
  'x, y, z'

loop_
  _atom_site_type_symbol
  _atom_site_label
  _atom_site_symmetry_multiplicity
  _atom_site_fract_x
  _atom_site_fract_y
  _atom_site_fract_z
  _atom_site_occupancy
  Br  Br1       1.0  0.80000  0.20000  0.00000  1.0000
  Br  Br2       1.0  0.32800  0.18900  0.03370  1.0000
  Br  Br3       1.0  0.93300  0.46600  0.23500  1.0000
  Br  Br4       1.0  0.49200  0.49200  0.25000  1.0000
  Br  Br5       1.0  0.46600  0.93300  0.26500  1.0000
  Br  Br6       1.0  0.18900  0.32800  0.46600  1.0000
  Br  Br7       1.0  0.20000  0.80000  0.50000  1.0000
  Br  Br8       1.0  0.67200  0.81100  0.53400  1.0000
  Br  Br9       1.0  0.06730  0.53400  0.73500  1.0000
  Br  Br10      1.0  0.50800  0.50800  0.75000  1.0000
  Br  Br11      1.0  0.53400  0.06730  0.76500  1.0000
  Br  Br12      1.0  0.81100  0.67200  0.96600  1.0000
  Cs  Cs1       1.0  0.31700  0.68300  0.00000  1.0000
  Cs  Cs2       1.0  0.97900  0.97900  0.25000  1.0000
  Cs  Cs3       1.0  0.68300  0.31700  0.50000  1.0000
  Cs  Cs4       1.0  0.02070  0.02070  0.75000  1.0000
  Cu  Cu1       1.0  0.64100  0.33800  0.12800  1.0000
  Cu  Cu2       1.0  0.33800  0.64100  0.37200  1.0000
  Cu  Cu3       1.0  0.35900  0.66200  0.62800  1.0000
  Cu  Cu4       1.0  0.66200  0.35900  0.87200  1.0000
