data_image0
_chemical_formula_structural       Cl9Nb2S4Tl5
_chemical_formula_sum              "Cl9 Nb2 S4 Tl5"
_cell_length_a       7.07023
_cell_length_b       9.66524
_cell_length_c       9.88222
_cell_angle_alpha    119.276
_cell_angle_beta     110.961
_cell_angle_gamma    90

_space_group_name_H-M_alt    "P 1"
_space_group_IT_number       1

loop_
  _space_group_symop_operation_xyz
  'x, y, z'

loop_
  _atom_site_type_symbol
  _atom_site_label
  _atom_site_symmetry_multiplicity
  _atom_site_fract_x
  _atom_site_fract_y
  _atom_site_fract_z
  _atom_site_occupancy
  Cl  Cl1       1.0  0.50000  0.50000  0.00000  1.0000
  Cl  Cl2       1.0  0.13600  0.39800  0.27200  1.0000
  Cl  Cl3       1.0  0.13600  0.87500  0.27200  1.0000
  Cl  Cl4       1.0  0.45500  0.21200  0.42400  1.0000
  Cl  Cl5       1.0  0.96800  0.21200  0.42400  1.0000
  Cl  Cl6       1.0  0.03170  0.78800  0.57600  1.0000
  Cl  Cl7       1.0  0.54500  0.78800  0.57600  1.0000
  Cl  Cl8       1.0  0.86400  0.12500  0.72800  1.0000
  Cl  Cl9       1.0  0.86400  0.60200  0.72800  1.0000
  Nb  Nb1       1.0  0.09280  0.09280  0.18600  1.0000
  Nb  Nb2       1.0  0.90700  0.90700  0.81400  1.0000
  S   S1        1.0  0.25300  0.10400  0.00000  1.0000
  S   S2        1.0  0.74700  0.10400  0.00000  1.0000
  S   S3        1.0  0.25300  0.89600  0.00000  1.0000
  S   S4        1.0  0.74700  0.89600  0.00000  1.0000
  Tl  Tl1       1.0  0.00000  0.50000  0.00000  1.0000
  Tl  Tl2       1.0  0.66600  0.44700  0.33100  1.0000
  Tl  Tl3       1.0  0.66600  0.88500  0.33100  1.0000
  Tl  Tl4       1.0  0.33400  0.11500  0.66900  1.0000
  Tl  Tl5       1.0  0.33400  0.55300  0.66900  1.0000
