data_image0
_chemical_formula_structural       Cu2In2P4Se12
_chemical_formula_sum              "Cu2 In2 P4 Se12"
_cell_length_a       6.44594
_cell_length_b       6.44646
_cell_length_c       13.8751
_cell_angle_alpha    90.019
_cell_angle_beta     89.9905
_cell_angle_gamma    120.003

_space_group_name_H-M_alt    "P 1"
_space_group_IT_number       1

loop_
  _space_group_symop_operation_xyz
  'x, y, z'

loop_
  _atom_site_type_symbol
  _atom_site_label
  _atom_site_symmetry_multiplicity
  _atom_site_fract_x
  _atom_site_fract_y
  _atom_site_fract_z
  _atom_site_occupancy
  Cu  Cu1       1.0  0.66700  0.33300  0.25000  1.0000
  Cu  Cu2       1.0  0.33300  0.66700  0.75000  1.0000
  In  In1       1.0  0.00022  0.00011  0.25000  1.0000
  In  In2       1.0  0.00000  0.00000  0.75000  1.0000
  P   P1        1.0  0.33300  0.66700  0.16800  1.0000
  P   P2        1.0  0.33300  0.66700  0.33200  1.0000
  P   P3        1.0  0.66700  0.33300  0.66800  1.0000
  P   P4        1.0  0.66700  0.33300  0.83200  1.0000
  Se  Se1       1.0  0.35000  0.34300  0.12700  1.0000
  Se  Se2       1.0  0.99200  0.65000  0.12700  1.0000
  Se  Se3       1.0  0.65700  0.00775  0.12700  1.0000
  Se  Se4       1.0  0.65700  0.65000  0.37300  1.0000
  Se  Se5       1.0  0.99200  0.34300  0.37300  1.0000
  Se  Se6       1.0  0.35000  0.00773  0.37300  1.0000
  Se  Se7       1.0  0.65000  0.99200  0.62700  1.0000
  Se  Se8       1.0  0.00757  0.65700  0.62700  1.0000
  Se  Se9       1.0  0.34300  0.35000  0.62700  1.0000
  Se  Se10      1.0  0.34300  0.99200  0.87300  1.0000
  Se  Se11      1.0  0.00756  0.35000  0.87300  1.0000
  Se  Se12      1.0  0.65000  0.65700  0.87300  1.0000
