data_image0
_chemical_formula_structural       Au4I12K4
_chemical_formula_sum              "Au4 I12 K4"
_cell_length_a       7.47427
_cell_length_b       9.64402
_cell_length_c       11.5563
_cell_angle_alpha    90
_cell_angle_beta     92.5922
_cell_angle_gamma    90

_space_group_name_H-M_alt    "P 1"
_space_group_IT_number       1

loop_
  _space_group_symop_operation_xyz
  'x, y, z'

loop_
  _atom_site_type_symbol
  _atom_site_label
  _atom_site_symmetry_multiplicity
  _atom_site_fract_x
  _atom_site_fract_y
  _atom_site_fract_z
  _atom_site_occupancy
  Au  Au1       1.0  0.50000  0.50000  1.00000  1.0000
  Au  Au2       1.0  0.00000  0.00000  0.00000  1.0000
  Au  Au3       1.0  1.00000  0.00000  0.50000  1.0000
  Au  Au4       1.0  0.50000  0.50000  0.50000  1.0000
  I   I1        1.0  0.21000  0.65800  0.03180  1.0000
  I   I2        1.0  0.29000  0.15200  0.03540  1.0000
  I   I3        1.0  0.57300  0.49300  0.23400  1.0000
  I   I4        1.0  0.92700  0.99300  0.26600  1.0000
  I   I5        1.0  0.21000  0.65200  0.46500  1.0000
  I   I6        1.0  0.29000  0.15800  0.46800  1.0000
  I   I7        1.0  0.71000  0.84200  0.53200  1.0000
  I   I8        1.0  0.79000  0.34800  0.53500  1.0000
  I   I9        1.0  0.07300  0.00748  0.73400  1.0000
  I   I10       1.0  0.42700  0.50700  0.76600  1.0000
  I   I11       1.0  0.71000  0.84800  0.96500  1.0000
  I   I12       1.0  0.79000  0.34200  0.96800  1.0000
  K   K1        1.0  0.06040  0.38300  0.24900  1.0000
  K   K2        1.0  0.44000  0.88300  0.25100  1.0000
  K   K3        1.0  0.56000  0.11700  0.74900  1.0000
  K   K4        1.0  0.94000  0.61700  0.75100  1.0000
