data_image0
_chemical_formula_structural       FeI12Y7
_chemical_formula_sum              "Fe1 I12 Y7"
_cell_length_a       9.73127
_cell_length_b       9.73127
_cell_length_c       9.73126
_cell_angle_alpha    106.945
_cell_angle_beta     106.945
_cell_angle_gamma    106.945

_space_group_name_H-M_alt    "P 1"
_space_group_IT_number       1

loop_
  _space_group_symop_operation_xyz
  'x, y, z'

loop_
  _atom_site_type_symbol
  _atom_site_label
  _atom_site_symmetry_multiplicity
  _atom_site_fract_x
  _atom_site_fract_y
  _atom_site_fract_z
  _atom_site_occupancy
  Fe  Fe1       1.0  0.00000  0.00000  0.00000  1.0000
  I   I1        1.0  0.67800  0.22600  0.07210  1.0000
  I   I2        1.0  0.38600  0.46300  0.15900  1.0000
  I   I3        1.0  0.07210  0.67800  0.22600  1.0000
  I   I4        1.0  0.77400  0.92800  0.32200  1.0000
  I   I5        1.0  0.46300  0.15900  0.38600  1.0000
  I   I6        1.0  0.15900  0.38600  0.46300  1.0000
  I   I7        1.0  0.84100  0.61400  0.53700  1.0000
  I   I8        1.0  0.53700  0.84100  0.61400  1.0000
  I   I9        1.0  0.22600  0.07210  0.67800  1.0000
  I   I10       1.0  0.92800  0.32200  0.77400  1.0000
  I   I11       1.0  0.61400  0.53700  0.84100  1.0000
  I   I12       1.0  0.32200  0.77400  0.92800  1.0000
  Y   Y1        1.0  0.29000  0.09190  0.02190  1.0000
  Y   Y2        1.0  0.02190  0.29000  0.09190  1.0000
  Y   Y3        1.0  0.09190  0.02190  0.29000  1.0000
  Y   Y4        1.0  0.50000  0.50000  0.50000  1.0000
  Y   Y5        1.0  0.90800  0.97800  0.71000  1.0000
  Y   Y6        1.0  0.97800  0.71000  0.90800  1.0000
  Y   Y7        1.0  0.71000  0.90800  0.97800  1.0000
