data_image0
_chemical_formula_structural       F12Na6Ni2
_chemical_formula_sum              "F12 Na6 Ni2"
_cell_length_a       5.25592
_cell_length_b       5.58271
_cell_length_c       7.5734
_cell_angle_alpha    90
_cell_angle_beta     90.2678
_cell_angle_gamma    90

_space_group_name_H-M_alt    "P 1"
_space_group_IT_number       1

loop_
  _space_group_symop_operation_xyz
  'x, y, z'

loop_
  _atom_site_type_symbol
  _atom_site_label
  _atom_site_symmetry_multiplicity
  _atom_site_fract_x
  _atom_site_fract_y
  _atom_site_fract_z
  _atom_site_occupancy
  F   F1        1.0  0.71200  0.17500  0.05560  1.0000
  F   F2        1.0  0.83200  0.71300  0.07050  1.0000
  F   F3        1.0  0.12400  0.04960  0.22900  1.0000
  F   F4        1.0  0.37600  0.55000  0.27100  1.0000
  F   F5        1.0  0.66800  0.21300  0.43000  1.0000
  F   F6        1.0  0.78800  0.67500  0.44400  1.0000
  F   F7        1.0  0.21200  0.32500  0.55600  1.0000
  F   F8        1.0  0.33200  0.78700  0.57000  1.0000
  F   F9        1.0  0.62400  0.45000  0.72900  1.0000
  F   F10       1.0  0.87600  0.95000  0.77100  1.0000
  F   F11       1.0  0.16800  0.28700  0.93000  1.0000
  F   F12       1.0  0.28800  0.82500  0.94400  1.0000
  Na  Na1       1.0  0.50000  0.50000  1.00000  1.0000
  Na  Na2       1.0  0.52300  0.92800  0.24900  1.0000
  Na  Na3       1.0  0.97700  0.42800  0.25100  1.0000
  Na  Na4       1.0  0.00000  0.00000  0.50000  1.0000
  Na  Na5       1.0  0.02280  0.57200  0.74900  1.0000
  Na  Na6       1.0  0.47700  0.07200  0.75100  1.0000
  Ni  Ni1       1.0  0.00000  0.00000  0.00000  1.0000
  Ni  Ni2       1.0  0.50000  0.50000  0.50000  1.0000
