data_image0
_chemical_formula_structural       Cs4I16
_chemical_formula_sum              "Cs4 I16"
_cell_length_a       11.6139
_cell_length_b       9.12773
_cell_length_c       10.6419
_cell_angle_alpha    90
_cell_angle_beta     112.633
_cell_angle_gamma    90

_space_group_name_H-M_alt    "P 1"
_space_group_IT_number       1

loop_
  _space_group_symop_operation_xyz
  'x, y, z'

loop_
  _atom_site_type_symbol
  _atom_site_label
  _atom_site_symmetry_multiplicity
  _atom_site_fract_x
  _atom_site_fract_y
  _atom_site_fract_z
  _atom_site_occupancy
  Cs  Cs1       1.0  0.69400  0.62400  0.27300  1.0000
  Cs  Cs2       1.0  0.19400  0.87600  0.27300  1.0000
  Cs  Cs3       1.0  0.80600  0.12400  0.72700  1.0000
  Cs  Cs4       1.0  0.30600  0.37600  0.72700  1.0000
  I   I1        1.0  0.83000  0.89500  0.05950  1.0000
  I   I2        1.0  0.33000  0.60500  0.05950  1.0000
  I   I3        1.0  0.61000  0.20800  0.12500  1.0000
  I   I4        1.0  0.11000  0.29200  0.12500  1.0000
  I   I5        1.0  0.04990  0.46900  0.33300  1.0000
  I   I6        1.0  0.55000  0.03140  0.33300  1.0000
  I   I7        1.0  0.51200  0.35700  0.45400  1.0000
  I   I8        1.0  0.01170  0.14300  0.45400  1.0000
  I   I9        1.0  0.98800  0.85700  0.54600  1.0000
  I   I10       1.0  0.48800  0.64300  0.54600  1.0000
  I   I11       1.0  0.45000  0.96900  0.66700  1.0000
  I   I12       1.0  0.95000  0.53100  0.66700  1.0000
  I   I13       1.0  0.89000  0.70800  0.87500  1.0000
  I   I14       1.0  0.39000  0.79200  0.87500  1.0000
  I   I15       1.0  0.67000  0.39500  0.94100  1.0000
  I   I16       1.0  0.17000  0.10500  0.94100  1.0000
