data_image0
_chemical_formula_structural       S12Sc8
_chemical_formula_sum              "S12 Sc8"
_cell_length_a       6.38935
_cell_length_b       6.38935
_cell_length_c       11.6536
_cell_angle_alpha    100.629
_cell_angle_beta     100.629
_cell_angle_gamma    109.096

_space_group_name_H-M_alt    "P 1"
_space_group_IT_number       1

loop_
  _space_group_symop_operation_xyz
  'x, y, z'

loop_
  _atom_site_type_symbol
  _atom_site_label
  _atom_site_symmetry_multiplicity
  _atom_site_fract_x
  _atom_site_fract_y
  _atom_site_fract_z
  _atom_site_occupancy
  S   S1        1.0  0.80500  0.04700  0.08820  1.0000
  S   S2        1.0  0.28300  0.54100  0.08820  1.0000
  S   S3        1.0  0.36700  0.11700  0.25000  1.0000
  S   S4        1.0  0.88300  0.63300  0.25000  1.0000
  S   S5        1.0  0.95300  0.19500  0.41200  1.0000
  S   S6        1.0  0.45900  0.71700  0.41200  1.0000
  S   S7        1.0  0.54100  0.28300  0.58800  1.0000
  S   S8        1.0  0.04700  0.80500  0.58800  1.0000
  S   S9        1.0  0.11700  0.36700  0.75000  1.0000
  S   S10       1.0  0.63300  0.88300  0.75000  1.0000
  S   S11       1.0  0.71700  0.45900  0.91200  1.0000
  S   S12       1.0  0.19500  0.95300  0.91200  1.0000
  Sc  Sc1       1.0  0.04150  0.79100  0.08290  1.0000
  Sc  Sc2       1.0  0.62300  0.87300  0.24600  1.0000
  Sc  Sc3       1.0  0.12700  0.37700  0.25400  1.0000
  Sc  Sc4       1.0  0.20900  0.95900  0.41700  1.0000
  Sc  Sc5       1.0  0.79100  0.04150  0.58300  1.0000
  Sc  Sc6       1.0  0.87300  0.62300  0.74600  1.0000
  Sc  Sc7       1.0  0.37700  0.12700  0.75400  1.0000
  Sc  Sc8       1.0  0.95900  0.20900  0.91700  1.0000
