data_image0
_chemical_formula_structural       O4S8Yb8
_chemical_formula_sum              "O4 S8 Yb8"
_cell_length_a       8.05255
_cell_length_b       6.56114
_cell_length_c       7.6239
_cell_angle_alpha    90
_cell_angle_beta     100.409
_cell_angle_gamma    90

_space_group_name_H-M_alt    "P 1"
_space_group_IT_number       1

loop_
  _space_group_symop_operation_xyz
  'x, y, z'

loop_
  _atom_site_type_symbol
  _atom_site_label
  _atom_site_symmetry_multiplicity
  _atom_site_fract_x
  _atom_site_fract_y
  _atom_site_fract_z
  _atom_site_occupancy
  O   O1        1.0  0.61800  0.58400  0.15200  1.0000
  O   O2        1.0  0.38200  0.08400  0.34800  1.0000
  O   O3        1.0  0.61800  0.91600  0.65200  1.0000
  O   O4        1.0  0.38200  0.41600  0.84800  1.0000
  S   S1        1.0  0.02490  0.34000  0.00233  1.0000
  S   S2        1.0  0.62500  0.05920  0.03740  1.0000
  S   S3        1.0  0.37500  0.55900  0.46300  1.0000
  S   S4        1.0  0.97500  0.84000  0.49800  1.0000
  S   S5        1.0  0.02490  0.16000  0.50200  1.0000
  S   S6        1.0  0.62500  0.44100  0.53700  1.0000
  S   S7        1.0  0.37500  0.94100  0.96300  1.0000
  S   S8        1.0  0.97500  0.66000  0.99800  1.0000
  Yb  Yb1       1.0  0.41600  0.35300  0.14200  1.0000
  Yb  Yb2       1.0  0.15800  0.97300  0.22400  1.0000
  Yb  Yb3       1.0  0.84200  0.47300  0.27600  1.0000
  Yb  Yb4       1.0  0.58400  0.85300  0.35800  1.0000
  Yb  Yb5       1.0  0.41600  0.14700  0.64200  1.0000
  Yb  Yb6       1.0  0.15800  0.52700  0.72400  1.0000
  Yb  Yb7       1.0  0.84200  0.02740  0.77600  1.0000
  Yb  Yb8       1.0  0.58400  0.64700  0.85800  1.0000
