data_image0
_chemical_formula_structural       Cl12Hg4Na4
_chemical_formula_sum              "Cl12 Hg4 Na4"
_cell_length_a       7.69874
_cell_length_b       4.11473
_cell_length_c       17.1133
_cell_angle_alpha    90
_cell_angle_beta     90
_cell_angle_gamma    90

_space_group_name_H-M_alt    "P 1"
_space_group_IT_number       1

loop_
  _space_group_symop_operation_xyz
  'x, y, z'

loop_
  _atom_site_type_symbol
  _atom_site_label
  _atom_site_symmetry_multiplicity
  _atom_site_fract_x
  _atom_site_fract_y
  _atom_site_fract_z
  _atom_site_occupancy
  Cl  Cl1       1.0  0.82900  0.75000  0.05010  1.0000
  Cl  Cl2       1.0  0.38500  0.75000  0.11200  1.0000
  Cl  Cl3       1.0  0.98200  0.25000  0.21300  1.0000
  Cl  Cl4       1.0  0.48200  0.25000  0.28700  1.0000
  Cl  Cl5       1.0  0.88500  0.75000  0.38800  1.0000
  Cl  Cl6       1.0  0.32900  0.75000  0.45000  1.0000
  Cl  Cl7       1.0  0.67100  0.25000  0.55000  1.0000
  Cl  Cl8       1.0  0.11500  0.25000  0.61200  1.0000
  Cl  Cl9       1.0  0.51800  0.75000  0.71300  1.0000
  Cl  Cl10      1.0  0.01780  0.75000  0.78700  1.0000
  Cl  Cl11      1.0  0.61500  0.25000  0.88800  1.0000
  Cl  Cl12      1.0  0.17100  0.25000  0.95000  1.0000
  Hg  Hg1       1.0  0.15000  0.25000  0.09370  1.0000
  Hg  Hg2       1.0  0.65000  0.25000  0.40600  1.0000
  Hg  Hg3       1.0  0.35000  0.75000  0.59400  1.0000
  Hg  Hg4       1.0  0.85000  0.75000  0.90600  1.0000
  Na  Na1       1.0  0.64600  0.25000  0.13800  1.0000
  Na  Na2       1.0  0.14600  0.25000  0.36200  1.0000
  Na  Na3       1.0  0.85400  0.75000  0.63800  1.0000
  Na  Na4       1.0  0.35400  0.75000  0.86200  1.0000
