data_image0
_chemical_formula_structural       Ag2In2P4Se12
_chemical_formula_sum              "Ag2 In2 P4 Se12"
_cell_length_a       6.58375
_cell_length_b       6.5837
_cell_length_c       14.2523
_cell_angle_alpha    90.0002
_cell_angle_beta     89.9999
_cell_angle_gamma    120

_space_group_name_H-M_alt    "P 1"
_space_group_IT_number       1

loop_
  _space_group_symop_operation_xyz
  'x, y, z'

loop_
  _atom_site_type_symbol
  _atom_site_label
  _atom_site_symmetry_multiplicity
  _atom_site_fract_x
  _atom_site_fract_y
  _atom_site_fract_z
  _atom_site_occupancy
  Ag  Ag1       1.0  0.66700  0.33300  0.25000  1.0000
  Ag  Ag2       1.0  0.33300  0.66700  0.75000  1.0000
  In  In1       1.0  0.99997  0.99998  0.25000  1.0000
  In  In2       1.0  0.00003  0.00002  0.75000  1.0000
  P   P1        1.0  0.33300  0.66700  0.17000  1.0000
  P   P2        1.0  0.33300  0.66700  0.33000  1.0000
  P   P3        1.0  0.66700  0.33300  0.67000  1.0000
  P   P4        1.0  0.66700  0.33300  0.83000  1.0000
  Se  Se1       1.0  0.66200  0.98200  0.12500  1.0000
  Se  Se2       1.0  0.01750  0.68000  0.12500  1.0000
  Se  Se3       1.0  0.32000  0.33800  0.12500  1.0000
  Se  Se4       1.0  0.01750  0.33800  0.37500  1.0000
  Se  Se5       1.0  0.66200  0.68000  0.37500  1.0000
  Se  Se6       1.0  0.32000  0.98200  0.37500  1.0000
  Se  Se7       1.0  0.33800  0.32000  0.62500  1.0000
  Se  Se8       1.0  0.98200  0.66200  0.62500  1.0000
  Se  Se9       1.0  0.68000  0.01750  0.62500  1.0000
  Se  Se10      1.0  0.33800  0.01750  0.87500  1.0000
  Se  Se11      1.0  0.68000  0.66200  0.87500  1.0000
  Se  Se12      1.0  0.98200  0.32000  0.87500  1.0000
