data_image0
_chemical_formula_structural       Ca4S12Zr4
_chemical_formula_sum              "Ca4 S12 Zr4"
_cell_length_a       7.1201
_cell_length_b       9.7348
_cell_length_c       6.62879
_cell_angle_alpha    90
_cell_angle_beta     90
_cell_angle_gamma    90

_space_group_name_H-M_alt    "P 1"
_space_group_IT_number       1

loop_
  _space_group_symop_operation_xyz
  'x, y, z'

loop_
  _atom_site_type_symbol
  _atom_site_label
  _atom_site_symmetry_multiplicity
  _atom_site_fract_x
  _atom_site_fract_y
  _atom_site_fract_z
  _atom_site_occupancy
  Ca  Ca1       1.0  0.09240  0.25000  0.03330  1.0000
  Ca  Ca2       1.0  0.59200  0.25000  0.46700  1.0000
  Ca  Ca3       1.0  0.40800  0.75000  0.53300  1.0000
  Ca  Ca4       1.0  0.90800  0.75000  0.96700  1.0000
  S   S1        1.0  0.53500  0.75000  0.12500  1.0000
  S   S2        1.0  0.81000  0.06350  0.18300  1.0000
  S   S3        1.0  0.81000  0.43700  0.18300  1.0000
  S   S4        1.0  0.31000  0.06350  0.31700  1.0000
  S   S5        1.0  0.31000  0.43700  0.31700  1.0000
  S   S6        1.0  0.03520  0.75000  0.37500  1.0000
  S   S7        1.0  0.96500  0.25000  0.62500  1.0000
  S   S8        1.0  0.69000  0.56300  0.68300  1.0000
  S   S9        1.0  0.69000  0.93700  0.68300  1.0000
  S   S10       1.0  0.19000  0.56300  0.81700  1.0000
  S   S11       1.0  0.19000  0.93700  0.81700  1.0000
  S   S12       1.0  0.46500  0.25000  0.87500  1.0000
  Zr  Zr1       1.0  0.50000  0.00000  0.00000  1.0000
  Zr  Zr2       1.0  0.50000  0.50000  0.00000  1.0000
  Zr  Zr3       1.0  0.00000  0.00000  0.50000  1.0000
  Zr  Zr4       1.0  0.00000  0.50000  0.50000  1.0000
