data_image0
_chemical_formula_structural       C8Re4Sm8
_chemical_formula_sum              "C8 Re4 Sm8"
_cell_length_a       6.67018
_cell_length_b       5.26228
_cell_length_c       10.0702
_cell_angle_alpha    90
_cell_angle_beta     90
_cell_angle_gamma    90

_space_group_name_H-M_alt    "P 1"
_space_group_IT_number       1

loop_
  _space_group_symop_operation_xyz
  'x, y, z'

loop_
  _atom_site_type_symbol
  _atom_site_label
  _atom_site_symmetry_multiplicity
  _atom_site_fract_x
  _atom_site_fract_y
  _atom_site_fract_z
  _atom_site_occupancy
  C   C1        1.0  0.81700  0.75000  0.04260  1.0000
  C   C2        1.0  0.53600  0.25000  0.24100  1.0000
  C   C3        1.0  0.03620  0.25000  0.25900  1.0000
  C   C4        1.0  0.31700  0.75000  0.45700  1.0000
  C   C5        1.0  0.68300  0.25000  0.54300  1.0000
  C   C6        1.0  0.96400  0.75000  0.74100  1.0000
  C   C7        1.0  0.46400  0.75000  0.75900  1.0000
  C   C8        1.0  0.18300  0.25000  0.95700  1.0000
  Re  Re1       1.0  0.27200  0.25000  0.13900  1.0000
  Re  Re2       1.0  0.77200  0.25000  0.36100  1.0000
  Re  Re3       1.0  0.22800  0.75000  0.63900  1.0000
  Re  Re4       1.0  0.72800  0.75000  0.86100  1.0000
  Sm  Sm1       1.0  0.81400  0.25000  0.05240  1.0000
  Sm  Sm2       1.0  0.52700  0.75000  0.21500  1.0000
  Sm  Sm3       1.0  0.02690  0.75000  0.28500  1.0000
  Sm  Sm4       1.0  0.31400  0.25000  0.44800  1.0000
  Sm  Sm5       1.0  0.68600  0.75000  0.55200  1.0000
  Sm  Sm6       1.0  0.97300  0.25000  0.71500  1.0000
  Sm  Sm7       1.0  0.47300  0.25000  0.78500  1.0000
  Sm  Sm8       1.0  0.18600  0.75000  0.94800  1.0000
