data_image0
_chemical_formula_structural       F12Fe4Na4
_chemical_formula_sum              "F12 Fe4 Na4"
_cell_length_a       5.64357
_cell_length_b       6.85601
_cell_length_c       5.57194
_cell_angle_alpha    90
_cell_angle_beta     90
_cell_angle_gamma    90

_space_group_name_H-M_alt    "P 1"
_space_group_IT_number       1

loop_
  _space_group_symop_operation_xyz
  'x, y, z'

loop_
  _atom_site_type_symbol
  _atom_site_label
  _atom_site_symmetry_multiplicity
  _atom_site_fract_x
  _atom_site_fract_y
  _atom_site_fract_z
  _atom_site_occupancy
  F   F1        1.0  0.43200  0.25000  0.16000  1.0000
  F   F2        1.0  0.19500  0.56100  0.19700  1.0000
  F   F3        1.0  0.19500  0.93900  0.19700  1.0000
  F   F4        1.0  0.69500  0.56100  0.30300  1.0000
  F   F5        1.0  0.69500  0.93900  0.30300  1.0000
  F   F6        1.0  0.93200  0.25000  0.34000  1.0000
  F   F7        1.0  0.06750  0.75000  0.66000  1.0000
  F   F8        1.0  0.30500  0.06140  0.69700  1.0000
  F   F9        1.0  0.30500  0.43900  0.69700  1.0000
  F   F10       1.0  0.80500  0.06140  0.80300  1.0000
  F   F11       1.0  0.80500  0.43900  0.80300  1.0000
  F   F12       1.0  0.56800  0.75000  0.84000  1.0000
  Fe  Fe1       1.0  0.50000  0.00000  0.00000  1.0000
  Fe  Fe2       1.0  0.50000  0.50000  0.00000  1.0000
  Fe  Fe3       1.0  0.00000  0.00000  0.50000  1.0000
  Fe  Fe4       1.0  0.00000  0.50000  0.50000  1.0000
  Na  Na1       1.0  0.92900  0.75000  0.02510  1.0000
  Na  Na2       1.0  0.42900  0.75000  0.47500  1.0000
  Na  Na3       1.0  0.57100  0.25000  0.52500  1.0000
  Na  Na4       1.0  0.07120  0.25000  0.97500  1.0000
