data_image0
_chemical_formula_structural       Br12CSc7
_chemical_formula_sum              "Br12 C1 Sc7"
_cell_length_a       8.63063
_cell_length_b       8.63063
_cell_length_c       8.63063
_cell_angle_alpha    107.808
_cell_angle_beta     107.808
_cell_angle_gamma    107.808

_space_group_name_H-M_alt    "P 1"
_space_group_IT_number       1

loop_
  _space_group_symop_operation_xyz
  'x, y, z'

loop_
  _atom_site_type_symbol
  _atom_site_label
  _atom_site_symmetry_multiplicity
  _atom_site_fract_x
  _atom_site_fract_y
  _atom_site_fract_z
  _atom_site_occupancy
  Br  Br1       1.0  0.22700  0.69600  0.07700  1.0000
  Br  Br2       1.0  0.46600  0.38700  0.15000  1.0000
  Br  Br3       1.0  0.69600  0.07700  0.22700  1.0000
  Br  Br4       1.0  0.92600  0.78200  0.31000  1.0000
  Br  Br5       1.0  0.15000  0.46600  0.38700  1.0000
  Br  Br6       1.0  0.38700  0.15000  0.46600  1.0000
  Br  Br7       1.0  0.61900  0.84100  0.54600  1.0000
  Br  Br8       1.0  0.84100  0.54600  0.61900  1.0000
  Br  Br9       1.0  0.07700  0.22700  0.69600  1.0000
  Br  Br10      1.0  0.31000  0.92600  0.78200  1.0000
  Br  Br11      1.0  0.54600  0.61900  0.84100  1.0000
  Br  Br12      1.0  0.78200  0.31000  0.92600  1.0000
  C   C1        1.0  0.00056  0.00056  0.00056  1.0000
  Sc  Sc1       1.0  0.10400  0.29400  0.03920  1.0000
  Sc  Sc2       1.0  0.29400  0.03920  0.10400  1.0000
  Sc  Sc3       1.0  0.03920  0.10400  0.29400  1.0000
  Sc  Sc4       1.0  0.47800  0.47800  0.47800  1.0000
  Sc  Sc5       1.0  0.97700  0.91100  0.71400  1.0000
  Sc  Sc6       1.0  0.71400  0.97700  0.91100  1.0000
  Sc  Sc7       1.0  0.91100  0.71400  0.97700  1.0000
