data_image0
_chemical_formula_structural       Pb4S12Sn4
_chemical_formula_sum              "Pb4 S12 Sn4"
_cell_length_a       8.91604
_cell_length_b       3.85546
_cell_length_c       14.2746
_cell_angle_alpha    90
_cell_angle_beta     90
_cell_angle_gamma    90

_space_group_name_H-M_alt    "P 1"
_space_group_IT_number       1

loop_
  _space_group_symop_operation_xyz
  'x, y, z'

loop_
  _atom_site_type_symbol
  _atom_site_label
  _atom_site_symmetry_multiplicity
  _atom_site_fract_x
  _atom_site_fract_y
  _atom_site_fract_z
  _atom_site_occupancy
  Pb  Pb1       1.0  0.50200  0.75000  0.17200  1.0000
  Pb  Pb2       1.0  0.00151  0.75000  0.32800  1.0000
  Pb  Pb3       1.0  0.99800  0.25000  0.67200  1.0000
  Pb  Pb4       1.0  0.49800  0.25000  0.82800  1.0000
  S   S1        1.0  0.65900  0.25000  0.00655  1.0000
  S   S2        1.0  0.98300  0.75000  0.10500  1.0000
  S   S3        1.0  0.28500  0.25000  0.21200  1.0000
  S   S4        1.0  0.78500  0.25000  0.28800  1.0000
  S   S5        1.0  0.48300  0.75000  0.39500  1.0000
  S   S6        1.0  0.15900  0.25000  0.49300  1.0000
  S   S7        1.0  0.84100  0.75000  0.50700  1.0000
  S   S8        1.0  0.51700  0.25000  0.60500  1.0000
  S   S9        1.0  0.21500  0.75000  0.71200  1.0000
  S   S10       1.0  0.71500  0.75000  0.78800  1.0000
  S   S11       1.0  0.01660  0.25000  0.89500  1.0000
  S   S12       1.0  0.34100  0.75000  0.99300  1.0000
  Sn  Sn1       1.0  0.16800  0.25000  0.05140  1.0000
  Sn  Sn2       1.0  0.66800  0.25000  0.44900  1.0000
  Sn  Sn3       1.0  0.33200  0.75000  0.55100  1.0000
  Sn  Sn4       1.0  0.83200  0.75000  0.94900  1.0000
