data_image0
_chemical_formula_structural       Ca2Ni2O12Si4
_chemical_formula_sum              "Ca2 Ni2 O12 Si4"
_cell_length_a       5.22404
_cell_length_b       6.56557
_cell_length_c       6.56557
_cell_angle_alpha    95.4914
_cell_angle_beta     101.57
_cell_angle_gamma    78.4303

_space_group_name_H-M_alt    "P 1"
_space_group_IT_number       1

loop_
  _space_group_symop_operation_xyz
  'x, y, z'

loop_
  _atom_site_type_symbol
  _atom_site_label
  _atom_site_symmetry_multiplicity
  _atom_site_fract_x
  _atom_site_fract_y
  _atom_site_fract_z
  _atom_site_occupancy
  Ca  Ca1       1.0  0.75000  0.30000  0.30000  1.0000
  Ca  Ca2       1.0  0.25000  0.70000  0.70000  1.0000
  Ni  Ni1       1.0  0.25000  0.09020  0.09020  1.0000
  Ni  Ni2       1.0  0.75000  0.91000  0.91000  1.0000
  O   O1        1.0  0.14200  0.79800  0.02700  1.0000
  O   O2        1.0  0.32200  0.38600  0.10500  1.0000
  O   O3        1.0  0.64200  0.97300  0.20200  1.0000
  O   O4        1.0  0.99100  0.62600  0.33300  1.0000
  O   O5        1.0  0.49100  0.66700  0.37400  1.0000
  O   O6        1.0  0.17800  0.10500  0.38600  1.0000
  O   O7        1.0  0.82200  0.89500  0.61400  1.0000
  O   O8        1.0  0.50900  0.33300  0.62600  1.0000
  O   O9        1.0  0.00910  0.37400  0.66700  1.0000
  O   O10       1.0  0.35800  0.02700  0.79800  1.0000
  O   O11       1.0  0.67800  0.61400  0.89500  1.0000
  O   O12       1.0  0.85800  0.20200  0.97300  1.0000
  Si  Si1       1.0  0.22700  0.61900  0.19300  1.0000
  Si  Si2       1.0  0.72700  0.80700  0.38100  1.0000
  Si  Si3       1.0  0.27300  0.19300  0.61900  1.0000
  Si  Si4       1.0  0.77300  0.38100  0.80700  1.0000
