data_image0
_chemical_formula_structural       Sc8Te12
_chemical_formula_sum              "Sc8 Te12"
_cell_length_a       7.14736
_cell_length_b       7.14736
_cell_length_c       13.0168
_cell_angle_alpha    100.549
_cell_angle_beta     100.549
_cell_angle_gamma    109.459

_space_group_name_H-M_alt    "P 1"
_space_group_IT_number       1

loop_
  _space_group_symop_operation_xyz
  'x, y, z'

loop_
  _atom_site_type_symbol
  _atom_site_label
  _atom_site_symmetry_multiplicity
  _atom_site_fract_x
  _atom_site_fract_y
  _atom_site_fract_z
  _atom_site_occupancy
  Sc  Sc1       1.0  0.04300  0.79300  0.08590  1.0000
  Sc  Sc2       1.0  0.12500  0.37500  0.24900  1.0000
  Sc  Sc3       1.0  0.62500  0.87500  0.25100  1.0000
  Sc  Sc4       1.0  0.20700  0.95700  0.41400  1.0000
  Sc  Sc5       1.0  0.79300  0.04300  0.58600  1.0000
  Sc  Sc6       1.0  0.37500  0.12500  0.74900  1.0000
  Sc  Sc7       1.0  0.87500  0.62500  0.75100  1.0000
  Sc  Sc8       1.0  0.95700  0.20700  0.91400  1.0000
  Te  Te1       1.0  0.79100  0.04190  0.08340  1.0000
  Te  Te2       1.0  0.29200  0.54100  0.08340  1.0000
  Te  Te3       1.0  0.37900  0.12900  0.25000  1.0000
  Te  Te4       1.0  0.87100  0.62100  0.25000  1.0000
  Te  Te5       1.0  0.95800  0.20900  0.41700  1.0000
  Te  Te6       1.0  0.45900  0.70800  0.41700  1.0000
  Te  Te7       1.0  0.54100  0.29200  0.58300  1.0000
  Te  Te8       1.0  0.04190  0.79100  0.58300  1.0000
  Te  Te9       1.0  0.12900  0.37900  0.75000  1.0000
  Te  Te10      1.0  0.62100  0.87100  0.75000  1.0000
  Te  Te11      1.0  0.70800  0.45900  0.91700  1.0000
  Te  Te12      1.0  0.20900  0.95800  0.91700  1.0000
