data_image0
_chemical_formula_structural       Mn2Ni2O12Y4
_chemical_formula_sum              "Mn2 Ni2 O12 Y4"
_cell_length_a       5.22026
_cell_length_b       5.55124
_cell_length_c       7.48765
_cell_angle_alpha    90
_cell_angle_beta     89.6377
_cell_angle_gamma    90

_space_group_name_H-M_alt    "P 1"
_space_group_IT_number       1

loop_
  _space_group_symop_operation_xyz
  'x, y, z'

loop_
  _atom_site_type_symbol
  _atom_site_label
  _atom_site_symmetry_multiplicity
  _atom_site_fract_x
  _atom_site_fract_y
  _atom_site_fract_z
  _atom_site_occupancy
  Mn  Mn1       1.0  0.50000  0.00000  1.00000  1.0000
  Mn  Mn2       1.0  0.00000  0.50000  0.50000  1.0000
  Ni  Ni1       1.0  0.00000  0.50000  0.00000  1.0000
  Ni  Ni2       1.0  0.50000  0.00000  0.50000  1.0000
  O   O1        1.0  0.80000  0.81100  0.05100  1.0000
  O   O2        1.0  0.68400  0.29400  0.05470  1.0000
  O   O3        1.0  0.39600  0.96700  0.24400  1.0000
  O   O4        1.0  0.10400  0.46700  0.25600  1.0000
  O   O5        1.0  0.81600  0.79400  0.44500  1.0000
  O   O6        1.0  0.70000  0.31100  0.44900  1.0000
  O   O7        1.0  0.30000  0.68900  0.55100  1.0000
  O   O8        1.0  0.18400  0.20600  0.55500  1.0000
  O   O9        1.0  0.89600  0.53300  0.74400  1.0000
  O   O10       1.0  0.60400  0.03280  0.75600  1.0000
  O   O11       1.0  0.31600  0.70600  0.94500  1.0000
  O   O12       1.0  0.20000  0.18900  0.94900  1.0000
  Y   Y1        1.0  0.98100  0.07100  0.24900  1.0000
  Y   Y2        1.0  0.51900  0.57100  0.25100  1.0000
  Y   Y3        1.0  0.48100  0.42900  0.74900  1.0000
  Y   Y4        1.0  0.01910  0.92900  0.75100  1.0000
