data_image0
_chemical_formula_structural       O14Sn2Ta4
_chemical_formula_sum              "O14 Sn2 Ta4"
_cell_length_a       4.93348
_cell_length_b       5.14865
_cell_length_c       8.57723
_cell_angle_alpha    83.682
_cell_angle_beta     106.714
_cell_angle_gamma    90

_space_group_name_H-M_alt    "P 1"
_space_group_IT_number       1

loop_
  _space_group_symop_operation_xyz
  'x, y, z'

loop_
  _atom_site_type_symbol
  _atom_site_label
  _atom_site_symmetry_multiplicity
  _atom_site_fract_x
  _atom_site_fract_y
  _atom_site_fract_z
  _atom_site_occupancy
  O   O1        1.0  0.62700  0.25000  1.00000  1.0000
  O   O2        1.0  0.37300  0.75000  1.00000  1.0000
  O   O3        1.0  0.06540  0.97000  0.16100  1.0000
  O   O4        1.0  0.09590  0.47000  0.16100  1.0000
  O   O5        1.0  0.58800  0.00055  0.28000  1.0000
  O   O6        1.0  0.69300  0.50100  0.28000  1.0000
  O   O7        1.0  0.31900  0.33300  0.44800  1.0000
  O   O8        1.0  0.12900  0.83300  0.44800  1.0000
  O   O9        1.0  0.87100  0.16700  0.55200  1.0000
  O   O10       1.0  0.68100  0.66700  0.55200  1.0000
  O   O11       1.0  0.41200  0.99900  0.72000  1.0000
  O   O12       1.0  0.30700  0.49900  0.72000  1.0000
  O   O13       1.0  0.90400  0.53000  0.83900  1.0000
  O   O14       1.0  0.93500  0.02960  0.83900  1.0000
  Sn  Sn1       1.0  0.23300  0.25000  1.00000  1.0000
  Sn  Sn2       1.0  0.76700  0.75000  1.00000  1.0000
  Ta  Ta1       1.0  0.93400  0.19600  0.32300  1.0000
  Ta  Ta2       1.0  0.38900  0.69600  0.32300  1.0000
  Ta  Ta3       1.0  0.06580  0.80400  0.67700  1.0000
  Ta  Ta4       1.0  0.61100  0.30400  0.67700  1.0000
