data_image0
_chemical_formula_structural       Br12In4K4
_chemical_formula_sum              "Br12 In4 K4"
_cell_length_a       8.71156
_cell_length_b       8.71159
_cell_length_c       11.056
_cell_angle_alpha    90.0006
_cell_angle_beta     89.9997
_cell_angle_gamma    120.001

_space_group_name_H-M_alt    "P 1"
_space_group_IT_number       1

loop_
  _space_group_symop_operation_xyz
  'x, y, z'

loop_
  _atom_site_type_symbol
  _atom_site_label
  _atom_site_symmetry_multiplicity
  _atom_site_fract_x
  _atom_site_fract_y
  _atom_site_fract_z
  _atom_site_occupancy
  Br  Br1       1.0  0.28300  0.38400  0.12500  1.0000
  Br  Br2       1.0  0.10100  0.71700  0.12500  1.0000
  Br  Br3       1.0  0.61600  0.89900  0.12500  1.0000
  Br  Br4       1.0  0.91200  0.30500  0.37700  1.0000
  Br  Br5       1.0  0.69500  0.60700  0.37700  1.0000
  Br  Br6       1.0  0.39300  0.08810  0.37700  1.0000
  Br  Br7       1.0  0.60700  0.91200  0.62300  1.0000
  Br  Br8       1.0  0.30500  0.39300  0.62300  1.0000
  Br  Br9       1.0  0.08810  0.69500  0.62300  1.0000
  Br  Br10      1.0  0.89900  0.28300  0.87500  1.0000
  Br  Br11      1.0  0.38400  0.10100  0.87500  1.0000
  Br  Br12      1.0  0.71700  0.61600  0.87500  1.0000
  In  In1       1.0  0.33300  0.66700  0.24700  1.0000
  In  In2       1.0  0.33300  0.66700  0.49900  1.0000
  In  In3       1.0  0.66700  0.33300  0.50100  1.0000
  In  In4       1.0  0.66700  0.33300  0.75300  1.0000
  K   K1        1.0  0.66700  0.33300  0.12800  1.0000
  K   K2        1.0  0.00000  0.00000  0.26500  1.0000
  K   K3        1.0  1.00000  1.00000  0.73500  1.0000
  K   K4        1.0  0.33300  0.66700  0.87200  1.0000
