data_image0
_chemical_formula_structural       Er8Se12
_chemical_formula_sum              "Er8 Se12"
_cell_length_a       6.99742
_cell_length_b       6.99742
_cell_length_c       12.7839
_cell_angle_alpha    100.631
_cell_angle_beta     100.631
_cell_angle_gamma    109.02

_space_group_name_H-M_alt    "P 1"
_space_group_IT_number       1

loop_
  _space_group_symop_operation_xyz
  'x, y, z'

loop_
  _atom_site_type_symbol
  _atom_site_label
  _atom_site_symmetry_multiplicity
  _atom_site_fract_x
  _atom_site_fract_y
  _atom_site_fract_z
  _atom_site_occupancy
  Er  Er1       1.0  0.04110  0.79100  0.08220  1.0000
  Er  Er2       1.0  0.62200  0.87200  0.24500  1.0000
  Er  Er3       1.0  0.12800  0.37800  0.25500  1.0000
  Er  Er4       1.0  0.20900  0.95900  0.41800  1.0000
  Er  Er5       1.0  0.79100  0.04110  0.58200  1.0000
  Er  Er6       1.0  0.87200  0.62200  0.74500  1.0000
  Er  Er7       1.0  0.37800  0.12800  0.75500  1.0000
  Er  Er8       1.0  0.95900  0.20900  0.91800  1.0000
  Se  Se1       1.0  0.80200  0.04880  0.08690  1.0000
  Se  Se2       1.0  0.28500  0.53800  0.08690  1.0000
  Se  Se3       1.0  0.37000  0.12000  0.25000  1.0000
  Se  Se4       1.0  0.88000  0.63000  0.25000  1.0000
  Se  Se5       1.0  0.95100  0.19800  0.41300  1.0000
  Se  Se6       1.0  0.46200  0.71500  0.41300  1.0000
  Se  Se7       1.0  0.53800  0.28500  0.58700  1.0000
  Se  Se8       1.0  0.04880  0.80200  0.58700  1.0000
  Se  Se9       1.0  0.12000  0.37000  0.75000  1.0000
  Se  Se10      1.0  0.63000  0.88000  0.75000  1.0000
  Se  Se11      1.0  0.71500  0.46200  0.91300  1.0000
  Se  Se12      1.0  0.19800  0.95100  0.91300  1.0000
