data_image0
_chemical_formula_structural       Al2Li10O8
_chemical_formula_sum              "Al2 Li10 O8"
_cell_length_a       6.39602
_cell_length_b       6.27152
_cell_length_c       4.6012
_cell_angle_alpha    90
_cell_angle_beta     90
_cell_angle_gamma    90

_space_group_name_H-M_alt    "P 1"
_space_group_IT_number       1

loop_
  _space_group_symop_operation_xyz
  'x, y, z'

loop_
  _atom_site_type_symbol
  _atom_site_label
  _atom_site_symmetry_multiplicity
  _atom_site_fract_x
  _atom_site_fract_y
  _atom_site_fract_z
  _atom_site_occupancy
  Al  Al1       1.0  0.25000  0.25000  0.22600  1.0000
  Al  Al2       1.0  0.75000  0.75000  0.77400  1.0000
  Li  Li1       1.0  0.25000  0.75000  0.20000  1.0000
  Li  Li2       1.0  0.55300  0.51100  0.25500  1.0000
  Li  Li3       1.0  0.94700  0.51100  0.25500  1.0000
  Li  Li4       1.0  0.55300  0.98900  0.25500  1.0000
  Li  Li5       1.0  0.94700  0.98900  0.25500  1.0000
  Li  Li6       1.0  0.05270  0.01120  0.74500  1.0000
  Li  Li7       1.0  0.44700  0.01120  0.74500  1.0000
  Li  Li8       1.0  0.05270  0.48900  0.74500  1.0000
  Li  Li9       1.0  0.44700  0.48900  0.74500  1.0000
  Li  Li10      1.0  0.75000  0.25000  0.80000  1.0000
  O   O1        1.0  0.01640  0.25000  0.01620  1.0000
  O   O2        1.0  0.48400  0.25000  0.01620  1.0000
  O   O3        1.0  0.25000  0.01190  0.43100  1.0000
  O   O4        1.0  0.25000  0.48800  0.43100  1.0000
  O   O5        1.0  0.75000  0.51200  0.56900  1.0000
  O   O6        1.0  0.75000  0.98800  0.56900  1.0000
  O   O7        1.0  0.51600  0.75000  0.98400  1.0000
  O   O8        1.0  0.98400  0.75000  0.98400  1.0000
