data_image0
_chemical_formula_structural       Cu8Fe4S8
_chemical_formula_sum              "Cu8 Fe4 S8"
_cell_length_a       7.62593
_cell_length_b       7.62593
_cell_length_c       7.62593
_cell_angle_alpha    120
_cell_angle_beta     90
_cell_angle_gamma    120

_space_group_name_H-M_alt    "P 1"
_space_group_IT_number       1

loop_
  _space_group_symop_operation_xyz
  'x, y, z'

loop_
  _atom_site_type_symbol
  _atom_site_label
  _atom_site_symmetry_multiplicity
  _atom_site_fract_x
  _atom_site_fract_y
  _atom_site_fract_z
  _atom_site_occupancy
  Cu  Cu1       1.0  0.41600  0.27700  0.13900  1.0000
  Cu  Cu2       1.0  0.86100  0.27700  0.13900  1.0000
  Cu  Cu3       1.0  0.86100  0.72300  0.13900  1.0000
  Cu  Cu4       1.0  0.38100  0.76100  0.14200  1.0000
  Cu  Cu5       1.0  0.86100  0.72300  0.58400  1.0000
  Cu  Cu6       1.0  0.85800  0.23900  0.61900  1.0000
  Cu  Cu7       1.0  0.38100  0.23900  0.61900  1.0000
  Cu  Cu8       1.0  0.38100  0.76100  0.61900  1.0000
  Fe  Fe1       1.0  0.12200  0.24500  0.36700  1.0000
  Fe  Fe2       1.0  0.12200  0.24500  0.87800  1.0000
  Fe  Fe3       1.0  0.12200  0.75500  0.87800  1.0000
  Fe  Fe4       1.0  0.63300  0.75500  0.87800  1.0000
  S   S1        1.0  0.00000  0.00000  0.00000  1.0000
  S   S2        1.0  0.50000  0.00000  0.50000  1.0000
  S   S3        1.0  0.00487  0.00974  0.50500  1.0000
  S   S4        1.0  0.00487  0.50000  0.50500  1.0000
  S   S5        1.0  0.49500  0.50000  0.50500  1.0000
  S   S6        1.0  0.00487  0.50000  0.99500  1.0000
  S   S7        1.0  0.49500  0.50000  0.99500  1.0000
  S   S8        1.0  0.49500  0.99000  0.99500  1.0000
