data_image0
_chemical_formula_structural       Pt2Se14Ta4
_chemical_formula_sum              "Pt2 Se14 Ta4"
_cell_length_a       3.56687
_cell_length_b       7.4877
_cell_length_c       18.009
_cell_angle_alpha    92.1572
_cell_angle_beta     95.6833
_cell_angle_gamma    103.779

_space_group_name_H-M_alt    "P 1"
_space_group_IT_number       1

loop_
  _space_group_symop_operation_xyz
  'x, y, z'

loop_
  _atom_site_type_symbol
  _atom_site_label
  _atom_site_symmetry_multiplicity
  _atom_site_fract_x
  _atom_site_fract_y
  _atom_site_fract_z
  _atom_site_occupancy
  Pt  Pt1       1.0  0.52000  0.83100  0.20900  1.0000
  Pt  Pt2       1.0  0.48000  0.16900  0.79100  1.0000
  Se  Se1       1.0  0.65600  0.30000  0.01130  1.0000
  Se  Se2       1.0  0.04940  0.97100  0.12800  1.0000
  Se  Se3       1.0  0.32400  0.47600  0.17100  1.0000
  Se  Se4       1.0  0.72400  0.15300  0.29500  1.0000
  Se  Se5       1.0  0.04220  0.77900  0.30500  1.0000
  Se  Se6       1.0  0.89200  0.36300  0.42000  1.0000
  Se  Se7       1.0  0.65100  0.85600  0.44700  1.0000
  Se  Se8       1.0  0.34900  0.14400  0.55300  1.0000
  Se  Se9       1.0  0.10800  0.63700  0.58000  1.0000
  Se  Se10      1.0  0.95800  0.22100  0.69500  1.0000
  Se  Se11      1.0  0.27600  0.84700  0.70500  1.0000
  Se  Se12      1.0  0.67600  0.52400  0.82900  1.0000
  Se  Se13      1.0  0.95100  0.02940  0.87200  1.0000
  Se  Se14      1.0  0.34400  0.70000  0.98900  1.0000
  Ta  Ta1       1.0  0.86200  0.63200  0.09200  1.0000
  Ta  Ta2       1.0  0.24800  0.09630  0.39900  1.0000
  Ta  Ta3       1.0  0.75200  0.90400  0.60100  1.0000
  Ta  Ta4       1.0  0.13800  0.36800  0.90800  1.0000
