data_image0
_chemical_formula_structural       Ni6Pr14
_chemical_formula_sum              "Ni6 Pr14"
_cell_length_a       9.98227
_cell_length_b       9.98275
_cell_length_c       6.38657
_cell_angle_alpha    90
_cell_angle_beta     90
_cell_angle_gamma    119.998

_space_group_name_H-M_alt    "P 1"
_space_group_IT_number       1

loop_
  _space_group_symop_operation_xyz
  'x, y, z'

loop_
  _atom_site_type_symbol
  _atom_site_label
  _atom_site_symmetry_multiplicity
  _atom_site_fract_x
  _atom_site_fract_y
  _atom_site_fract_z
  _atom_site_occupancy
  Ni  Ni1       1.0  0.81200  0.62300  0.30800  1.0000
  Ni  Ni2       1.0  0.37700  0.18800  0.30800  1.0000
  Ni  Ni3       1.0  0.81200  0.18800  0.30800  1.0000
  Ni  Ni4       1.0  0.18800  0.37700  0.80800  1.0000
  Ni  Ni5       1.0  0.18800  0.81200  0.80800  1.0000
  Ni  Ni6       1.0  0.62300  0.81200  0.80800  1.0000
  Pr  Pr1       1.0  0.33300  0.66700  0.03840  1.0000
  Pr  Pr2       1.0  0.53900  0.46100  0.06310  1.0000
  Pr  Pr3       1.0  0.92200  0.46100  0.06310  1.0000
  Pr  Pr4       1.0  0.53900  0.07770  0.06320  1.0000
  Pr  Pr5       1.0  0.12600  0.87400  0.25200  1.0000
  Pr  Pr6       1.0  0.74800  0.87400  0.25200  1.0000
  Pr  Pr7       1.0  0.12600  0.25200  0.25200  1.0000
  Pr  Pr8       1.0  0.66700  0.33300  0.53800  1.0000
  Pr  Pr9       1.0  0.07770  0.53900  0.56300  1.0000
  Pr  Pr10      1.0  0.46100  0.53900  0.56300  1.0000
  Pr  Pr11      1.0  0.46100  0.92200  0.56300  1.0000
  Pr  Pr12      1.0  0.25200  0.12600  0.75200  1.0000
  Pr  Pr13      1.0  0.87400  0.12600  0.75200  1.0000
  Pr  Pr14      1.0  0.87400  0.74800  0.75200  1.0000
