data_image0
_chemical_formula_structural       Dy8Te12
_chemical_formula_sum              "Dy8 Te12"
_cell_length_a       7.54236
_cell_length_b       7.54236
_cell_length_c       13.7518
_cell_angle_alpha    100.557
_cell_angle_beta     100.557
_cell_angle_gamma    109.386

_space_group_name_H-M_alt    "P 1"
_space_group_IT_number       1

loop_
  _space_group_symop_operation_xyz
  'x, y, z'

loop_
  _atom_site_type_symbol
  _atom_site_label
  _atom_site_symmetry_multiplicity
  _atom_site_fract_x
  _atom_site_fract_y
  _atom_site_fract_z
  _atom_site_occupancy
  Dy  Dy1       1.0  0.04240  0.79200  0.08470  1.0000
  Dy  Dy2       1.0  0.62500  0.87500  0.25000  1.0000
  Dy  Dy3       1.0  0.12500  0.37500  0.25000  1.0000
  Dy  Dy4       1.0  0.20800  0.95800  0.41500  1.0000
  Dy  Dy5       1.0  0.79200  0.04240  0.58500  1.0000
  Dy  Dy6       1.0  0.87500  0.62500  0.75000  1.0000
  Dy  Dy7       1.0  0.37500  0.12500  0.75000  1.0000
  Dy  Dy8       1.0  0.95800  0.20800  0.91500  1.0000
  Te  Te1       1.0  0.79200  0.04280  0.08360  1.0000
  Te  Te2       1.0  0.29200  0.54100  0.08360  1.0000
  Te  Te3       1.0  0.37700  0.12700  0.25000  1.0000
  Te  Te4       1.0  0.87300  0.62300  0.25000  1.0000
  Te  Te5       1.0  0.95700  0.20800  0.41600  1.0000
  Te  Te6       1.0  0.45900  0.70800  0.41600  1.0000
  Te  Te7       1.0  0.54100  0.29200  0.58400  1.0000
  Te  Te8       1.0  0.04280  0.79200  0.58400  1.0000
  Te  Te9       1.0  0.12700  0.37700  0.75000  1.0000
  Te  Te10      1.0  0.62300  0.87300  0.75000  1.0000
  Te  Te11      1.0  0.70800  0.45900  0.91600  1.0000
  Te  Te12      1.0  0.20800  0.95700  0.91600  1.0000
