data_image0
_chemical_formula_structural       I12Nb4Te4
_chemical_formula_sum              "I12 Nb4 Te4"
_cell_length_a       13.7356
_cell_length_b       7.77982
_cell_length_c       7.36052
_cell_angle_alpha    90
_cell_angle_beta     98.3931
_cell_angle_gamma    90

_space_group_name_H-M_alt    "P 1"
_space_group_IT_number       1

loop_
  _space_group_symop_operation_xyz
  'x, y, z'

loop_
  _atom_site_type_symbol
  _atom_site_label
  _atom_site_symmetry_multiplicity
  _atom_site_fract_x
  _atom_site_fract_y
  _atom_site_fract_z
  _atom_site_occupancy
  I   I1        1.0  0.04090  0.32000  0.14700  1.0000
  I   I2        1.0  0.54100  0.68000  0.14700  1.0000
  I   I3        1.0  0.80500  0.56800  0.25000  1.0000
  I   I4        1.0  0.30500  0.43200  0.25000  1.0000
  I   I5        1.0  0.07580  0.78200  0.36200  1.0000
  I   I6        1.0  0.57600  0.21800  0.36200  1.0000
  I   I7        1.0  0.92400  0.21800  0.63800  1.0000
  I   I8        1.0  0.42400  0.78200  0.63800  1.0000
  I   I9        1.0  0.19500  0.43200  0.75000  1.0000
  I   I10       1.0  0.69500  0.56800  0.75000  1.0000
  I   I11       1.0  0.45900  0.32000  0.85300  1.0000
  I   I12       1.0  0.95900  0.68000  0.85300  1.0000
  Nb  Nb1       1.0  0.15300  0.63600  0.06610  1.0000
  Nb  Nb2       1.0  0.65300  0.36400  0.06620  1.0000
  Nb  Nb3       1.0  0.34700  0.63600  0.93400  1.0000
  Nb  Nb4       1.0  0.84700  0.36400  0.93400  1.0000
  Te  Te1       1.0  0.30200  0.89500  0.17300  1.0000
  Te  Te2       1.0  0.80200  0.10500  0.17300  1.0000
  Te  Te3       1.0  0.19800  0.89500  0.82700  1.0000
  Te  Te4       1.0  0.69800  0.10500  0.82700  1.0000
