data_image0
_chemical_formula_structural       Ca2O12Pb4U2
_chemical_formula_sum              "Ca2 O12 Pb4 U2"
_cell_length_a       6.00112
_cell_length_b       6.1938
_cell_length_c       8.66042
_cell_angle_alpha    90
_cell_angle_beta     90.3444
_cell_angle_gamma    90

_space_group_name_H-M_alt    "P 1"
_space_group_IT_number       1

loop_
  _space_group_symop_operation_xyz
  'x, y, z'

loop_
  _atom_site_type_symbol
  _atom_site_label
  _atom_site_symmetry_multiplicity
  _atom_site_fract_x
  _atom_site_fract_y
  _atom_site_fract_z
  _atom_site_occupancy
  Ca  Ca1       1.0  0.50000  0.00000  0.00000  1.0000
  Ca  Ca2       1.0  0.00000  0.50000  0.50000  1.0000
  O   O1        1.0  0.69100  0.30600  0.01730  1.0000
  O   O2        1.0  0.81000  0.78900  0.05350  1.0000
  O   O3        1.0  0.06670  0.44900  0.23700  1.0000
  O   O4        1.0  0.43300  0.94900  0.26300  1.0000
  O   O5        1.0  0.69000  0.28900  0.44600  1.0000
  O   O6        1.0  0.80900  0.80600  0.48300  1.0000
  O   O7        1.0  0.19100  0.19400  0.51700  1.0000
  O   O8        1.0  0.31000  0.71100  0.55400  1.0000
  O   O9        1.0  0.56700  0.05100  0.73700  1.0000
  O   O10       1.0  0.93300  0.55100  0.76300  1.0000
  O   O11       1.0  0.19000  0.21100  0.94600  1.0000
  O   O12       1.0  0.30900  0.69400  0.98300  1.0000
  Pb  Pb1       1.0  0.50000  0.53400  0.24000  1.0000
  Pb  Pb2       1.0  0.00000  0.03410  0.26000  1.0000
  Pb  Pb3       1.0  0.00019  0.96600  0.74000  1.0000
  Pb  Pb4       1.0  0.50000  0.46600  0.76000  1.0000
  U   U1        1.0  0.00000  0.50000  0.00000  1.0000
  U   U2        1.0  0.50000  0.00000  0.50000  1.0000
