data_image0
_chemical_formula_structural       Cs4F4O8S4
_chemical_formula_sum              "Cs4 F4 O8 S4"
_cell_length_a       7.60197
_cell_length_b       6.55777
_cell_length_c       7.74963
_cell_angle_alpha    90
_cell_angle_beta     90
_cell_angle_gamma    90

_space_group_name_H-M_alt    "P 1"
_space_group_IT_number       1

loop_
  _space_group_symop_operation_xyz
  'x, y, z'

loop_
  _atom_site_type_symbol
  _atom_site_label
  _atom_site_symmetry_multiplicity
  _atom_site_fract_x
  _atom_site_fract_y
  _atom_site_fract_z
  _atom_site_occupancy
  Cs  Cs1       1.0  0.35800  0.25000  0.10600  1.0000
  Cs  Cs2       1.0  0.85800  0.25000  0.39400  1.0000
  Cs  Cs3       1.0  0.14200  0.75000  0.60600  1.0000
  Cs  Cs4       1.0  0.64200  0.75000  0.89400  1.0000
  F   F1        1.0  0.74600  0.25000  0.00371  1.0000
  F   F2        1.0  0.24600  0.25000  0.49600  1.0000
  F   F3        1.0  0.75400  0.75000  0.50400  1.0000
  F   F4        1.0  0.25400  0.75000  0.99600  1.0000
  O   O1        1.0  0.09270  0.56400  0.22800  1.0000
  O   O2        1.0  0.09270  0.93600  0.22800  1.0000
  O   O3        1.0  0.59300  0.56400  0.27200  1.0000
  O   O4        1.0  0.59300  0.93600  0.27200  1.0000
  O   O5        1.0  0.40700  0.06400  0.72800  1.0000
  O   O6        1.0  0.40700  0.43600  0.72800  1.0000
  O   O7        1.0  0.90700  0.06400  0.77200  1.0000
  O   O8        1.0  0.90700  0.43600  0.77200  1.0000
  S   S1        1.0  0.05920  0.75000  0.12700  1.0000
  S   S2        1.0  0.55900  0.75000  0.37300  1.0000
  S   S3        1.0  0.44100  0.25000  0.62700  1.0000
  S   S4        1.0  0.94100  0.25000  0.87300  1.0000
