data_image0
_chemical_formula_structural       Cr2Mo2O14V2
_chemical_formula_sum              "Cr2 Mo2 O14 V2"
_cell_length_a       5.52266
_cell_length_b       6.58022
_cell_length_c       7.89231
_cell_angle_alpha    96.0616
_cell_angle_beta     90.2304
_cell_angle_gamma    101.735

_space_group_name_H-M_alt    "P 1"
_space_group_IT_number       1

loop_
  _space_group_symop_operation_xyz
  'x, y, z'

loop_
  _atom_site_type_symbol
  _atom_site_label
  _atom_site_symmetry_multiplicity
  _atom_site_fract_x
  _atom_site_fract_y
  _atom_site_fract_z
  _atom_site_occupancy
  Cr  Cr1       1.0  0.82700  0.31200  0.40500  1.0000
  Cr  Cr2       1.0  0.17300  0.68800  0.59500  1.0000
  Mo  Mo1       1.0  0.28800  0.20700  0.10900  1.0000
  Mo  Mo2       1.0  0.71200  0.79300  0.89100  1.0000
  O   O1        1.0  0.21200  0.93800  0.09820  1.0000
  O   O2        1.0  0.66000  0.69700  0.10400  1.0000
  O   O3        1.0  0.05520  0.31800  0.21400  1.0000
  O   O4        1.0  0.56200  0.29400  0.23800  1.0000
  O   O5        1.0  0.79500  0.01070  0.38800  1.0000
  O   O6        1.0  0.40100  0.68600  0.40800  1.0000
  O   O7        1.0  0.89200  0.62300  0.42600  1.0000
  O   O8        1.0  0.10800  0.37700  0.57400  1.0000
  O   O9        1.0  0.59900  0.31400  0.59200  1.0000
  O   O10       1.0  0.20500  0.98900  0.61200  1.0000
  O   O11       1.0  0.43800  0.70600  0.76200  1.0000
  O   O12       1.0  0.94500  0.68200  0.78600  1.0000
  O   O13       1.0  0.34000  0.30300  0.89600  1.0000
  O   O14       1.0  0.78800  0.06200  0.90200  1.0000
  V   V1        1.0  0.68500  0.75700  0.33300  1.0000
  V   V2        1.0  0.31500  0.24300  0.66700  1.0000
