data_image0
_chemical_formula_structural       C12Sc8
_chemical_formula_sum              "C12 Sc8"
_cell_length_a       6.65263
_cell_length_b       6.65263
_cell_length_c       6.65263
_cell_angle_alpha    109.471
_cell_angle_beta     109.471
_cell_angle_gamma    109.471

_space_group_name_H-M_alt    "P 1"
_space_group_IT_number       1

loop_
  _space_group_symop_operation_xyz
  'x, y, z'

loop_
  _atom_site_type_symbol
  _atom_site_label
  _atom_site_symmetry_multiplicity
  _atom_site_fract_x
  _atom_site_fract_y
  _atom_site_fract_z
  _atom_site_occupancy
  C   C1        1.0  0.75000  0.28800  0.03810  1.0000
  C   C2        1.0  0.75000  0.46200  0.21200  1.0000
  C   C3        1.0  0.28800  0.53800  0.25000  1.0000
  C   C4        1.0  0.46200  0.71200  0.25000  1.0000
  C   C5        1.0  0.25000  0.03810  0.28800  1.0000
  C   C6        1.0  0.25000  0.21200  0.46200  1.0000
  C   C7        1.0  0.78800  0.25000  0.53800  1.0000
  C   C8        1.0  0.96200  0.25000  0.71200  1.0000
  C   C9        1.0  0.03810  0.78800  0.75000  1.0000
  C   C10       1.0  0.21200  0.96200  0.75000  1.0000
  C   C11       1.0  0.53800  0.75000  0.78800  1.0000
  C   C12       1.0  0.71200  0.75000  0.96200  1.0000
  Sc  Sc1       1.0  0.00000  0.09930  0.00000  1.0000
  Sc  Sc2       1.0  0.00000  0.59900  0.00000  1.0000
  Sc  Sc3       1.0  0.50000  0.00000  0.09930  1.0000
  Sc  Sc4       1.0  0.90100  0.90100  0.40100  1.0000
  Sc  Sc5       1.0  0.59900  0.50000  0.50000  1.0000
  Sc  Sc6       1.0  0.09930  0.50000  0.50000  1.0000
  Sc  Sc7       1.0  0.50000  0.00000  0.59900  1.0000
  Sc  Sc8       1.0  0.40100  0.40100  0.90100  1.0000
