data_image0
_chemical_formula_structural       Al2F12Li2Na4
_chemical_formula_sum              "Al2 F12 Li2 Na4"
_cell_length_a       5.13295
_cell_length_b       5.21727
_cell_length_c       7.29126
_cell_angle_alpha    90
_cell_angle_beta     90.1331
_cell_angle_gamma    90

_space_group_name_H-M_alt    "P 1"
_space_group_IT_number       1

loop_
  _space_group_symop_operation_xyz
  'x, y, z'

loop_
  _atom_site_type_symbol
  _atom_site_label
  _atom_site_symmetry_multiplicity
  _atom_site_fract_x
  _atom_site_fract_y
  _atom_site_fract_z
  _atom_site_occupancy
  Al  Al1       1.0  0.00000  0.00000  0.00000  1.0000
  Al  Al2       1.0  0.50000  0.50000  0.50000  1.0000
  F   F1        1.0  0.71600  0.19700  0.03950  1.0000
  F   F2        1.0  0.80700  0.71700  0.04100  1.0000
  F   F3        1.0  0.07820  0.01870  0.24000  1.0000
  F   F4        1.0  0.42200  0.51900  0.26000  1.0000
  F   F5        1.0  0.69300  0.21700  0.45900  1.0000
  F   F6        1.0  0.78400  0.69700  0.46000  1.0000
  F   F7        1.0  0.21600  0.30300  0.54000  1.0000
  F   F8        1.0  0.30700  0.78300  0.54100  1.0000
  F   F9        1.0  0.57800  0.48100  0.74000  1.0000
  F   F10       1.0  0.92200  0.98100  0.76000  1.0000
  F   F11       1.0  0.19300  0.28300  0.95900  1.0000
  F   F12       1.0  0.28400  0.80300  0.96000  1.0000
  Li  Li1       1.0  0.50000  0.50000  0.00000  1.0000
  Li  Li2       1.0  0.00000  0.00000  0.50000  1.0000
  Na  Na1       1.0  0.50900  0.95700  0.25000  1.0000
  Na  Na2       1.0  0.99100  0.45700  0.25000  1.0000
  Na  Na3       1.0  0.00859  0.54300  0.75000  1.0000
  Na  Na4       1.0  0.49100  0.04320  0.75000  1.0000
