data_image0
_chemical_formula_structural       Ce4Dy4S12
_chemical_formula_sum              "Ce4 Dy4 S12"
_cell_length_a       7.45285
_cell_length_b       4.04008
_cell_length_c       15.4824
_cell_angle_alpha    90
_cell_angle_beta     90
_cell_angle_gamma    90

_space_group_name_H-M_alt    "P 1"
_space_group_IT_number       1

loop_
  _space_group_symop_operation_xyz
  'x, y, z'

loop_
  _atom_site_type_symbol
  _atom_site_label
  _atom_site_symmetry_multiplicity
  _atom_site_fract_x
  _atom_site_fract_y
  _atom_site_fract_z
  _atom_site_occupancy
  Ce  Ce1       1.0  0.14300  0.25000  0.20000  1.0000
  Ce  Ce2       1.0  0.64300  0.25000  0.30000  1.0000
  Ce  Ce3       1.0  0.35700  0.75000  0.70000  1.0000
  Ce  Ce4       1.0  0.85700  0.75000  0.80000  1.0000
  Dy  Dy1       1.0  0.73000  0.75000  0.04330  1.0000
  Dy  Dy2       1.0  0.23000  0.75000  0.45700  1.0000
  Dy  Dy3       1.0  0.77000  0.25000  0.54300  1.0000
  Dy  Dy4       1.0  0.27000  0.25000  0.95700  1.0000
  S   S1        1.0  0.12600  0.75000  0.06030  1.0000
  S   S2        1.0  0.51200  0.25000  0.10400  1.0000
  S   S3        1.0  0.85000  0.75000  0.21400  1.0000
  S   S4        1.0  0.35000  0.75000  0.28600  1.0000
  S   S5        1.0  0.01180  0.25000  0.39600  1.0000
  S   S6        1.0  0.62600  0.75000  0.44000  1.0000
  S   S7        1.0  0.37400  0.25000  0.56000  1.0000
  S   S8        1.0  0.98800  0.75000  0.60400  1.0000
  S   S9        1.0  0.65000  0.25000  0.71400  1.0000
  S   S10       1.0  0.15000  0.25000  0.78600  1.0000
  S   S11       1.0  0.48800  0.75000  0.89600  1.0000
  S   S12       1.0  0.87400  0.25000  0.94000  1.0000
