data_image0
_chemical_formula_structural       Al4Ce10Ru6
_chemical_formula_sum              "Al4 Ce10 Ru6"
_cell_length_a       8.67765
_cell_length_b       8.68264
_cell_length_c       8.68264
_cell_angle_alpha    109.483
_cell_angle_beta     109.46
_cell_angle_gamma    109.46

_space_group_name_H-M_alt    "P 1"
_space_group_IT_number       1

loop_
  _space_group_symop_operation_xyz
  'x, y, z'

loop_
  _atom_site_type_symbol
  _atom_site_label
  _atom_site_symmetry_multiplicity
  _atom_site_fract_x
  _atom_site_fract_y
  _atom_site_fract_z
  _atom_site_occupancy
  Al  Al1       1.0  0.99800  0.00000  0.00000  1.0000
  Al  Al2       1.0  0.40800  0.50000  0.08990  1.0000
  Al  Al3       1.0  0.31800  0.91000  0.41000  1.0000
  Al  Al4       1.0  0.90800  0.59000  0.50000  1.0000
  Ce  Ce1       1.0  0.62200  0.00000  0.00000  1.0000
  Ce  Ce2       1.0  0.84300  0.75000  0.18500  1.0000
  Ce  Ce3       1.0  0.09270  0.43500  0.25000  1.0000
  Ce  Ce4       1.0  0.47200  0.25000  0.31400  1.0000
  Ce  Ce5       1.0  0.90700  0.21300  0.50000  1.0000
  Ce  Ce6       1.0  0.65800  0.81500  0.56500  1.0000
  Ce  Ce7       1.0  0.40700  0.50000  0.71300  1.0000
  Ce  Ce8       1.0  0.22200  0.06460  0.75000  1.0000
  Ce  Ce9       1.0  0.69400  0.28700  0.78700  1.0000
  Ce  Ce10      1.0  0.15800  0.68600  0.93500  1.0000
  Ru  Ru1       1.0  0.65800  0.38300  0.13400  1.0000
  Ru  Ru2       1.0  0.52400  0.86600  0.25000  1.0000
  Ru  Ru3       1.0  0.15800  0.11700  0.36700  1.0000
  Ru  Ru4       1.0  0.27400  0.75000  0.61700  1.0000
  Ru  Ru5       1.0  0.79100  0.63300  0.75000  1.0000
  Ru  Ru6       1.0  0.04100  0.25000  0.88300  1.0000
