data_image0
_chemical_formula_structural       C4Eu4O12
_chemical_formula_sum              "C4 Eu4 O12"
_cell_length_a       4.96152
_cell_length_b       8.09258
_cell_length_c       5.67893
_cell_angle_alpha    90
_cell_angle_beta     90
_cell_angle_gamma    90

_space_group_name_H-M_alt    "P 1"
_space_group_IT_number       1

loop_
  _space_group_symop_operation_xyz
  'x, y, z'

loop_
  _atom_site_type_symbol
  _atom_site_label
  _atom_site_symmetry_multiplicity
  _atom_site_fract_x
  _atom_site_fract_y
  _atom_site_fract_z
  _atom_site_occupancy
  C   C1        1.0  0.75000  0.24000  0.09160  1.0000
  C   C2        1.0  0.25000  0.74000  0.40800  1.0000
  C   C3        1.0  0.75000  0.26000  0.59200  1.0000
  C   C4        1.0  0.25000  0.76000  0.90800  1.0000
  Eu  Eu1       1.0  0.75000  0.58400  0.24300  1.0000
  Eu  Eu2       1.0  0.25000  0.08420  0.25700  1.0000
  Eu  Eu3       1.0  0.75000  0.91600  0.74300  1.0000
  Eu  Eu4       1.0  0.25000  0.41600  0.75700  1.0000
  O   O1        1.0  0.52400  0.32100  0.09160  1.0000
  O   O2        1.0  0.97600  0.32100  0.09160  1.0000
  O   O3        1.0  0.75000  0.08080  0.10400  1.0000
  O   O4        1.0  0.25000  0.58100  0.39600  1.0000
  O   O5        1.0  0.02450  0.82100  0.40800  1.0000
  O   O6        1.0  0.47600  0.82100  0.40800  1.0000
  O   O7        1.0  0.52400  0.17900  0.59200  1.0000
  O   O8        1.0  0.97600  0.17900  0.59200  1.0000
  O   O9        1.0  0.75000  0.41900  0.60400  1.0000
  O   O10       1.0  0.25000  0.91900  0.89600  1.0000
  O   O11       1.0  0.02450  0.67900  0.90800  1.0000
  O   O12       1.0  0.47600  0.67900  0.90800  1.0000
