data_image0
_chemical_formula_structural       Cs4F12Fe2KLi
_chemical_formula_sum              "Cs4 F12 Fe2 K1 Li1"
_cell_length_a       6.16049
_cell_length_b       6.16049
_cell_length_c       10.667
_cell_angle_alpha    106.784
_cell_angle_beta     73.216
_cell_angle_gamma    120

_space_group_name_H-M_alt    "P 1"
_space_group_IT_number       1

loop_
  _space_group_symop_operation_xyz
  'x, y, z'

loop_
  _atom_site_type_symbol
  _atom_site_label
  _atom_site_symmetry_multiplicity
  _atom_site_fract_x
  _atom_site_fract_y
  _atom_site_fract_z
  _atom_site_occupancy
  Cs  Cs1       1.0  0.28600  0.71400  0.14200  1.0000
  Cs  Cs2       1.0  0.86700  0.13300  0.39900  1.0000
  Cs  Cs3       1.0  0.13300  0.86700  0.60100  1.0000
  Cs  Cs4       1.0  0.71400  0.28600  0.85800  1.0000
  F   F1        1.0  0.32100  0.23200  0.14200  1.0000
  F   F2        1.0  0.76800  0.23200  0.14200  1.0000
  F   F3        1.0  0.76800  0.67900  0.14200  1.0000
  F   F4        1.0  0.39800  0.16800  0.37200  1.0000
  F   F5        1.0  0.39800  0.60200  0.37200  1.0000
  F   F6        1.0  0.83200  0.60200  0.37200  1.0000
  F   F7        1.0  0.16800  0.39800  0.62800  1.0000
  F   F8        1.0  0.60200  0.39800  0.62800  1.0000
  F   F9        1.0  0.60200  0.83200  0.62800  1.0000
  F   F10       1.0  0.23200  0.32100  0.85800  1.0000
  F   F11       1.0  0.23200  0.76800  0.85800  1.0000
  F   F12       1.0  0.67900  0.76800  0.85800  1.0000
  Fe  Fe1       1.0  0.58400  0.41600  0.24800  1.0000
  Fe  Fe2       1.0  0.41600  0.58400  0.75200  1.0000
  K   K1        1.0  0.00000  0.00000  0.00000  1.0000
  Li  Li1       1.0  0.50000  0.50000  0.50000  1.0000
