data_image0
_chemical_formula_structural       In12La2Ni6
_chemical_formula_sum              "In12 La2 Ni6"
_cell_length_a       3.48864
_cell_length_b       8.28937
_cell_length_c       14.5262
_cell_angle_alpha    90
_cell_angle_beta     90
_cell_angle_gamma    90

_space_group_name_H-M_alt    "P 1"
_space_group_IT_number       1

loop_
  _space_group_symop_operation_xyz
  'x, y, z'

loop_
  _atom_site_type_symbol
  _atom_site_label
  _atom_site_symmetry_multiplicity
  _atom_site_fract_x
  _atom_site_fract_y
  _atom_site_fract_z
  _atom_site_occupancy
  In  In1       1.0  0.00000  0.18900  0.78200  1.0000
  In  In2       1.0  0.00000  0.81100  0.78200  1.0000
  In  In3       1.0  0.50000  0.31100  0.21800  1.0000
  In  In4       1.0  0.50000  0.68900  0.21800  1.0000
  In  In5       1.0  0.00000  0.50000  0.88300  1.0000
  In  In6       1.0  0.50000  0.00000  0.11700  1.0000
  In  In7       1.0  0.00000  0.00000  0.94800  1.0000
  In  In8       1.0  0.50000  0.50000  0.05200  1.0000
  In  In9       1.0  0.00000  0.18400  0.57800  1.0000
  In  In10      1.0  0.00000  0.81600  0.57800  1.0000
  In  In11      1.0  0.50000  0.31600  0.42200  1.0000
  In  In12      1.0  0.50000  0.68400  0.42200  1.0000
  La  La1       1.0  0.00000  0.00000  0.32800  1.0000
  La  La2       1.0  0.50000  0.50000  0.67200  1.0000
  Ni  Ni1       1.0  0.00000  0.24200  0.07050  1.0000
  Ni  Ni2       1.0  0.00000  0.75800  0.07050  1.0000
  Ni  Ni3       1.0  0.50000  0.25800  0.92900  1.0000
  Ni  Ni4       1.0  0.50000  0.74200  0.92900  1.0000
  Ni  Ni5       1.0  0.00000  0.50000  0.51500  1.0000
  Ni  Ni6       1.0  0.50000  0.00000  0.48500  1.0000
