data_image0
_chemical_formula_structural       Na2P4S12Yb2
_chemical_formula_sum              "Na2 P4 S12 Yb2"
_cell_length_a       7.09971
_cell_length_b       7.26032
_cell_length_c       9.64102
_cell_angle_alpha    87.6935
_cell_angle_beta     80.136
_cell_angle_gamma    88.6873

_space_group_name_H-M_alt    "P 1"
_space_group_IT_number       1

loop_
  _space_group_symop_operation_xyz
  'x, y, z'

loop_
  _atom_site_type_symbol
  _atom_site_label
  _atom_site_symmetry_multiplicity
  _atom_site_fract_x
  _atom_site_fract_y
  _atom_site_fract_z
  _atom_site_occupancy
  Na  Na1       1.0  0.50600  0.38600  0.31900  1.0000
  Na  Na2       1.0  0.49400  0.61400  0.68100  1.0000
  P   P1        1.0  0.72900  0.04420  0.05230  1.0000
  P   P2        1.0  0.94200  0.39200  0.43900  1.0000
  P   P3        1.0  0.05790  0.60800  0.56100  1.0000
  P   P4        1.0  0.27100  0.95600  0.94800  1.0000
  S   S1        1.0  0.31200  0.72300  0.04810  1.0000
  S   S2        1.0  0.15800  0.16700  0.05470  1.0000
  S   S3        1.0  0.89800  0.51200  0.25400  1.0000
  S   S4        1.0  0.65400  0.01770  0.25800  1.0000
  S   S5        1.0  0.15100  0.19100  0.42900  1.0000
  S   S6        1.0  0.30000  0.70300  0.43500  1.0000
  S   S7        1.0  0.70000  0.29700  0.56500  1.0000
  S   S8        1.0  0.84900  0.80900  0.57100  1.0000
  S   S9        1.0  0.34600  0.98200  0.74200  1.0000
  S   S10       1.0  0.10200  0.48800  0.74600  1.0000
  S   S11       1.0  0.84200  0.83300  0.94500  1.0000
  S   S12       1.0  0.68800  0.27700  0.95200  1.0000
  Yb  Yb1       1.0  0.03740  0.88100  0.28000  1.0000
  Yb  Yb2       1.0  0.96300  0.11900  0.72000  1.0000
