data_image0
_chemical_formula_structural       F7K3N2O6Sb2
_chemical_formula_sum              "F7 K3 N2 O6 Sb2"
_cell_length_a       5.41672
_cell_length_b       6.94639
_cell_length_c       7.74393
_cell_angle_alpha    92.4629
_cell_angle_beta     110.471
_cell_angle_gamma    90

_space_group_name_H-M_alt    "P 1"
_space_group_IT_number       1

loop_
  _space_group_symop_operation_xyz
  'x, y, z'

loop_
  _atom_site_type_symbol
  _atom_site_label
  _atom_site_symmetry_multiplicity
  _atom_site_fract_x
  _atom_site_fract_y
  _atom_site_fract_z
  _atom_site_occupancy
  F   F1        1.0  1.00000  0.50000  1.00000  1.0000
  F   F2        1.0  0.39500  0.42400  0.30500  1.0000
  F   F3        1.0  0.90900  0.42400  0.30500  1.0000
  F   F4        1.0  0.22000  0.12500  0.44100  1.0000
  F   F5        1.0  0.78000  0.87500  0.55900  1.0000
  F   F6        1.0  0.09070  0.57600  0.69500  1.0000
  F   F7        1.0  0.60500  0.57600  0.69500  1.0000
  K   K1        1.0  0.50000  0.50000  1.00000  1.0000
  K   K2        1.0  0.21700  0.73800  0.43500  1.0000
  K   K3        1.0  0.78300  0.26200  0.56500  1.0000
  N   N1        1.0  0.58900  0.92200  0.17900  1.0000
  N   N2        1.0  0.41100  0.07820  0.82100  1.0000
  O   O1        1.0  0.37700  0.83400  0.15900  1.0000
  O   O2        1.0  0.78200  0.83400  0.15900  1.0000
  O   O3        1.0  0.60700  0.10300  0.21300  1.0000
  O   O4        1.0  0.39300  0.89700  0.78700  1.0000
  O   O5        1.0  0.21800  0.16600  0.84100  1.0000
  O   O6        1.0  0.62300  0.16600  0.84100  1.0000
  Sb  Sb1       1.0  0.09620  0.24200  0.19200  1.0000
  Sb  Sb2       1.0  0.90400  0.75800  0.80800  1.0000
