data_image0
_chemical_formula_structural       In2P4Se12Tl2
_chemical_formula_sum              "In2 P4 Se12 Tl2"
_cell_length_a       6.59202
_cell_length_b       7.98339
_cell_length_c       12.3712
_cell_angle_alpha    101.778
_cell_angle_beta     93.4987
_cell_angle_gamma    112.309

_space_group_name_H-M_alt    "P 1"
_space_group_IT_number       1

loop_
  _space_group_symop_operation_xyz
  'x, y, z'

loop_
  _atom_site_type_symbol
  _atom_site_label
  _atom_site_symmetry_multiplicity
  _atom_site_fract_x
  _atom_site_fract_y
  _atom_site_fract_z
  _atom_site_occupancy
  In  In1       1.0  0.29200  0.56800  0.09170  1.0000
  In  In2       1.0  0.70800  0.43200  0.90800  1.0000
  P   P1        1.0  0.92400  0.83400  0.20500  1.0000
  P   P2        1.0  0.80100  0.55600  0.25400  1.0000
  P   P3        1.0  0.19900  0.44400  0.74600  1.0000
  P   P4        1.0  0.07570  0.16600  0.79500  1.0000
  Se  Se1       1.0  0.04810  0.77300  0.03990  1.0000
  Se  Se2       1.0  0.53700  0.35300  0.11000  1.0000
  Se  Se3       1.0  0.63600  0.90800  0.18400  1.0000
  Se  Se4       1.0  0.09420  0.48600  0.27400  1.0000
  Se  Se5       1.0  0.18600  0.04380  0.33200  1.0000
  Se  Se6       1.0  0.67100  0.58600  0.41000  1.0000
  Se  Se7       1.0  0.32900  0.41400  0.59000  1.0000
  Se  Se8       1.0  0.81400  0.95600  0.66800  1.0000
  Se  Se9       1.0  0.90600  0.51400  0.72600  1.0000
  Se  Se10      1.0  0.36400  0.09160  0.81600  1.0000
  Se  Se11      1.0  0.46300  0.64700  0.89000  1.0000
  Se  Se12      1.0  0.95200  0.22700  0.96000  1.0000
  Tl  Tl1       1.0  0.82700  0.17600  0.46200  1.0000
  Tl  Tl2       1.0  0.17300  0.82400  0.53800  1.0000
