data_image0
_chemical_formula_structural       Ag2Bi2P4Se12
_chemical_formula_sum              "Ag2 Bi2 P4 Se12"
_cell_length_a       6.74837
_cell_length_b       6.74803
_cell_length_c       14.5905
_cell_angle_alpha    89.9993
_cell_angle_beta     76.6278
_cell_angle_gamma    119.999

_space_group_name_H-M_alt    "P 1"
_space_group_IT_number       1

loop_
  _space_group_symop_operation_xyz
  'x, y, z'

loop_
  _atom_site_type_symbol
  _atom_site_label
  _atom_site_symmetry_multiplicity
  _atom_site_fract_x
  _atom_site_fract_y
  _atom_site_fract_z
  _atom_site_occupancy
  Ag  Ag1       1.0  0.18800  0.59400  0.21700  1.0000
  Ag  Ag2       1.0  0.81200  0.40600  0.78300  1.0000
  Bi  Bi1       1.0  0.82500  0.91200  0.26300  1.0000
  Bi  Bi2       1.0  0.17500  0.08760  0.73700  1.0000
  P   P1        1.0  0.55300  0.27600  0.17100  1.0000
  P   P2        1.0  0.44400  0.22200  0.33400  1.0000
  P   P3        1.0  0.55600  0.77800  0.66600  1.0000
  P   P4        1.0  0.44700  0.72400  0.82900  1.0000
  Se  Se1       1.0  0.88700  0.27000  0.12100  1.0000
  Se  Se2       1.0  0.60900  0.61600  0.12100  1.0000
  Se  Se3       1.0  0.26300  0.99300  0.12100  1.0000
  Se  Se4       1.0  0.75000  0.50000  0.37700  1.0000
  Se  Se5       1.0  0.37300  0.87300  0.37700  1.0000
  Se  Se6       1.0  0.12400  0.25000  0.37700  1.0000
  Se  Se7       1.0  0.87600  0.75000  0.62300  1.0000
  Se  Se8       1.0  0.62700  0.12700  0.62300  1.0000
  Se  Se9       1.0  0.25000  0.50000  0.62300  1.0000
  Se  Se10      1.0  0.73700  0.00740  0.87900  1.0000
  Se  Se11      1.0  0.39100  0.38400  0.87900  1.0000
  Se  Se12      1.0  0.11300  0.73000  0.87900  1.0000
