data_image0
_chemical_formula_structural       C12Yb8
_chemical_formula_sum              "C12 Yb8"
_cell_length_a       7.20254
_cell_length_b       7.20254
_cell_length_c       7.20254
_cell_angle_alpha    109.471
_cell_angle_beta     109.471
_cell_angle_gamma    109.471

_space_group_name_H-M_alt    "P 1"
_space_group_IT_number       1

loop_
  _space_group_symop_operation_xyz
  'x, y, z'

loop_
  _atom_site_type_symbol
  _atom_site_label
  _atom_site_symmetry_multiplicity
  _atom_site_fract_x
  _atom_site_fract_y
  _atom_site_fract_z
  _atom_site_occupancy
  C   C1        1.0  0.75000  0.29700  0.04730  1.0000
  C   C2        1.0  0.75000  0.45300  0.20300  1.0000
  C   C3        1.0  0.29700  0.54700  0.25000  1.0000
  C   C4        1.0  0.45300  0.70300  0.25000  1.0000
  C   C5        1.0  0.25000  0.04730  0.29700  1.0000
  C   C6        1.0  0.25000  0.20300  0.45300  1.0000
  C   C7        1.0  0.79700  0.25000  0.54700  1.0000
  C   C8        1.0  0.95300  0.25000  0.70300  1.0000
  C   C9        1.0  0.04730  0.79700  0.75000  1.0000
  C   C10       1.0  0.20300  0.95300  0.75000  1.0000
  C   C11       1.0  0.54700  0.75000  0.79700  1.0000
  C   C12       1.0  0.70300  0.75000  0.95300  1.0000
  Yb  Yb1       1.0  0.00000  0.11300  0.00000  1.0000
  Yb  Yb2       1.0  0.00000  0.61300  0.00000  1.0000
  Yb  Yb3       1.0  0.50000  0.00000  0.11300  1.0000
  Yb  Yb4       1.0  0.88700  0.88700  0.38700  1.0000
  Yb  Yb5       1.0  0.61300  0.50000  0.50000  1.0000
  Yb  Yb6       1.0  0.11300  0.50000  0.50000  1.0000
  Yb  Yb7       1.0  0.50000  0.00000  0.61300  1.0000
  Yb  Yb8       1.0  0.38700  0.38700  0.88700  1.0000
