data_image0
_chemical_formula_structural       O14P4V2
_chemical_formula_sum              "O14 P4 V2"
_cell_length_a       4.77449
_cell_length_b       7.81902
_cell_length_c       6.85593
_cell_angle_alpha    90
_cell_angle_beta     107.179
_cell_angle_gamma    90

_space_group_name_H-M_alt    "P 1"
_space_group_IT_number       1

loop_
  _space_group_symop_operation_xyz
  'x, y, z'

loop_
  _atom_site_type_symbol
  _atom_site_label
  _atom_site_symmetry_multiplicity
  _atom_site_fract_x
  _atom_site_fract_y
  _atom_site_fract_z
  _atom_site_occupancy
  O   O1        1.0  0.40400  0.92500  0.08500  1.0000
  O   O2        1.0  0.88300  0.16700  0.09920  1.0000
  O   O3        1.0  0.94700  0.81600  0.16200  1.0000
  O   O4        1.0  0.40400  0.63600  0.26300  1.0000
  O   O5        1.0  0.59200  0.17700  0.36900  1.0000
  O   O6        1.0  0.16500  0.04020  0.46800  1.0000
  O   O7        1.0  0.72700  0.85900  0.49100  1.0000
  O   O8        1.0  0.27300  0.35900  0.50900  1.0000
  O   O9        1.0  0.83500  0.54000  0.53200  1.0000
  O   O10       1.0  0.40800  0.67700  0.63100  1.0000
  O   O11       1.0  0.59600  0.13600  0.73700  1.0000
  O   O12       1.0  0.05260  0.31600  0.83800  1.0000
  O   O13       1.0  0.11700  0.66700  0.90100  1.0000
  O   O14       1.0  0.59600  0.42500  0.91500  1.0000
  P   P1        1.0  0.21800  0.76900  0.09590  1.0000
  P   P2        1.0  0.60400  0.67900  0.48900  1.0000
  P   P3        1.0  0.39600  0.17900  0.51100  1.0000
  P   P4        1.0  0.78200  0.26900  0.90400  1.0000
  V   V1        1.0  0.78500  0.99900  0.27400  1.0000
  V   V2        1.0  0.21500  0.49900  0.72600  1.0000
