data_image0
_chemical_formula_structural       K2P4Sb2Se12
_chemical_formula_sum              "K2 P4 Sb2 Se12"
_cell_length_a       7.0447
_cell_length_b       8.083
_cell_length_c       10.295
_cell_angle_alpha    90
_cell_angle_beta     91.5025
_cell_angle_gamma    90

_space_group_name_H-M_alt    "P 1"
_space_group_IT_number       1

loop_
  _space_group_symop_operation_xyz
  'x, y, z'

loop_
  _atom_site_type_symbol
  _atom_site_label
  _atom_site_symmetry_multiplicity
  _atom_site_fract_x
  _atom_site_fract_y
  _atom_site_fract_z
  _atom_site_occupancy
  K   K1        1.0  0.19300  0.83800  0.00412  1.0000
  K   K2        1.0  0.80700  0.33800  0.99600  1.0000
  P   P1        1.0  0.29400  0.34800  0.19900  1.0000
  P   P2        1.0  0.19500  0.13600  0.32700  1.0000
  P   P3        1.0  0.80500  0.63600  0.67300  1.0000
  P   P4        1.0  0.70600  0.84800  0.80100  1.0000
  Sb  Sb1       1.0  0.31200  0.55700  0.48500  1.0000
  Sb  Sb2       1.0  0.68800  0.05680  0.51500  1.0000
  Se  Se1       1.0  0.32700  0.26200  0.00439  1.0000
  Se  Se2       1.0  0.08320  0.54400  0.23300  1.0000
  Se  Se3       1.0  0.92600  0.04140  0.24600  1.0000
  Se  Se4       1.0  0.55700  0.42600  0.31200  1.0000
  Se  Se5       1.0  0.42000  0.94100  0.32800  1.0000
  Se  Se6       1.0  0.84100  0.75500  0.47500  1.0000
  Se  Se7       1.0  0.15900  0.25500  0.52500  1.0000
  Se  Se8       1.0  0.58000  0.44100  0.67200  1.0000
  Se  Se9       1.0  0.44300  0.92600  0.68800  1.0000
  Se  Se10      1.0  0.07410  0.54100  0.75400  1.0000
  Se  Se11      1.0  0.91700  0.04420  0.76700  1.0000
  Se  Se12      1.0  0.67300  0.76200  0.99600  1.0000
