data_image0
_chemical_formula_structural       Ag12Br4S4
_chemical_formula_sum              "Ag12 Br4 S4"
_cell_length_a       6.86172
_cell_length_b       6.86172
_cell_length_c       9.84783
_cell_angle_alpha    90
_cell_angle_beta     90
_cell_angle_gamma    90.9582

_space_group_name_H-M_alt    "P 1"
_space_group_IT_number       1

loop_
  _space_group_symop_operation_xyz
  'x, y, z'

loop_
  _atom_site_type_symbol
  _atom_site_label
  _atom_site_symmetry_multiplicity
  _atom_site_fract_x
  _atom_site_fract_y
  _atom_site_fract_z
  _atom_site_occupancy
  Ag  Ag1       1.0  0.66500  0.33500  0.00000  1.0000
  Ag  Ag2       1.0  0.33500  0.66500  0.00000  1.0000
  Ag  Ag3       1.0  0.20200  0.20200  0.03340  1.0000
  Ag  Ag4       1.0  0.57600  0.02840  0.25000  1.0000
  Ag  Ag5       1.0  0.02840  0.57600  0.25000  1.0000
  Ag  Ag6       1.0  0.20200  0.20200  0.46700  1.0000
  Ag  Ag7       1.0  0.66500  0.33500  0.50000  1.0000
  Ag  Ag8       1.0  0.33500  0.66500  0.50000  1.0000
  Ag  Ag9       1.0  0.79800  0.79800  0.53300  1.0000
  Ag  Ag10      1.0  0.97200  0.42400  0.75000  1.0000
  Ag  Ag11      1.0  0.42400  0.97200  0.75000  1.0000
  Ag  Ag12      1.0  0.79800  0.79800  0.96700  1.0000
  Br  Br1       1.0  0.50200  0.50200  0.25000  1.0000
  Br  Br2       1.0  0.99900  0.99900  0.25000  1.0000
  Br  Br3       1.0  0.00100  0.00100  0.75000  1.0000
  Br  Br4       1.0  0.49800  0.49800  0.75000  1.0000
  S   S1        1.0  0.50000  0.00000  0.00000  1.0000
  S   S2        1.0  0.00000  0.50000  0.00000  1.0000
  S   S3        1.0  0.50000  0.00000  0.50000  1.0000
  S   S4        1.0  0.00000  0.50000  0.50000  1.0000
