data_image0
_chemical_formula_structural       In14K4Sr2
_chemical_formula_sum              "In14 K4 Sr2"
_cell_length_a       5.11762
_cell_length_b       6.60053
_cell_length_c       20.1465
_cell_angle_alpha    90
_cell_angle_beta     90
_cell_angle_gamma    67.1906

_space_group_name_H-M_alt    "P 1"
_space_group_IT_number       1

loop_
  _space_group_symop_operation_xyz
  'x, y, z'

loop_
  _atom_site_type_symbol
  _atom_site_label
  _atom_site_symmetry_multiplicity
  _atom_site_fract_x
  _atom_site_fract_y
  _atom_site_fract_z
  _atom_site_occupancy
  In  In1       1.0  0.45800  0.08460  0.07190  1.0000
  In  In2       1.0  0.87800  0.24400  0.13000  1.0000
  In  In3       1.0  0.64000  0.72100  0.17500  1.0000
  In  In4       1.0  0.04430  0.91100  0.25000  1.0000
  In  In5       1.0  0.64000  0.72100  0.32500  1.0000
  In  In6       1.0  0.87800  0.24400  0.37000  1.0000
  In  In7       1.0  0.45800  0.08460  0.42800  1.0000
  In  In8       1.0  0.54200  0.91500  0.57200  1.0000
  In  In9       1.0  0.12200  0.75600  0.63000  1.0000
  In  In10      1.0  0.36000  0.27900  0.67500  1.0000
  In  In11      1.0  0.95600  0.08850  0.75000  1.0000
  In  In12      1.0  0.36000  0.27900  0.82500  1.0000
  In  In13      1.0  0.12200  0.75600  0.87000  1.0000
  In  In14      1.0  0.54200  0.91500  0.92800  1.0000
  K   K1        1.0  0.16000  0.67900  0.05240  1.0000
  K   K2        1.0  0.16000  0.67900  0.44800  1.0000
  K   K3        1.0  0.84000  0.32100  0.55200  1.0000
  K   K4        1.0  0.84000  0.32100  0.94800  1.0000
  Sr  Sr1       1.0  0.34100  0.31800  0.25000  1.0000
  Sr  Sr2       1.0  0.65900  0.68200  0.75000  1.0000
