data_image0
_chemical_formula_structural       Cl4Re6Se8Tl2
_chemical_formula_sum              "Cl4 Re6 Se8 Tl2"
_cell_length_a       6.65131
_cell_length_b       8.94182
_cell_length_c       9.03722
_cell_angle_alpha    85.0899
_cell_angle_beta     82.4105
_cell_angle_gamma    69.241

_space_group_name_H-M_alt    "P 1"
_space_group_IT_number       1

loop_
  _space_group_symop_operation_xyz
  'x, y, z'

loop_
  _atom_site_type_symbol
  _atom_site_label
  _atom_site_symmetry_multiplicity
  _atom_site_fract_x
  _atom_site_fract_y
  _atom_site_fract_z
  _atom_site_occupancy
  Cl  Cl1       1.0  0.09180  0.41800  0.23900  1.0000
  Cl  Cl2       1.0  0.70600  0.76100  0.41900  1.0000
  Cl  Cl3       1.0  0.29400  0.23900  0.58100  1.0000
  Cl  Cl4       1.0  0.90800  0.58200  0.76100  1.0000
  Re  Re1       1.0  0.27400  0.92300  0.02340  1.0000
  Re  Re2       1.0  0.32400  0.18200  0.10300  1.0000
  Re  Re3       1.0  0.59100  0.89800  0.18200  1.0000
  Re  Re4       1.0  0.40900  0.10200  0.81800  1.0000
  Re  Re5       1.0  0.67600  0.81800  0.89700  1.0000
  Re  Re6       1.0  0.72600  0.07700  0.97700  1.0000
  Se  Se1       1.0  0.97600  0.78700  0.05750  1.0000
  Se  Se2       1.0  0.53700  0.65100  0.09970  1.0000
  Se  Se3       1.0  0.63800  0.15400  0.24700  1.0000
  Se  Se4       1.0  0.19900  0.99900  0.29600  1.0000
  Se  Se5       1.0  0.80100  0.00140  0.70400  1.0000
  Se  Se6       1.0  0.36200  0.84600  0.75300  1.0000
  Se  Se7       1.0  0.46300  0.34900  0.90000  1.0000
  Se  Se8       1.0  0.02410  0.21300  0.94300  1.0000
  Tl  Tl1       1.0  0.19200  0.63700  0.47000  1.0000
  Tl  Tl2       1.0  0.80800  0.36300  0.53000  1.0000
