data_image0
_chemical_formula_structural       Al2Cs12Sb6
_chemical_formula_sum              "Al2 Cs12 Sb6"
_cell_length_a       11.1184
_cell_length_b       6.58922
_cell_length_c       12.938
_cell_angle_alpha    90
_cell_angle_beta     101.204
_cell_angle_gamma    90

_space_group_name_H-M_alt    "P 1"
_space_group_IT_number       1

loop_
  _space_group_symop_operation_xyz
  'x, y, z'

loop_
  _atom_site_type_symbol
  _atom_site_label
  _atom_site_symmetry_multiplicity
  _atom_site_fract_x
  _atom_site_fract_y
  _atom_site_fract_z
  _atom_site_occupancy
  Al  Al1       1.0  0.82400  0.75000  0.22100  1.0000
  Al  Al2       1.0  0.17600  0.25000  0.77900  1.0000
  Cs  Cs1       1.0  0.94500  0.25000  0.05120  1.0000
  Cs  Cs2       1.0  0.40500  0.75000  0.13300  1.0000
  Cs  Cs3       1.0  0.62100  0.25000  0.17500  1.0000
  Cs  Cs4       1.0  0.24900  0.25000  0.28000  1.0000
  Cs  Cs5       1.0  0.95700  0.25000  0.42200  1.0000
  Cs  Cs6       1.0  0.36600  0.75000  0.48100  1.0000
  Cs  Cs7       1.0  0.63400  0.25000  0.51900  1.0000
  Cs  Cs8       1.0  0.04250  0.75000  0.57800  1.0000
  Cs  Cs9       1.0  0.75100  0.75000  0.72000  1.0000
  Cs  Cs10      1.0  0.37900  0.75000  0.82500  1.0000
  Cs  Cs11      1.0  0.59500  0.25000  0.86700  1.0000
  Cs  Cs12      1.0  0.05450  0.75000  0.94900  1.0000
  Sb  Sb1       1.0  0.71400  0.75000  0.01880  1.0000
  Sb  Sb2       1.0  0.06760  0.75000  0.26900  1.0000
  Sb  Sb3       1.0  0.69000  0.75000  0.37400  1.0000
  Sb  Sb4       1.0  0.31000  0.25000  0.62600  1.0000
  Sb  Sb5       1.0  0.93200  0.25000  0.73100  1.0000
  Sb  Sb6       1.0  0.28600  0.25000  0.98100  1.0000
