data_image0
_chemical_formula_structural       Al4Cs4Te12
_chemical_formula_sum              "Al4 Cs4 Te12"
_cell_length_a       8.38179
_cell_length_b       14.1824
_cell_length_c       7.35661
_cell_angle_alpha    90
_cell_angle_beta     104.281
_cell_angle_gamma    90

_space_group_name_H-M_alt    "P 1"
_space_group_IT_number       1

loop_
  _space_group_symop_operation_xyz
  'x, y, z'

loop_
  _atom_site_type_symbol
  _atom_site_label
  _atom_site_symmetry_multiplicity
  _atom_site_fract_x
  _atom_site_fract_y
  _atom_site_fract_z
  _atom_site_occupancy
  Al  Al1       1.0  0.17900  0.27300  0.15300  1.0000
  Al  Al2       1.0  0.82100  0.77300  0.34700  1.0000
  Al  Al3       1.0  0.17900  0.22700  0.65300  1.0000
  Al  Al4       1.0  0.82100  0.72700  0.84700  1.0000
  Cs  Cs1       1.0  0.74600  0.42100  0.21200  1.0000
  Cs  Cs2       1.0  0.25400  0.92100  0.28800  1.0000
  Cs  Cs3       1.0  0.74600  0.07920  0.71200  1.0000
  Cs  Cs4       1.0  0.25400  0.57900  0.78800  1.0000
  Te  Te1       1.0  0.45300  0.18000  0.14700  1.0000
  Te  Te2       1.0  0.71800  0.92900  0.15600  1.0000
  Te  Te3       1.0  0.00259  0.67100  0.17400  1.0000
  Te  Te4       1.0  0.99700  0.17100  0.32600  1.0000
  Te  Te5       1.0  0.28200  0.42900  0.34400  1.0000
  Te  Te6       1.0  0.54700  0.68000  0.35300  1.0000
  Te  Te7       1.0  0.45300  0.32000  0.64700  1.0000
  Te  Te8       1.0  0.71800  0.57100  0.65600  1.0000
  Te  Te9       1.0  0.00259  0.82900  0.67400  1.0000
  Te  Te10      1.0  0.99700  0.32900  0.82600  1.0000
  Te  Te11      1.0  0.28200  0.07140  0.84400  1.0000
  Te  Te12      1.0  0.54700  0.82000  0.85300  1.0000
