data_image0
_chemical_formula_structural       Cs4F12Ga2KLi
_chemical_formula_sum              "Cs4 F12 Ga2 K1 Li1"
_cell_length_a       6.13805
_cell_length_b       6.13805
_cell_length_c       10.607
_cell_angle_alpha    106.818
_cell_angle_beta     73.1816
_cell_angle_gamma    120

_space_group_name_H-M_alt    "P 1"
_space_group_IT_number       1

loop_
  _space_group_symop_operation_xyz
  'x, y, z'

loop_
  _atom_site_type_symbol
  _atom_site_label
  _atom_site_symmetry_multiplicity
  _atom_site_fract_x
  _atom_site_fract_y
  _atom_site_fract_z
  _atom_site_occupancy
  Cs  Cs1       1.0  0.28700  0.71300  0.13900  1.0000
  Cs  Cs2       1.0  0.86700  0.13300  0.39900  1.0000
  Cs  Cs3       1.0  0.13300  0.86700  0.60100  1.0000
  Cs  Cs4       1.0  0.71300  0.28700  0.86100  1.0000
  F   F1        1.0  0.76600  0.67600  0.14400  1.0000
  F   F2        1.0  0.32400  0.23400  0.14400  1.0000
  F   F3        1.0  0.76600  0.23400  0.14400  1.0000
  F   F4        1.0  0.40100  0.59900  0.37000  1.0000
  F   F5        1.0  0.82800  0.59900  0.37000  1.0000
  F   F6        1.0  0.40100  0.17200  0.37000  1.0000
  F   F7        1.0  0.59900  0.82800  0.63000  1.0000
  F   F8        1.0  0.17200  0.40100  0.63000  1.0000
  F   F9        1.0  0.59900  0.40100  0.63000  1.0000
  F   F10       1.0  0.23400  0.76600  0.85600  1.0000
  F   F11       1.0  0.67600  0.76600  0.85600  1.0000
  F   F12       1.0  0.23400  0.32400  0.85600  1.0000
  Ga  Ga1       1.0  0.58400  0.41600  0.24700  1.0000
  Ga  Ga2       1.0  0.41600  0.58400  0.75300  1.0000
  K   K1        1.0  0.00000  0.00000  0.00000  1.0000
  Li  Li1       1.0  0.50000  0.50000  0.50000  1.0000
