data_image0
_chemical_formula_structural       Cs12Ga2Sb6
_chemical_formula_sum              "Cs12 Ga2 Sb6"
_cell_length_a       11.0951
_cell_length_b       6.57851
_cell_length_c       12.9608
_cell_angle_alpha    90
_cell_angle_beta     101.33
_cell_angle_gamma    90

_space_group_name_H-M_alt    "P 1"
_space_group_IT_number       1

loop_
  _space_group_symop_operation_xyz
  'x, y, z'

loop_
  _atom_site_type_symbol
  _atom_site_label
  _atom_site_symmetry_multiplicity
  _atom_site_fract_x
  _atom_site_fract_y
  _atom_site_fract_z
  _atom_site_occupancy
  Cs  Cs1       1.0  0.13400  0.25000  0.01960  1.0000
  Cs  Cs2       1.0  0.54200  0.75000  0.07840  1.0000
  Cs  Cs3       1.0  0.24800  0.75000  0.21900  1.0000
  Cs  Cs4       1.0  0.87700  0.75000  0.32400  1.0000
  Cs  Cs5       1.0  0.09490  0.25000  0.36700  1.0000
  Cs  Cs6       1.0  0.55400  0.75000  0.44800  1.0000
  Cs  Cs7       1.0  0.44600  0.25000  0.55200  1.0000
  Cs  Cs8       1.0  0.90500  0.75000  0.63300  1.0000
  Cs  Cs9       1.0  0.12300  0.25000  0.67600  1.0000
  Cs  Cs10      1.0  0.75200  0.25000  0.78100  1.0000
  Cs  Cs11      1.0  0.45800  0.25000  0.92200  1.0000
  Cs  Cs12      1.0  0.86600  0.75000  0.98000  1.0000
  Ga  Ga1       1.0  0.67600  0.25000  0.27900  1.0000
  Ga  Ga2       1.0  0.32400  0.75000  0.72100  1.0000
  Sb  Sb1       1.0  0.81200  0.25000  0.12500  1.0000
  Sb  Sb2       1.0  0.43200  0.25000  0.23200  1.0000
  Sb  Sb3       1.0  0.78700  0.25000  0.48200  1.0000
  Sb  Sb4       1.0  0.21300  0.75000  0.51800  1.0000
  Sb  Sb5       1.0  0.56800  0.75000  0.76800  1.0000
  Sb  Sb6       1.0  0.18800  0.75000  0.87500  1.0000
