data_image0
_chemical_formula_structural       F12K2Rb4Y2
_chemical_formula_sum              "F12 K2 Rb4 Y2"
_cell_length_a       6.31864
_cell_length_b       6.45264
_cell_length_c       9.00758
_cell_angle_alpha    90
_cell_angle_beta     89.66
_cell_angle_gamma    90

_space_group_name_H-M_alt    "P 1"
_space_group_IT_number       1

loop_
  _space_group_symop_operation_xyz
  'x, y, z'

loop_
  _atom_site_type_symbol
  _atom_site_label
  _atom_site_symmetry_multiplicity
  _atom_site_fract_x
  _atom_site_fract_y
  _atom_site_fract_z
  _atom_site_occupancy
  F   F1        1.0  0.28200  0.18100  0.04440  1.0000
  F   F2        1.0  0.17500  0.71800  0.04910  1.0000
  F   F3        1.0  0.90900  0.02960  0.23100  1.0000
  F   F4        1.0  0.59100  0.53000  0.26900  1.0000
  F   F5        1.0  0.32500  0.21800  0.45100  1.0000
  F   F6        1.0  0.21800  0.68100  0.45600  1.0000
  F   F7        1.0  0.78200  0.31900  0.54400  1.0000
  F   F8        1.0  0.67500  0.78200  0.54900  1.0000
  F   F9        1.0  0.40900  0.47000  0.73100  1.0000
  F   F10       1.0  0.09130  0.97000  0.76900  1.0000
  F   F11       1.0  0.82500  0.28200  0.95100  1.0000
  F   F12       1.0  0.71800  0.81900  0.95600  1.0000
  K   K1        1.0  0.50000  0.50000  1.00000  1.0000
  K   K2        1.0  0.00000  0.00000  0.50000  1.0000
  Rb  Rb1       1.0  0.48900  0.95000  0.25000  1.0000
  Rb  Rb2       1.0  0.01070  0.45000  0.25000  1.0000
  Rb  Rb3       1.0  0.98900  0.55000  0.75000  1.0000
  Rb  Rb4       1.0  0.51100  0.04960  0.75000  1.0000
  Y   Y1        1.0  0.00000  0.00000  0.00000  1.0000
  Y   Y2        1.0  0.50000  0.50000  0.50000  1.0000
