data_image0
_chemical_formula_structural       Al2Li2O12Si4
_chemical_formula_sum              "Al2 Li2 O12 Si4"
_cell_length_a       5.21298
_cell_length_b       6.31213
_cell_length_c       6.31213
_cell_angle_alpha    97.0157
_cell_angle_beta     104.929
_cell_angle_gamma    75.071

_space_group_name_H-M_alt    "P 1"
_space_group_IT_number       1

loop_
  _space_group_symop_operation_xyz
  'x, y, z'

loop_
  _atom_site_type_symbol
  _atom_site_label
  _atom_site_symmetry_multiplicity
  _atom_site_fract_x
  _atom_site_fract_y
  _atom_site_fract_z
  _atom_site_occupancy
  Al  Al1       1.0  0.75000  0.09130  0.09130  1.0000
  Al  Al2       1.0  0.25000  0.90900  0.90900  1.0000
  Li  Li1       1.0  0.25000  0.27600  0.27600  1.0000
  Li  Li2       1.0  0.75000  0.72400  0.72400  1.0000
  O   O1        1.0  0.64200  0.80700  0.02420  1.0000
  O   O2        1.0  0.80100  0.36600  0.09300  1.0000
  O   O3        1.0  0.14200  0.97600  0.19300  1.0000
  O   O4        1.0  0.06190  0.62600  0.34500  1.0000
  O   O5        1.0  0.69900  0.09300  0.36600  1.0000
  O   O6        1.0  0.56200  0.65500  0.37400  1.0000
  O   O7        1.0  0.43800  0.34500  0.62600  1.0000
  O   O8        1.0  0.30100  0.90700  0.63400  1.0000
  O   O9        1.0  0.93800  0.37400  0.65500  1.0000
  O   O10       1.0  0.85800  0.02420  0.80700  1.0000
  O   O11       1.0  0.19900  0.63400  0.90700  1.0000
  O   O12       1.0  0.35800  0.19300  0.97600  1.0000
  Si  Si1       1.0  0.75700  0.61100  0.20000  1.0000
  Si  Si2       1.0  0.25700  0.80000  0.38900  1.0000
  Si  Si3       1.0  0.74300  0.20000  0.61100  1.0000
  Si  Si4       1.0  0.24300  0.38900  0.80000  1.0000
