data_image0
_chemical_formula_structural       Cl8Cs6Np2O4
_chemical_formula_sum              "Cl8 Cs6 Np2 O4"
_cell_length_a       7.35479
_cell_length_b       8.58959
_cell_length_c       12.1813
_cell_angle_alpha    90.6939
_cell_angle_beta     107.571
_cell_angle_gamma    115.348

_space_group_name_H-M_alt    "P 1"
_space_group_IT_number       1

loop_
  _space_group_symop_operation_xyz
  'x, y, z'

loop_
  _atom_site_type_symbol
  _atom_site_label
  _atom_site_symmetry_multiplicity
  _atom_site_fract_x
  _atom_site_fract_y
  _atom_site_fract_z
  _atom_site_occupancy
  Cl  Cl1       1.0  0.77300  0.85800  0.04830  1.0000
  Cl  Cl2       1.0  0.83900  0.43900  0.13200  1.0000
  Cl  Cl3       1.0  0.76800  0.06090  0.36800  1.0000
  Cl  Cl4       1.0  0.36700  0.64200  0.45200  1.0000
  Cl  Cl5       1.0  0.63300  0.35800  0.54800  1.0000
  Cl  Cl6       1.0  0.23200  0.93900  0.63200  1.0000
  Cl  Cl7       1.0  0.16100  0.56100  0.86800  1.0000
  Cl  Cl8       1.0  0.22700  0.14200  0.95200  1.0000
  Cs  Cs1       1.0  0.29200  0.82800  0.13000  1.0000
  Cs  Cs2       1.0  0.16400  0.25000  0.25000  1.0000
  Cs  Cs3       1.0  0.83400  0.67200  0.37000  1.0000
  Cs  Cs4       1.0  0.16600  0.32800  0.63000  1.0000
  Cs  Cs5       1.0  0.83600  0.75000  0.75000  1.0000
  Cs  Cs6       1.0  0.70800  0.17200  0.87000  1.0000
  Np  Np1       1.0  0.50000  0.50000  0.00000  1.0000
  Np  Np2       1.0  0.50000  1.00000  0.50000  1.0000
  O   O1        1.0  0.43900  0.52600  0.13300  1.0000
  O   O2        1.0  0.28000  0.97400  0.36700  1.0000
  O   O3        1.0  0.72000  0.02560  0.63300  1.0000
  O   O4        1.0  0.56100  0.47400  0.86700  1.0000
