data_image0
_chemical_formula_structural       Ag2Bi2P4S12
_chemical_formula_sum              "Ag2 Bi2 P4 S12"
_cell_length_a       6.47254
_cell_length_b       7.33781
_cell_length_c       9.82147
_cell_angle_alpha    93.7091
_cell_angle_beta     90.7798
_cell_angle_gamma    95.8079

_space_group_name_H-M_alt    "P 1"
_space_group_IT_number       1

loop_
  _space_group_symop_operation_xyz
  'x, y, z'

loop_
  _atom_site_type_symbol
  _atom_site_label
  _atom_site_symmetry_multiplicity
  _atom_site_fract_x
  _atom_site_fract_y
  _atom_site_fract_z
  _atom_site_occupancy
  Ag  Ag1       1.0  0.06410  0.00747  0.30600  1.0000
  Ag  Ag2       1.0  0.93600  0.99300  0.69400  1.0000
  Bi  Bi1       1.0  0.47000  0.63200  0.22600  1.0000
  Bi  Bi2       1.0  0.53000  0.36800  0.77400  1.0000
  P   P1        1.0  0.94500  0.60800  0.07270  1.0000
  P   P2        1.0  0.56000  0.11700  0.43700  1.0000
  P   P3        1.0  0.44000  0.88300  0.56300  1.0000
  P   P4        1.0  0.05510  0.39200  0.92700  1.0000
  S   S1        1.0  0.30900  0.30400  0.02180  1.0000
  S   S2        1.0  0.18400  0.81500  0.08280  1.0000
  S   S3        1.0  0.87400  0.49200  0.24800  1.0000
  S   S4        1.0  0.67300  0.99000  0.26100  1.0000
  S   S5        1.0  0.32300  0.26800  0.40300  1.0000
  S   S6        1.0  0.20600  0.73900  0.45000  1.0000
  S   S7        1.0  0.79400  0.26100  0.55000  1.0000
  S   S8        1.0  0.67700  0.73200  0.59700  1.0000
  S   S9        1.0  0.32700  0.01040  0.73900  1.0000
  S   S10       1.0  0.12600  0.50800  0.75200  1.0000
  S   S11       1.0  0.81600  0.18500  0.91700  1.0000
  S   S12       1.0  0.69100  0.69600  0.97800  1.0000
