data_image0
_chemical_formula_structural       C12Ce8
_chemical_formula_sum              "C12 Ce8"
_cell_length_a       7.59815
_cell_length_b       7.59815
_cell_length_c       7.59815
_cell_angle_alpha    109.471
_cell_angle_beta     109.471
_cell_angle_gamma    109.471

_space_group_name_H-M_alt    "P 1"
_space_group_IT_number       1

loop_
  _space_group_symop_operation_xyz
  'x, y, z'

loop_
  _atom_site_type_symbol
  _atom_site_label
  _atom_site_symmetry_multiplicity
  _atom_site_fract_x
  _atom_site_fract_y
  _atom_site_fract_z
  _atom_site_occupancy
  C   C1        1.0  0.25000  0.29900  0.04940  1.0000
  C   C2        1.0  0.25000  0.45100  0.20100  1.0000
  C   C3        1.0  0.04940  0.79900  0.25000  1.0000
  C   C4        1.0  0.20100  0.95100  0.25000  1.0000
  C   C5        1.0  0.75000  0.04940  0.29900  1.0000
  C   C6        1.0  0.75000  0.20100  0.45100  1.0000
  C   C7        1.0  0.79900  0.75000  0.54900  1.0000
  C   C8        1.0  0.95100  0.75000  0.70100  1.0000
  C   C9        1.0  0.29900  0.54900  0.75000  1.0000
  C   C10       1.0  0.45100  0.70100  0.75000  1.0000
  C   C11       1.0  0.54900  0.25000  0.79900  1.0000
  C   C12       1.0  0.70100  0.25000  0.95100  1.0000
  Ce  Ce1       1.0  0.39600  0.00000  0.00000  1.0000
  Ce  Ce2       1.0  0.89600  0.00000  0.00000  1.0000
  Ce  Ce3       1.0  0.60400  0.60400  0.10400  1.0000
  Ce  Ce4       1.0  0.00000  0.50000  0.39600  1.0000
  Ce  Ce5       1.0  0.50000  0.89600  0.50000  1.0000
  Ce  Ce6       1.0  0.50000  0.39600  0.50000  1.0000
  Ce  Ce7       1.0  0.10400  0.10400  0.60400  1.0000
  Ce  Ce8       1.0  0.00000  0.50000  0.89600  1.0000
