data_image0
_chemical_formula_structural       Au4Cs2F14
_chemical_formula_sum              "Au4 Cs2 F14"
_cell_length_a       7.03563
_cell_length_b       7.54743
_cell_length_c       7.54743
_cell_angle_alpha    94.2753
_cell_angle_beta     114.477
_cell_angle_gamma    65.5229

_space_group_name_H-M_alt    "P 1"
_space_group_IT_number       1

loop_
  _space_group_symop_operation_xyz
  'x, y, z'

loop_
  _atom_site_type_symbol
  _atom_site_label
  _atom_site_symmetry_multiplicity
  _atom_site_fract_x
  _atom_site_fract_y
  _atom_site_fract_z
  _atom_site_occupancy
  Au  Au1       1.0  0.35200  0.70200  0.08050  1.0000
  Au  Au2       1.0  0.85200  0.91900  0.29800  1.0000
  Au  Au3       1.0  0.14800  0.08050  0.70200  1.0000
  Au  Au4       1.0  0.64800  0.29800  0.91900  1.0000
  Cs  Cs1       1.0  0.25000  0.30400  0.30400  1.0000
  Cs  Cs2       1.0  0.75000  0.69600  0.69600  1.0000
  F   F1        1.0  0.74800  0.50600  0.02560  1.0000
  F   F2        1.0  0.95100  0.81700  0.09210  1.0000
  F   F3        1.0  0.45100  0.90800  0.18300  1.0000
  F   F4        1.0  0.75000  0.20100  0.20100  1.0000
  F   F5        1.0  0.45700  0.58900  0.34400  1.0000
  F   F6        1.0  0.95700  0.65600  0.41100  1.0000
  F   F7        1.0  0.24800  0.97400  0.49400  1.0000
  F   F8        1.0  0.75200  0.02560  0.50600  1.0000
  F   F9        1.0  0.04250  0.34400  0.58900  1.0000
  F   F10       1.0  0.54300  0.41100  0.65600  1.0000
  F   F11       1.0  0.25000  0.79900  0.79900  1.0000
  F   F12       1.0  0.54900  0.09220  0.81700  1.0000
  F   F13       1.0  0.04860  0.18300  0.90800  1.0000
  F   F14       1.0  0.25200  0.49400  0.97400  1.0000
