data_image0
_chemical_formula_structural       Br12Cr4In4
_chemical_formula_sum              "Br12 Cr4 In4"
_cell_length_a       4.18763
_cell_length_b       9.41394
_cell_length_c       14.9846
_cell_angle_alpha    90
_cell_angle_beta     90
_cell_angle_gamma    95.0702

_space_group_name_H-M_alt    "P 1"
_space_group_IT_number       1

loop_
  _space_group_symop_operation_xyz
  'x, y, z'

loop_
  _atom_site_type_symbol
  _atom_site_label
  _atom_site_symmetry_multiplicity
  _atom_site_fract_x
  _atom_site_fract_y
  _atom_site_fract_z
  _atom_site_occupancy
  Br  Br1       1.0  0.30100  0.17300  0.00647  1.0000
  Br  Br2       1.0  0.79700  0.46900  0.10100  1.0000
  Br  Br3       1.0  0.26000  0.77200  0.20200  1.0000
  Br  Br4       1.0  0.26000  0.27200  0.29800  1.0000
  Br  Br5       1.0  0.79700  0.96900  0.39900  1.0000
  Br  Br6       1.0  0.30100  0.67300  0.49400  1.0000
  Br  Br7       1.0  0.69900  0.32700  0.50600  1.0000
  Br  Br8       1.0  0.20300  0.03090  0.60100  1.0000
  Br  Br9       1.0  0.74000  0.72800  0.70200  1.0000
  Br  Br10      1.0  0.74000  0.22800  0.79800  1.0000
  Br  Br11      1.0  0.20300  0.53100  0.89900  1.0000
  Br  Br12      1.0  0.69900  0.82700  0.99400  1.0000
  Cr  Cr1       1.0  0.23400  0.66000  0.04990  1.0000
  Cr  Cr2       1.0  0.23400  0.16000  0.45000  1.0000
  Cr  Cr3       1.0  0.76600  0.84000  0.55000  1.0000
  Cr  Cr4       1.0  0.76600  0.34000  0.95000  1.0000
  In  In1       1.0  0.76000  0.04410  0.16900  1.0000
  In  In2       1.0  0.76000  0.54400  0.33100  1.0000
  In  In3       1.0  0.24000  0.45600  0.66900  1.0000
  In  In4       1.0  0.24000  0.95600  0.83100  1.0000
