data_image0
_chemical_formula_structural       Ce14Ru6
_chemical_formula_sum              "Ce14 Ru6"
_cell_length_a       10.2373
_cell_length_b       10.2366
_cell_length_c       6.45086
_cell_angle_alpha    90
_cell_angle_beta     90
_cell_angle_gamma    120.002

_space_group_name_H-M_alt    "P 1"
_space_group_IT_number       1

loop_
  _space_group_symop_operation_xyz
  'x, y, z'

loop_
  _atom_site_type_symbol
  _atom_site_label
  _atom_site_symmetry_multiplicity
  _atom_site_fract_x
  _atom_site_fract_y
  _atom_site_fract_z
  _atom_site_occupancy
  Ce  Ce1       1.0  0.33300  0.66700  0.01440  1.0000
  Ce  Ce2       1.0  0.54100  0.08210  0.04900  1.0000
  Ce  Ce3       1.0  0.54100  0.45900  0.04900  1.0000
  Ce  Ce4       1.0  0.91800  0.45900  0.04900  1.0000
  Ce  Ce5       1.0  0.12500  0.25100  0.24000  1.0000
  Ce  Ce6       1.0  0.12500  0.87500  0.24000  1.0000
  Ce  Ce7       1.0  0.74900  0.87500  0.24000  1.0000
  Ce  Ce8       1.0  0.66700  0.33300  0.51400  1.0000
  Ce  Ce9       1.0  0.45900  0.91800  0.54900  1.0000
  Ce  Ce10      1.0  0.08210  0.54100  0.54900  1.0000
  Ce  Ce11      1.0  0.45900  0.54100  0.54900  1.0000
  Ce  Ce12      1.0  0.87500  0.74900  0.74000  1.0000
  Ce  Ce13      1.0  0.25100  0.12500  0.74000  1.0000
  Ce  Ce14      1.0  0.87500  0.12500  0.74000  1.0000
  Ru  Ru1       1.0  0.81500  0.62900  0.29900  1.0000
  Ru  Ru2       1.0  0.37100  0.18500  0.29900  1.0000
  Ru  Ru3       1.0  0.81500  0.18500  0.29900  1.0000
  Ru  Ru4       1.0  0.18500  0.37100  0.79900  1.0000
  Ru  Ru5       1.0  0.18500  0.81500  0.79900  1.0000
  Ru  Ru6       1.0  0.62900  0.81500  0.79900  1.0000
