data_image0
_chemical_formula_structural       Cs4Ga4Se12
_chemical_formula_sum              "Cs4 Ga4 Se12"
_cell_length_a       7.92299
_cell_length_b       13.2459
_cell_length_c       6.87596
_cell_angle_alpha    90
_cell_angle_beta     106.384
_cell_angle_gamma    90

_space_group_name_H-M_alt    "P 1"
_space_group_IT_number       1

loop_
  _space_group_symop_operation_xyz
  'x, y, z'

loop_
  _atom_site_type_symbol
  _atom_site_label
  _atom_site_symmetry_multiplicity
  _atom_site_fract_x
  _atom_site_fract_y
  _atom_site_fract_z
  _atom_site_occupancy
  Cs  Cs1       1.0  0.74700  0.41900  0.21500  1.0000
  Cs  Cs2       1.0  0.25300  0.91900  0.28500  1.0000
  Cs  Cs3       1.0  0.74700  0.08070  0.71500  1.0000
  Cs  Cs4       1.0  0.25300  0.58100  0.78500  1.0000
  Ga  Ga1       1.0  0.18300  0.27200  0.14300  1.0000
  Ga  Ga2       1.0  0.81700  0.77200  0.35700  1.0000
  Ga  Ga3       1.0  0.18300  0.22800  0.64300  1.0000
  Ga  Ga4       1.0  0.81700  0.72800  0.85700  1.0000
  Se  Se1       1.0  0.44600  0.17500  0.13700  1.0000
  Se  Se2       1.0  0.70600  0.92200  0.15300  1.0000
  Se  Se3       1.0  0.99500  0.67400  0.18700  1.0000
  Se  Se4       1.0  0.00453  0.17400  0.31300  1.0000
  Se  Se5       1.0  0.29400  0.42200  0.34700  1.0000
  Se  Se6       1.0  0.55400  0.67500  0.36300  1.0000
  Se  Se7       1.0  0.44600  0.32500  0.63700  1.0000
  Se  Se8       1.0  0.70600  0.57800  0.65300  1.0000
  Se  Se9       1.0  0.99500  0.82600  0.68700  1.0000
  Se  Se10      1.0  0.00453  0.32600  0.81300  1.0000
  Se  Se11      1.0  0.29400  0.07750  0.84700  1.0000
  Se  Se12      1.0  0.55400  0.82500  0.86300  1.0000
