data_image0
_chemical_formula_structural       Fe6Th14
_chemical_formula_sum              "Fe6 Th14"
_cell_length_a       9.65719
_cell_length_b       9.65705
_cell_length_c       6.22382
_cell_angle_alpha    90
_cell_angle_beta     90
_cell_angle_gamma    120.001

_space_group_name_H-M_alt    "P 1"
_space_group_IT_number       1

loop_
  _space_group_symop_operation_xyz
  'x, y, z'

loop_
  _atom_site_type_symbol
  _atom_site_label
  _atom_site_symmetry_multiplicity
  _atom_site_fract_x
  _atom_site_fract_y
  _atom_site_fract_z
  _atom_site_occupancy
  Fe  Fe1       1.0  0.81500  0.63000  0.30100  1.0000
  Fe  Fe2       1.0  0.37000  0.18500  0.30100  1.0000
  Fe  Fe3       1.0  0.81500  0.18500  0.30100  1.0000
  Fe  Fe4       1.0  0.18500  0.37000  0.80100  1.0000
  Fe  Fe5       1.0  0.18500  0.81500  0.80100  1.0000
  Fe  Fe6       1.0  0.63000  0.81500  0.80100  1.0000
  Th  Th1       1.0  0.33300  0.66700  0.03810  1.0000
  Th  Th2       1.0  0.54200  0.08470  0.06200  1.0000
  Th  Th3       1.0  0.54200  0.45800  0.06210  1.0000
  Th  Th4       1.0  0.91500  0.45800  0.06210  1.0000
  Th  Th5       1.0  0.12500  0.25000  0.25400  1.0000
  Th  Th6       1.0  0.12500  0.87500  0.25400  1.0000
  Th  Th7       1.0  0.75000  0.87500  0.25400  1.0000
  Th  Th8       1.0  0.66700  0.33300  0.53800  1.0000
  Th  Th9       1.0  0.45800  0.91500  0.56200  1.0000
  Th  Th10      1.0  0.08470  0.54200  0.56200  1.0000
  Th  Th11      1.0  0.45800  0.54200  0.56200  1.0000
  Th  Th12      1.0  0.87500  0.75000  0.75400  1.0000
  Th  Th13      1.0  0.25000  0.12500  0.75400  1.0000
  Th  Th14      1.0  0.87500  0.12500  0.75400  1.0000
