data_image0
_chemical_formula_structural       C8K2N8Tl2
_chemical_formula_sum              "C8 K2 N8 Tl2"
_cell_length_a       8.99028
_cell_length_b       7.38751
_cell_length_c       7.38751
_cell_angle_alpha    90
_cell_angle_beta     114.259
_cell_angle_gamma    114.259

_space_group_name_H-M_alt    "P 1"
_space_group_IT_number       1

loop_
  _space_group_symop_operation_xyz
  'x, y, z'

loop_
  _atom_site_type_symbol
  _atom_site_label
  _atom_site_symmetry_multiplicity
  _atom_site_fract_x
  _atom_site_fract_y
  _atom_site_fract_z
  _atom_site_occupancy
  C   C1        1.0  0.92300  0.77100  0.06210  1.0000
  C   C2        1.0  0.42300  0.06210  0.15100  1.0000
  C   C3        1.0  0.57700  0.63900  0.22900  1.0000
  C   C4        1.0  0.92300  0.15100  0.36100  1.0000
  C   C5        1.0  0.07740  0.84900  0.63900  1.0000
  C   C6        1.0  0.42300  0.36100  0.77100  1.0000
  C   C7        1.0  0.57700  0.93800  0.84900  1.0000
  C   C8        1.0  0.07740  0.22900  0.93800  1.0000
  K   K1        1.0  0.25000  0.62500  0.37500  1.0000
  K   K2        1.0  0.75000  0.37500  0.62500  1.0000
  N   N1        1.0  0.01790  0.71900  0.03150  1.0000
  N   N2        1.0  0.48200  0.51400  0.28100  1.0000
  N   N3        1.0  0.51800  0.03150  0.29900  1.0000
  N   N4        1.0  0.01790  0.29900  0.48600  1.0000
  N   N5        1.0  0.98200  0.70100  0.51400  1.0000
  N   N6        1.0  0.48200  0.96800  0.70100  1.0000
  N   N7        1.0  0.51800  0.48600  0.71900  1.0000
  N   N8        1.0  0.98200  0.28100  0.96800  1.0000
  Tl  Tl1       1.0  0.75000  0.87500  0.12500  1.0000
  Tl  Tl2       1.0  0.25000  0.12500  0.87500  1.0000
