data_image0
_chemical_formula_structural       Ag2Cd4O8
_chemical_formula_sum              "Ag2 Cd4 O8"
_cell_length_a       6.54211
_cell_length_b       6.54211
_cell_length_c       6.54211
_cell_angle_alpha    119.994
_cell_angle_beta     90.0106
_cell_angle_gamma    119.994

_space_group_name_H-M_alt    "P 1"
_space_group_IT_number       1

loop_
  _space_group_symop_operation_xyz
  'x, y, z'

loop_
  _atom_site_type_symbol
  _atom_site_label
  _atom_site_symmetry_multiplicity
  _atom_site_fract_x
  _atom_site_fract_y
  _atom_site_fract_z
  _atom_site_occupancy
  Ag  Ag1       1.0  0.00000  0.00000  0.00000  1.0000
  Ag  Ag2       1.0  0.75000  0.50000  0.25000  1.0000
  Cd  Cd1       1.0  0.37500  0.75000  0.12500  1.0000
  Cd  Cd2       1.0  0.87500  0.25000  0.62500  1.0000
  Cd  Cd3       1.0  0.37500  0.25000  0.62500  1.0000
  Cd  Cd4       1.0  0.37500  0.75000  0.62500  1.0000
  O   O1        1.0  0.61900  0.23800  0.38100  1.0000
  O   O2        1.0  0.14400  0.76200  0.38100  1.0000
  O   O3        1.0  0.61900  0.76200  0.38100  1.0000
  O   O4        1.0  0.13100  0.26200  0.39400  1.0000
  O   O5        1.0  0.61900  0.23800  0.85600  1.0000
  O   O6        1.0  0.13100  0.73800  0.86900  1.0000
  O   O7        1.0  0.13100  0.26200  0.86900  1.0000
  O   O8        1.0  0.60600  0.73800  0.86900  1.0000
