data_image0
_chemical_formula_structural       Ca2Mn2O12Si4
_chemical_formula_sum              "Ca2 Mn2 O12 Si4"
_cell_length_a       5.25328
_cell_length_b       6.68044
_cell_length_c       6.68044
_cell_angle_alpha    96.0618
_cell_angle_beta     100.465
_cell_angle_gamma    79.5346

_space_group_name_H-M_alt    "P 1"
_space_group_IT_number       1

loop_
  _space_group_symop_operation_xyz
  'x, y, z'

loop_
  _atom_site_type_symbol
  _atom_site_label
  _atom_site_symmetry_multiplicity
  _atom_site_fract_x
  _atom_site_fract_y
  _atom_site_fract_z
  _atom_site_occupancy
  Ca  Ca1       1.0  0.75000  0.30700  0.30700  1.0000
  Ca  Ca2       1.0  0.25000  0.69300  0.69300  1.0000
  Mn  Mn1       1.0  0.25000  0.09280  0.09280  1.0000
  Mn  Mn2       1.0  0.75000  0.90700  0.90700  1.0000
  O   O1        1.0  0.15400  0.78400  0.02430  1.0000
  O   O2        1.0  0.33700  0.38900  0.11600  1.0000
  O   O3        1.0  0.65400  0.97600  0.21600  1.0000
  O   O4        1.0  0.98700  0.62400  0.32300  1.0000
  O   O5        1.0  0.48700  0.67700  0.37600  1.0000
  O   O6        1.0  0.16300  0.11600  0.38900  1.0000
  O   O7        1.0  0.83700  0.88400  0.61100  1.0000
  O   O8        1.0  0.51300  0.32300  0.62400  1.0000
  O   O9        1.0  0.01290  0.37600  0.67700  1.0000
  O   O10       1.0  0.34600  0.02430  0.78400  1.0000
  O   O11       1.0  0.66300  0.61100  0.88400  1.0000
  O   O12       1.0  0.84600  0.21600  0.97600  1.0000
  Si  Si1       1.0  0.23400  0.61900  0.19300  1.0000
  Si  Si2       1.0  0.73400  0.80700  0.38100  1.0000
  Si  Si3       1.0  0.26600  0.19300  0.61900  1.0000
  Si  Si4       1.0  0.76600  0.38100  0.80700  1.0000
