data_image0
_chemical_formula_structural       Ir4Mn12Si4
_chemical_formula_sum              "Ir4 Mn12 Si4"
_cell_length_a       6.3254
_cell_length_b       6.3254
_cell_length_c       6.3254
_cell_angle_alpha    90
_cell_angle_beta     90
_cell_angle_gamma    90

_space_group_name_H-M_alt    "P 1"
_space_group_IT_number       1

loop_
  _space_group_symop_operation_xyz
  'x, y, z'

loop_
  _atom_site_type_symbol
  _atom_site_label
  _atom_site_symmetry_multiplicity
  _atom_site_fract_x
  _atom_site_fract_y
  _atom_site_fract_z
  _atom_site_occupancy
  Ir  Ir1       1.0  0.81200  0.31200  0.18800  1.0000
  Ir  Ir2       1.0  0.18800  0.81200  0.31200  1.0000
  Ir  Ir3       1.0  0.68800  0.68800  0.68800  1.0000
  Ir  Ir4       1.0  0.31200  0.18800  0.81200  1.0000
  Mn  Mn1       1.0  0.86900  0.71200  0.04940  1.0000
  Mn  Mn2       1.0  0.21200  0.45100  0.13100  1.0000
  Mn  Mn3       1.0  0.45100  0.13100  0.21200  1.0000
  Mn  Mn4       1.0  0.54900  0.63100  0.28800  1.0000
  Mn  Mn5       1.0  0.78800  0.95100  0.36900  1.0000
  Mn  Mn6       1.0  0.13100  0.21200  0.45100  1.0000
  Mn  Mn7       1.0  0.63100  0.28800  0.54900  1.0000
  Mn  Mn8       1.0  0.28800  0.54900  0.63100  1.0000
  Mn  Mn9       1.0  0.04940  0.86900  0.71200  1.0000
  Mn  Mn10      1.0  0.95100  0.36900  0.78800  1.0000
  Mn  Mn11      1.0  0.71200  0.04940  0.86900  1.0000
  Mn  Mn12      1.0  0.36900  0.78800  0.95100  1.0000
  Si  Si1       1.0  0.05890  0.05890  0.05890  1.0000
  Si  Si2       1.0  0.94100  0.55900  0.44100  1.0000
  Si  Si3       1.0  0.44100  0.94100  0.55900  1.0000
  Si  Si4       1.0  0.55900  0.44100  0.94100  1.0000
