data_image0
_chemical_formula_structural       Ag2In2P4S12
_chemical_formula_sum              "Ag2 In2 P4 S12"
_cell_length_a       6.23784
_cell_length_b       6.23785
_cell_length_c       13.5243
_cell_angle_alpha    90.001
_cell_angle_beta     89.9995
_cell_angle_gamma    120

_space_group_name_H-M_alt    "P 1"
_space_group_IT_number       1

loop_
  _space_group_symop_operation_xyz
  'x, y, z'

loop_
  _atom_site_type_symbol
  _atom_site_label
  _atom_site_symmetry_multiplicity
  _atom_site_fract_x
  _atom_site_fract_y
  _atom_site_fract_z
  _atom_site_occupancy
  Ag  Ag1       1.0  0.66700  0.33300  0.25000  1.0000
  Ag  Ag2       1.0  0.33300  0.66700  0.75000  1.0000
  In  In1       1.0  0.00001  0.00001  0.25000  1.0000
  In  In2       1.0  0.99999  0.99999  0.75000  1.0000
  P   P1        1.0  0.33300  0.66700  0.16600  1.0000
  P   P2        1.0  0.33300  0.66700  0.33400  1.0000
  P   P3        1.0  0.66700  0.33300  0.66600  1.0000
  P   P4        1.0  0.66700  0.33300  0.83400  1.0000
  S   S1        1.0  0.31700  0.34500  0.12400  1.0000
  S   S2        1.0  0.02780  0.68300  0.12400  1.0000
  S   S3        1.0  0.65500  0.97200  0.12400  1.0000
  S   S4        1.0  0.65500  0.68300  0.37600  1.0000
  S   S5        1.0  0.02780  0.34500  0.37600  1.0000
  S   S6        1.0  0.31700  0.97200  0.37600  1.0000
  S   S7        1.0  0.68300  0.02780  0.62400  1.0000
  S   S8        1.0  0.97200  0.65500  0.62400  1.0000
  S   S9        1.0  0.34500  0.31700  0.62400  1.0000
  S   S10       1.0  0.34500  0.02780  0.87600  1.0000
  S   S11       1.0  0.97200  0.31700  0.87600  1.0000
  S   S12       1.0  0.68300  0.65500  0.87600  1.0000
