data_image0
_chemical_formula_structural       Ca4N4O8Ta4
_chemical_formula_sum              "Ca4 N4 O8 Ta4"
_cell_length_a       7.79133
_cell_length_b       5.54793
_cell_length_c       5.66423
_cell_angle_alpha    90
_cell_angle_beta     90
_cell_angle_gamma    90

_space_group_name_H-M_alt    "P 1"
_space_group_IT_number       1

loop_
  _space_group_symop_operation_xyz
  'x, y, z'

loop_
  _atom_site_type_symbol
  _atom_site_label
  _atom_site_symmetry_multiplicity
  _atom_site_fract_x
  _atom_site_fract_y
  _atom_site_fract_z
  _atom_site_occupancy
  Ca  Ca1       1.0  0.00000  0.73300  0.04020  1.0000
  Ca  Ca2       1.0  0.50000  0.24200  0.45000  1.0000
  Ca  Ca3       1.0  0.00000  0.26700  0.54000  1.0000
  Ca  Ca4       1.0  0.50000  0.75800  0.95000  1.0000
  N   N1        1.0  0.29700  0.96300  0.21400  1.0000
  N   N2        1.0  0.70300  0.96300  0.21400  1.0000
  N   N3        1.0  0.29700  0.03730  0.71400  1.0000
  N   N4        1.0  0.70300  0.03730  0.71400  1.0000
  O   O1        1.0  0.50000  0.35100  0.03040  1.0000
  O   O2        1.0  0.20100  0.46000  0.29500  1.0000
  O   O3        1.0  0.79900  0.46000  0.29500  1.0000
  O   O4        1.0  0.00000  0.83200  0.47900  1.0000
  O   O5        1.0  0.50000  0.64900  0.53000  1.0000
  O   O6        1.0  0.20100  0.54000  0.79500  1.0000
  O   O7        1.0  0.79900  0.54000  0.79500  1.0000
  O   O8        1.0  0.00000  0.16800  0.97900  1.0000
  Ta  Ta1       1.0  0.25400  0.76500  0.49100  1.0000
  Ta  Ta2       1.0  0.74600  0.76500  0.49100  1.0000
  Ta  Ta3       1.0  0.25400  0.23500  0.99100  1.0000
  Ta  Ta4       1.0  0.74600  0.23500  0.99100  1.0000
