data_image0
_chemical_formula_structural       As4B8Cl8
_chemical_formula_sum              "As4 B8 Cl8"
_cell_length_a       7.12939
_cell_length_b       7.40911
_cell_length_c       11.0812
_cell_angle_alpha    99.297
_cell_angle_beta     99.925
_cell_angle_gamma    117.806

_space_group_name_H-M_alt    "P 1"
_space_group_IT_number       1

loop_
  _space_group_symop_operation_xyz
  'x, y, z'

loop_
  _atom_site_type_symbol
  _atom_site_label
  _atom_site_symmetry_multiplicity
  _atom_site_fract_x
  _atom_site_fract_y
  _atom_site_fract_z
  _atom_site_occupancy
  As  As1       1.0  0.23700  0.34400  0.20300  1.0000
  As  As2       1.0  0.08950  0.54200  0.31600  1.0000
  As  As3       1.0  0.91000  0.45800  0.68400  1.0000
  As  As4       1.0  0.76300  0.65600  0.79700  1.0000
  B   B1        1.0  0.89300  0.26900  0.14900  1.0000
  B   B2        1.0  0.93900  0.08750  0.21300  1.0000
  B   B3        1.0  0.83800  0.22200  0.29200  1.0000
  B   B4        1.0  0.10300  0.27200  0.36300  1.0000
  B   B5        1.0  0.89700  0.72800  0.63700  1.0000
  B   B6        1.0  0.16200  0.77800  0.70800  1.0000
  B   B7        1.0  0.06090  0.91300  0.78700  1.0000
  B   B8        1.0  0.10700  0.73100  0.85100  1.0000
  Cl  Cl1       1.0  0.73600  0.25300  0.00286  1.0000
  Cl  Cl2       1.0  0.83600  0.81400  0.15300  1.0000
  Cl  Cl3       1.0  0.59700  0.13500  0.34300  1.0000
  Cl  Cl4       1.0  0.77000  0.74000  0.49000  1.0000
  Cl  Cl5       1.0  0.23000  0.26000  0.51000  1.0000
  Cl  Cl6       1.0  0.40300  0.86500  0.65700  1.0000
  Cl  Cl7       1.0  0.16400  0.18600  0.84700  1.0000
  Cl  Cl8       1.0  0.26400  0.74700  0.99700  1.0000
