data_image0
_chemical_formula_structural       Bi2K2P4Se12
_chemical_formula_sum              "Bi2 K2 P4 Se12"
_cell_length_a       7.07227
_cell_length_b       7.81366
_cell_length_c       10.4241
_cell_angle_alpha    90
_cell_angle_beta     91.6415
_cell_angle_gamma    90

_space_group_name_H-M_alt    "P 1"
_space_group_IT_number       1

loop_
  _space_group_symop_operation_xyz
  'x, y, z'

loop_
  _atom_site_type_symbol
  _atom_site_label
  _atom_site_symmetry_multiplicity
  _atom_site_fract_x
  _atom_site_fract_y
  _atom_site_fract_z
  _atom_site_occupancy
  Bi  Bi1       1.0  0.20800  0.21300  0.01730  1.0000
  Bi  Bi2       1.0  0.79200  0.71300  0.98300  1.0000
  K   K1        1.0  0.69800  0.95700  0.49900  1.0000
  K   K2        1.0  0.30200  0.45700  0.50100  1.0000
  P   P1        1.0  0.30800  0.75000  0.17400  1.0000
  P   P2        1.0  0.20300  0.97000  0.29800  1.0000
  P   P3        1.0  0.79700  0.47000  0.70200  1.0000
  P   P4        1.0  0.69200  0.25000  0.82600  1.0000
  Se  Se1       1.0  0.64900  0.37100  0.02050  1.0000
  Se  Se2       1.0  0.07570  0.55600  0.17300  1.0000
  Se  Se3       1.0  0.94300  0.05660  0.18700  1.0000
  Se  Se4       1.0  0.57500  0.65500  0.25800  1.0000
  Se  Se5       1.0  0.41600  0.17300  0.27000  1.0000
  Se  Se6       1.0  0.17300  0.88500  0.49300  1.0000
  Se  Se7       1.0  0.82700  0.38500  0.50700  1.0000
  Se  Se8       1.0  0.58400  0.67300  0.73000  1.0000
  Se  Se9       1.0  0.42500  0.15500  0.74200  1.0000
  Se  Se10      1.0  0.05680  0.55700  0.81300  1.0000
  Se  Se11      1.0  0.92400  0.05630  0.82700  1.0000
  Se  Se12      1.0  0.35100  0.87100  0.97900  1.0000
