data_image0
_chemical_formula_structural       Ca2Ir2O12Sr4
_chemical_formula_sum              "Ca2 Ir2 O12 Sr4"
_cell_length_a       5.77903
_cell_length_b       5.82456
_cell_length_c       8.1632
_cell_angle_alpha    90
_cell_angle_beta     90.7411
_cell_angle_gamma    90

_space_group_name_H-M_alt    "P 1"
_space_group_IT_number       1

loop_
  _space_group_symop_operation_xyz
  'x, y, z'

loop_
  _atom_site_type_symbol
  _atom_site_label
  _atom_site_symmetry_multiplicity
  _atom_site_fract_x
  _atom_site_fract_y
  _atom_site_fract_z
  _atom_site_occupancy
  Ca  Ca1       1.0  0.50000  0.00000  1.00000  1.0000
  Ca  Ca2       1.0  1.00000  0.50000  0.50000  1.0000
  Ir  Ir1       1.0  0.00000  0.50000  0.00000  1.0000
  Ir  Ir2       1.0  0.50000  0.00000  0.50000  1.0000
  O   O1        1.0  0.26100  0.29600  0.04300  1.0000
  O   O2        1.0  0.19900  0.76300  0.05090  1.0000
  O   O3        1.0  0.91500  0.47700  0.22900  1.0000
  O   O4        1.0  0.58500  0.97700  0.27100  1.0000
  O   O5        1.0  0.30100  0.26300  0.44900  1.0000
  O   O6        1.0  0.23900  0.79600  0.45700  1.0000
  O   O7        1.0  0.76100  0.20400  0.54300  1.0000
  O   O8        1.0  0.69900  0.73700  0.55100  1.0000
  O   O9        1.0  0.41500  0.02340  0.72900  1.0000
  O   O10       1.0  0.08460  0.52300  0.77100  1.0000
  O   O11       1.0  0.80100  0.23700  0.94900  1.0000
  O   O12       1.0  0.73900  0.70400  0.95700  1.0000
  Sr  Sr1       1.0  0.48900  0.53100  0.24800  1.0000
  Sr  Sr2       1.0  0.01060  0.03120  0.25200  1.0000
  Sr  Sr3       1.0  0.98900  0.96900  0.74800  1.0000
  Sr  Sr4       1.0  0.51100  0.46900  0.75200  1.0000
