data_image0
_chemical_formula_structural       Hg4O12Se4
_chemical_formula_sum              "Hg4 O12 Se4"
_cell_length_a       6.15221
_cell_length_b       8.19488
_cell_length_c       5.82995
_cell_angle_alpha    90
_cell_angle_beta     90
_cell_angle_gamma    90

_space_group_name_H-M_alt    "P 1"
_space_group_IT_number       1

loop_
  _space_group_symop_operation_xyz
  'x, y, z'

loop_
  _atom_site_type_symbol
  _atom_site_label
  _atom_site_symmetry_multiplicity
  _atom_site_fract_x
  _atom_site_fract_y
  _atom_site_fract_z
  _atom_site_occupancy
  Hg  Hg1       1.0  0.00000  0.00000  0.00000  1.0000
  Hg  Hg2       1.0  0.00000  0.50000  0.00000  1.0000
  Hg  Hg3       1.0  0.50000  0.00000  0.50000  1.0000
  Hg  Hg4       1.0  0.50000  0.50000  0.50000  1.0000
  O   O1        1.0  0.31300  0.58600  0.12600  1.0000
  O   O2        1.0  0.31300  0.91400  0.12600  1.0000
  O   O3        1.0  0.13400  0.25000  0.22800  1.0000
  O   O4        1.0  0.63400  0.25000  0.27200  1.0000
  O   O5        1.0  0.81300  0.58600  0.37400  1.0000
  O   O6        1.0  0.81300  0.91400  0.37400  1.0000
  O   O7        1.0  0.18700  0.08560  0.62600  1.0000
  O   O8        1.0  0.18700  0.41400  0.62600  1.0000
  O   O9        1.0  0.36600  0.75000  0.72800  1.0000
  O   O10       1.0  0.86600  0.75000  0.77200  1.0000
  O   O11       1.0  0.68700  0.08560  0.87400  1.0000
  O   O12       1.0  0.68700  0.41400  0.87400  1.0000
  Se  Se1       1.0  0.45600  0.75000  0.00405  1.0000
  Se  Se2       1.0  0.95600  0.75000  0.49600  1.0000
  Se  Se3       1.0  0.04400  0.25000  0.50400  1.0000
  Se  Se4       1.0  0.54400  0.25000  0.99600  1.0000
