data_image0
_chemical_formula_structural       Ge12Ru8
_chemical_formula_sum              "Ge12 Ru8"
_cell_length_a       5.77998
_cell_length_b       5.77998
_cell_length_c       9.34919
_cell_angle_alpha    90
_cell_angle_beta     90
_cell_angle_gamma    90

_space_group_name_H-M_alt    "P 1"
_space_group_IT_number       1

loop_
  _space_group_symop_operation_xyz
  'x, y, z'

loop_
  _atom_site_type_symbol
  _atom_site_label
  _atom_site_symmetry_multiplicity
  _atom_site_fract_x
  _atom_site_fract_y
  _atom_site_fract_z
  _atom_site_occupancy
  Ge  Ge1       1.0  0.21800  0.35000  0.08520  1.0000
  Ge  Ge2       1.0  0.78200  0.65000  0.08520  1.0000
  Ge  Ge3       1.0  0.82700  0.17300  0.25000  1.0000
  Ge  Ge4       1.0  0.17300  0.82700  0.25000  1.0000
  Ge  Ge5       1.0  0.35000  0.21800  0.41500  1.0000
  Ge  Ge6       1.0  0.65000  0.78200  0.41500  1.0000
  Ge  Ge7       1.0  0.78200  0.35000  0.58500  1.0000
  Ge  Ge8       1.0  0.21800  0.65000  0.58500  1.0000
  Ge  Ge9       1.0  0.17300  0.17300  0.75000  1.0000
  Ge  Ge10      1.0  0.82700  0.82700  0.75000  1.0000
  Ge  Ge11      1.0  0.65000  0.21800  0.91500  1.0000
  Ge  Ge12      1.0  0.35000  0.78200  0.91500  1.0000
  Ru  Ru1       1.0  0.00000  0.00000  0.00000  1.0000
  Ru  Ru2       1.0  0.50000  0.00000  0.12400  1.0000
  Ru  Ru3       1.0  0.50000  0.50000  0.25000  1.0000
  Ru  Ru4       1.0  0.00000  0.50000  0.37600  1.0000
  Ru  Ru5       1.0  0.00000  0.00000  0.50000  1.0000
  Ru  Ru6       1.0  0.50000  0.00000  0.62400  1.0000
  Ru  Ru7       1.0  0.50000  0.50000  0.75000  1.0000
  Ru  Ru8       1.0  0.00000  0.50000  0.87600  1.0000
