data_image0
_chemical_formula_structural       F8K4N4O4
_chemical_formula_sum              "F8 K4 N4 O4"
_cell_length_a       6.07734
_cell_length_b       5.58483
_cell_length_c       8.18858
_cell_angle_alpha    90
_cell_angle_beta     90
_cell_angle_gamma    90

_space_group_name_H-M_alt    "P 1"
_space_group_IT_number       1

loop_
  _space_group_symop_operation_xyz
  'x, y, z'

loop_
  _atom_site_type_symbol
  _atom_site_label
  _atom_site_symmetry_multiplicity
  _atom_site_fract_x
  _atom_site_fract_y
  _atom_site_fract_z
  _atom_site_occupancy
  F   F1        1.0  0.33600  0.50300  0.16400  1.0000
  F   F2        1.0  0.33600  0.99700  0.16400  1.0000
  F   F3        1.0  0.83600  0.50300  0.33600  1.0000
  F   F4        1.0  0.83600  0.99700  0.33600  1.0000
  F   F5        1.0  0.16400  0.00322  0.66400  1.0000
  F   F6        1.0  0.16400  0.49700  0.66400  1.0000
  F   F7        1.0  0.66400  0.00322  0.83600  1.0000
  F   F8        1.0  0.66400  0.49700  0.83600  1.0000
  K   K1        1.0  0.67500  0.25000  0.10100  1.0000
  K   K2        1.0  0.17500  0.25000  0.39900  1.0000
  K   K3        1.0  0.82500  0.75000  0.60100  1.0000
  K   K4        1.0  0.32500  0.75000  0.89900  1.0000
  N   N1        1.0  0.98000  0.75000  0.22000  1.0000
  N   N2        1.0  0.48000  0.75000  0.28000  1.0000
  N   N3        1.0  0.52000  0.25000  0.72000  1.0000
  N   N4        1.0  0.02050  0.25000  0.78000  1.0000
  O   O1        1.0  0.90800  0.75000  0.09000  1.0000
  O   O2        1.0  0.40800  0.75000  0.41000  1.0000
  O   O3        1.0  0.59200  0.25000  0.59000  1.0000
  O   O4        1.0  0.09220  0.25000  0.91000  1.0000
