data_image0
_chemical_formula_structural       Dy2Pr2S12Yb4
_chemical_formula_sum              "Dy2 Pr2 S12 Yb4"
_cell_length_a       10.9722
_cell_length_b       4.11864
_cell_length_c       11.4606
_cell_angle_alpha    90
_cell_angle_beta     105.123
_cell_angle_gamma    90

_space_group_name_H-M_alt    "P 1"
_space_group_IT_number       1

loop_
  _space_group_symop_operation_xyz
  'x, y, z'

loop_
  _atom_site_type_symbol
  _atom_site_label
  _atom_site_symmetry_multiplicity
  _atom_site_fract_x
  _atom_site_fract_y
  _atom_site_fract_z
  _atom_site_occupancy
  Dy  Dy1       1.0  0.16900  0.25000  0.03210  1.0000
  Dy  Dy2       1.0  0.83100  0.75000  0.96800  1.0000
  Pr  Pr1       1.0  0.52600  0.25000  0.18000  1.0000
  Pr  Pr2       1.0  0.47400  0.75000  0.82000  1.0000
  S   S1        1.0  0.37100  0.75000  0.03170  1.0000
  S   S2        1.0  0.95000  0.25000  0.10400  1.0000
  S   S3        1.0  0.30200  0.25000  0.25900  1.0000
  S   S4        1.0  0.72300  0.75000  0.27100  1.0000
  S   S5        1.0  0.59700  0.75000  0.38300  1.0000
  S   S6        1.0  0.09690  0.75000  0.42900  1.0000
  S   S7        1.0  0.90300  0.25000  0.57100  1.0000
  S   S8        1.0  0.40300  0.25000  0.61700  1.0000
  S   S9        1.0  0.27700  0.25000  0.72900  1.0000
  S   S10       1.0  0.69800  0.75000  0.74100  1.0000
  S   S11       1.0  0.05020  0.75000  0.89600  1.0000
  S   S12       1.0  0.62900  0.25000  0.96800  1.0000
  Yb  Yb1       1.0  0.94600  0.25000  0.35000  1.0000
  Yb  Yb2       1.0  0.32400  0.75000  0.41400  1.0000
  Yb  Yb3       1.0  0.67600  0.25000  0.58600  1.0000
  Yb  Yb4       1.0  0.05420  0.75000  0.65000  1.0000
