data_image0
_chemical_formula_structural       Cs4Dy4I12
_chemical_formula_sum              "Cs4 Dy4 I12"
_cell_length_a       8.52008
_cell_length_b       8.61369
_cell_length_c       12.1831
_cell_angle_alpha    90
_cell_angle_beta     90
_cell_angle_gamma    90

_space_group_name_H-M_alt    "P 1"
_space_group_IT_number       1

loop_
  _space_group_symop_operation_xyz
  'x, y, z'

loop_
  _atom_site_type_symbol
  _atom_site_label
  _atom_site_symmetry_multiplicity
  _atom_site_fract_x
  _atom_site_fract_y
  _atom_site_fract_z
  _atom_site_occupancy
  Cs  Cs1       1.0  0.51400  0.46900  0.25000  1.0000
  Cs  Cs2       1.0  0.98600  0.96900  0.25000  1.0000
  Cs  Cs3       1.0  0.01410  0.03140  0.75000  1.0000
  Cs  Cs4       1.0  0.48600  0.53100  0.75000  1.0000
  Dy  Dy1       1.0  0.50000  0.00000  0.00000  1.0000
  Dy  Dy2       1.0  0.00000  0.50000  0.00000  1.0000
  Dy  Dy3       1.0  0.50000  0.00000  0.50000  1.0000
  Dy  Dy4       1.0  0.00000  0.50000  0.50000  1.0000
  I   I1        1.0  0.77500  0.22500  0.01170  1.0000
  I   I2        1.0  0.72500  0.72500  0.01170  1.0000
  I   I3        1.0  0.02470  0.49900  0.25000  1.0000
  I   I4        1.0  0.47500  0.99900  0.25000  1.0000
  I   I5        1.0  0.77500  0.22500  0.48800  1.0000
  I   I6        1.0  0.72500  0.72500  0.48800  1.0000
  I   I7        1.0  0.27500  0.27500  0.51200  1.0000
  I   I8        1.0  0.22500  0.77500  0.51200  1.0000
  I   I9        1.0  0.52500  0.00146  0.75000  1.0000
  I   I10       1.0  0.97500  0.50100  0.75000  1.0000
  I   I11       1.0  0.27500  0.27500  0.98800  1.0000
  I   I12       1.0  0.22500  0.77500  0.98800  1.0000
