data_image0
_chemical_formula_structural       Cr4F8O8
_chemical_formula_sum              "Cr4 F8 O8"
_cell_length_a       5.42211
_cell_length_b       4.66056
_cell_length_c       8.77764
_cell_angle_alpha    90
_cell_angle_beta     93.0579
_cell_angle_gamma    90

_space_group_name_H-M_alt    "P 1"
_space_group_IT_number       1

loop_
  _space_group_symop_operation_xyz
  'x, y, z'

loop_
  _atom_site_type_symbol
  _atom_site_label
  _atom_site_symmetry_multiplicity
  _atom_site_fract_x
  _atom_site_fract_y
  _atom_site_fract_z
  _atom_site_occupancy
  Cr  Cr1       1.0  0.30400  0.55500  0.12600  1.0000
  Cr  Cr2       1.0  0.69600  0.05540  0.37400  1.0000
  Cr  Cr3       1.0  0.30400  0.94500  0.62600  1.0000
  Cr  Cr4       1.0  0.69600  0.44500  0.87400  1.0000
  F   F1        1.0  0.66400  0.64800  0.05120  1.0000
  F   F2        1.0  0.55200  0.18400  0.19800  1.0000
  F   F3        1.0  0.44800  0.68400  0.30200  1.0000
  F   F4        1.0  0.33600  0.14800  0.44900  1.0000
  F   F5        1.0  0.66400  0.85200  0.55100  1.0000
  F   F6        1.0  0.55200  0.31600  0.69800  1.0000
  F   F7        1.0  0.44800  0.81600  0.80200  1.0000
  F   F8        1.0  0.33600  0.35200  0.94900  1.0000
  O   O1        1.0  0.18400  0.83900  0.05870  1.0000
  O   O2        1.0  0.08210  0.37800  0.18800  1.0000
  O   O3        1.0  0.91800  0.87800  0.31200  1.0000
  O   O4        1.0  0.81600  0.33900  0.44100  1.0000
  O   O5        1.0  0.18400  0.66100  0.55900  1.0000
  O   O6        1.0  0.08210  0.12200  0.68800  1.0000
  O   O7        1.0  0.91800  0.62200  0.81200  1.0000
  O   O8        1.0  0.81600  0.16100  0.94100  1.0000
