data_image0
_chemical_formula_structural       Br9Nb2S4Tl5
_chemical_formula_sum              "Br9 Nb2 S4 Tl5"
_cell_length_a       7.37276
_cell_length_b       10.3347
_cell_length_c       10.294
_cell_angle_alpha    120.131
_cell_angle_beta     110.984
_cell_angle_gamma    90

_space_group_name_H-M_alt    "P 1"
_space_group_IT_number       1

loop_
  _space_group_symop_operation_xyz
  'x, y, z'

loop_
  _atom_site_type_symbol
  _atom_site_label
  _atom_site_symmetry_multiplicity
  _atom_site_fract_x
  _atom_site_fract_y
  _atom_site_fract_z
  _atom_site_occupancy
  Br  Br1       1.0  0.00000  0.50000  0.00000  1.0000
  Br  Br2       1.0  0.63400  0.39600  0.26800  1.0000
  Br  Br3       1.0  0.63400  0.87200  0.26800  1.0000
  Br  Br4       1.0  0.46600  0.21300  0.42700  1.0000
  Br  Br5       1.0  0.96000  0.21300  0.42700  1.0000
  Br  Br6       1.0  0.03960  0.78700  0.57300  1.0000
  Br  Br7       1.0  0.53400  0.78700  0.57300  1.0000
  Br  Br8       1.0  0.36600  0.12800  0.73200  1.0000
  Br  Br9       1.0  0.36600  0.60400  0.73200  1.0000
  Nb  Nb1       1.0  0.59000  0.08980  0.18000  1.0000
  Nb  Nb2       1.0  0.41000  0.91000  0.82000  1.0000
  S   S1        1.0  0.25800  0.09780  0.00000  1.0000
  S   S2        1.0  0.74200  0.09780  0.00000  1.0000
  S   S3        1.0  0.25800  0.90200  0.00000  1.0000
  S   S4        1.0  0.74200  0.90200  0.00000  1.0000
  Tl  Tl1       1.0  0.50000  0.50000  0.00000  1.0000
  Tl  Tl2       1.0  0.16500  0.44700  0.33000  1.0000
  Tl  Tl3       1.0  0.16500  0.88200  0.33000  1.0000
  Tl  Tl4       1.0  0.83500  0.11800  0.67000  1.0000
  Tl  Tl5       1.0  0.83500  0.55300  0.67000  1.0000
