data_image0
_chemical_formula_structural       As2Cl2F16
_chemical_formula_sum              "As2 Cl2 F16"
_cell_length_a       5.15162
_cell_length_b       5.15162
_cell_length_c       9.5673
_cell_angle_alpha    73.9902
_cell_angle_beta     106.01
_cell_angle_gamma    90.9114

_space_group_name_H-M_alt    "P 1"
_space_group_IT_number       1

loop_
  _space_group_symop_operation_xyz
  'x, y, z'

loop_
  _atom_site_type_symbol
  _atom_site_label
  _atom_site_symmetry_multiplicity
  _atom_site_fract_x
  _atom_site_fract_y
  _atom_site_fract_z
  _atom_site_occupancy
  As  As1       1.0  0.99991  0.00000  0.99993  1.0000
  As  As2       1.0  0.50000  0.50000  0.50000  1.0000
  Cl  Cl1       1.0  0.89700  0.39700  0.25000  1.0000
  Cl  Cl2       1.0  0.10300  0.60300  0.75000  1.0000
  F   F1        1.0  0.18600  0.69300  0.04470  1.0000
  F   F2        1.0  0.80700  0.84100  0.12700  1.0000
  F   F3        1.0  0.23200  0.08630  0.14800  1.0000
  F   F4        1.0  0.58900  0.40600  0.15600  1.0000
  F   F5        1.0  0.90600  0.08910  0.34400  1.0000
  F   F6        1.0  0.58600  0.73100  0.35300  1.0000
  F   F7        1.0  0.34100  0.30700  0.37300  1.0000
  F   F8        1.0  0.19300  0.68600  0.45500  1.0000
  F   F9        1.0  0.80700  0.31400  0.54500  1.0000
  F   F10       1.0  0.65900  0.69300  0.62700  1.0000
  F   F11       1.0  0.41400  0.26800  0.64800  1.0000
  F   F12       1.0  0.09430  0.91100  0.65600  1.0000
  F   F13       1.0  0.41100  0.59400  0.84400  1.0000
  F   F14       1.0  0.76900  0.91400  0.85300  1.0000
  F   F15       1.0  0.19300  0.15900  0.87300  1.0000
  F   F16       1.0  0.81400  0.30700  0.95500  1.0000
