data_image0
_chemical_formula_structural       Cl6Rh2Te12
_chemical_formula_sum              "Cl6 Rh2 Te12"
_cell_length_a       9.13848
_cell_length_b       9.13848
_cell_length_c       9.13848
_cell_angle_alpha    107.738
_cell_angle_beta     107.738
_cell_angle_gamma    107.738

_space_group_name_H-M_alt    "P 1"
_space_group_IT_number       1

loop_
  _space_group_symop_operation_xyz
  'x, y, z'

loop_
  _atom_site_type_symbol
  _atom_site_label
  _atom_site_symmetry_multiplicity
  _atom_site_fract_x
  _atom_site_fract_y
  _atom_site_fract_z
  _atom_site_occupancy
  Cl  Cl1       1.0  0.48700  0.75000  0.01280  1.0000
  Cl  Cl2       1.0  0.98700  0.51300  0.25000  1.0000
  Cl  Cl3       1.0  0.75000  0.01280  0.48700  1.0000
  Cl  Cl4       1.0  0.25000  0.98700  0.51300  1.0000
  Cl  Cl5       1.0  0.01280  0.48700  0.75000  1.0000
  Cl  Cl6       1.0  0.51300  0.25000  0.98700  1.0000
  Rh  Rh1       1.0  0.25000  0.25000  0.25000  1.0000
  Rh  Rh2       1.0  0.75000  0.75000  0.75000  1.0000
  Te  Te1       1.0  0.82600  0.81100  0.07780  1.0000
  Te  Te2       1.0  0.18900  0.92200  0.17400  1.0000
  Te  Te3       1.0  0.92200  0.17400  0.18900  1.0000
  Te  Te4       1.0  0.32600  0.57800  0.31100  1.0000
  Te  Te5       1.0  0.57800  0.31100  0.32600  1.0000
  Te  Te6       1.0  0.68900  0.67400  0.42200  1.0000
  Te  Te7       1.0  0.31100  0.32600  0.57800  1.0000
  Te  Te8       1.0  0.42200  0.68900  0.67400  1.0000
  Te  Te9       1.0  0.67400  0.42200  0.68900  1.0000
  Te  Te10      1.0  0.07780  0.82600  0.81100  1.0000
  Te  Te11      1.0  0.81100  0.07780  0.82600  1.0000
  Te  Te12      1.0  0.17400  0.18900  0.92200  1.0000
