data_image0
_chemical_formula_structural       Au6Eu14
_chemical_formula_sum              "Au6 Eu14"
_cell_length_a       10.6362
_cell_length_b       10.6361
_cell_length_c       6.72193
_cell_angle_alpha    90
_cell_angle_beta     90
_cell_angle_gamma    120

_space_group_name_H-M_alt    "P 1"
_space_group_IT_number       1

loop_
  _space_group_symop_operation_xyz
  'x, y, z'

loop_
  _atom_site_type_symbol
  _atom_site_label
  _atom_site_symmetry_multiplicity
  _atom_site_fract_x
  _atom_site_fract_y
  _atom_site_fract_z
  _atom_site_occupancy
  Au  Au1       1.0  0.81100  0.62300  0.31400  1.0000
  Au  Au2       1.0  0.37700  0.18900  0.31400  1.0000
  Au  Au3       1.0  0.81100  0.18900  0.31400  1.0000
  Au  Au4       1.0  0.18900  0.37700  0.81400  1.0000
  Au  Au5       1.0  0.18900  0.81100  0.81400  1.0000
  Au  Au6       1.0  0.62300  0.81100  0.81400  1.0000
  Eu  Eu1       1.0  0.33300  0.66700  0.02630  1.0000
  Eu  Eu2       1.0  0.54100  0.08270  0.04690  1.0000
  Eu  Eu3       1.0  0.54100  0.45900  0.04690  1.0000
  Eu  Eu4       1.0  0.91700  0.45900  0.04690  1.0000
  Eu  Eu5       1.0  0.12400  0.87600  0.24400  1.0000
  Eu  Eu6       1.0  0.75100  0.87600  0.24400  1.0000
  Eu  Eu7       1.0  0.12400  0.24900  0.24400  1.0000
  Eu  Eu8       1.0  0.66700  0.33300  0.52600  1.0000
  Eu  Eu9       1.0  0.08270  0.54100  0.54700  1.0000
  Eu  Eu10      1.0  0.45900  0.54100  0.54700  1.0000
  Eu  Eu11      1.0  0.45900  0.91700  0.54700  1.0000
  Eu  Eu12      1.0  0.24900  0.12400  0.74400  1.0000
  Eu  Eu13      1.0  0.87600  0.12400  0.74400  1.0000
  Eu  Eu14      1.0  0.87600  0.75100  0.74400  1.0000
