data_image0
_chemical_formula_structural       Cl2F16Sb2
_chemical_formula_sum              "Cl2 F16 Sb2"
_cell_length_a       5.25484
_cell_length_b       9.73759
_cell_length_c       4.77501
_cell_angle_alpha    95.0074
_cell_angle_beta     88.4418
_cell_angle_gamma    88.6687

_space_group_name_H-M_alt    "P 1"
_space_group_IT_number       1

loop_
  _space_group_symop_operation_xyz
  'x, y, z'

loop_
  _atom_site_type_symbol
  _atom_site_label
  _atom_site_symmetry_multiplicity
  _atom_site_fract_x
  _atom_site_fract_y
  _atom_site_fract_z
  _atom_site_occupancy
  Cl  Cl1       1.0  0.59200  0.25000  0.44100  1.0000
  Cl  Cl2       1.0  0.40800  0.75000  0.55900  1.0000
  F   F1        1.0  0.78000  0.35600  0.11700  1.0000
  F   F2        1.0  0.28700  0.40300  0.11800  1.0000
  F   F3        1.0  0.67000  0.06740  0.16100  1.0000
  F   F4        1.0  0.16100  0.14900  0.19400  1.0000
  F   F5        1.0  0.04570  0.89000  0.30200  1.0000
  F   F6        1.0  0.54100  0.84400  0.34000  1.0000
  F   F7        1.0  0.96100  0.60600  0.35200  1.0000
  F   F8        1.0  0.46200  0.60700  0.37300  1.0000
  F   F9        1.0  0.53800  0.39300  0.62700  1.0000
  F   F10       1.0  0.03910  0.39400  0.64800  1.0000
  F   F11       1.0  0.45900  0.15600  0.66000  1.0000
  F   F12       1.0  0.95400  0.11000  0.69800  1.0000
  F   F13       1.0  0.83900  0.85100  0.80600  1.0000
  F   F14       1.0  0.33000  0.93300  0.83900  1.0000
  F   F15       1.0  0.71300  0.59700  0.88200  1.0000
  F   F16       1.0  0.22000  0.64400  0.88300  1.0000
  Sb  Sb1       1.0  0.00000  0.00000  0.00000  1.0000
  Sb  Sb2       1.0  1.00000  0.50000  1.00000  1.0000
