data_image0
_chemical_formula_structural       Bi10Ce4Rh6
_chemical_formula_sum              "Bi10 Ce4 Rh6"
_cell_length_a       4.70688
_cell_length_b       7.72417
_cell_length_c       13.9613
_cell_angle_alpha    90
_cell_angle_beta     80.2953
_cell_angle_gamma    90

_space_group_name_H-M_alt    "P 1"
_space_group_IT_number       1

loop_
  _space_group_symop_operation_xyz
  'x, y, z'

loop_
  _atom_site_type_symbol
  _atom_site_label
  _atom_site_symmetry_multiplicity
  _atom_site_fract_x
  _atom_site_fract_y
  _atom_site_fract_z
  _atom_site_occupancy
  Bi  Bi1       1.0  0.95400  0.40900  0.09240  1.0000
  Bi  Bi2       1.0  0.40400  0.11400  0.19200  1.0000
  Bi  Bi3       1.0  0.87800  0.74600  0.24400  1.0000
  Bi  Bi4       1.0  0.29700  0.56600  0.40600  1.0000
  Bi  Bi5       1.0  0.28700  0.98900  0.42600  1.0000
  Bi  Bi6       1.0  0.71300  0.48900  0.57400  1.0000
  Bi  Bi7       1.0  0.70300  0.06630  0.59400  1.0000
  Bi  Bi8       1.0  0.12200  0.24600  0.75600  1.0000
  Bi  Bi9       1.0  0.59600  0.61400  0.80800  1.0000
  Bi  Bi10      1.0  0.04620  0.90900  0.90800  1.0000
  Ce  Ce1       1.0  0.47500  0.74100  0.05030  1.0000
  Ce  Ce2       1.0  0.83000  0.26700  0.34000  1.0000
  Ce  Ce3       1.0  0.17000  0.76700  0.66000  1.0000
  Ce  Ce4       1.0  0.52500  0.24100  0.95000  1.0000
  Rh  Rh1       1.0  0.94900  0.02950  0.10200  1.0000
  Rh  Rh2       1.0  0.39600  0.48600  0.20700  1.0000
  Rh  Rh3       1.0  0.77200  0.78700  0.45700  1.0000
  Rh  Rh4       1.0  0.22800  0.28700  0.54300  1.0000
  Rh  Rh5       1.0  0.60400  0.98600  0.79300  1.0000
  Rh  Rh6       1.0  0.05110  0.53000  0.89800  1.0000
