data_image0
_chemical_formula_structural       Ba4In8P8
_chemical_formula_sum              "Ba4 In8 P8"
_cell_length_a       10.1254
_cell_length_b       4.24055
_cell_length_c       13.1982
_cell_angle_alpha    90
_cell_angle_beta     94.7504
_cell_angle_gamma    90

_space_group_name_H-M_alt    "P 1"
_space_group_IT_number       1

loop_
  _space_group_symop_operation_xyz
  'x, y, z'

loop_
  _atom_site_type_symbol
  _atom_site_label
  _atom_site_symmetry_multiplicity
  _atom_site_fract_x
  _atom_site_fract_y
  _atom_site_fract_z
  _atom_site_occupancy
  Ba  Ba1       1.0  0.44600  0.75000  0.15500  1.0000
  Ba  Ba2       1.0  0.15900  0.25000  0.40800  1.0000
  Ba  Ba3       1.0  0.84100  0.75000  0.59200  1.0000
  Ba  Ba4       1.0  0.55400  0.25000  0.84500  1.0000
  In  In1       1.0  0.81300  0.75000  0.03330  1.0000
  In  In2       1.0  0.04540  0.75000  0.16400  1.0000
  In  In3       1.0  0.77300  0.25000  0.28200  1.0000
  In  In4       1.0  0.55200  0.25000  0.40500  1.0000
  In  In5       1.0  0.44800  0.75000  0.59500  1.0000
  In  In6       1.0  0.22700  0.75000  0.71800  1.0000
  In  In7       1.0  0.95500  0.25000  0.83600  1.0000
  In  In8       1.0  0.18700  0.25000  0.96700  1.0000
  P   P1        1.0  0.67600  0.25000  0.08940  1.0000
  P   P2        1.0  0.20300  0.25000  0.16600  1.0000
  P   P3        1.0  0.92200  0.75000  0.33800  1.0000
  P   P4        1.0  0.39100  0.75000  0.39500  1.0000
  P   P5        1.0  0.60900  0.25000  0.60500  1.0000
  P   P6        1.0  0.07810  0.25000  0.66200  1.0000
  P   P7        1.0  0.79700  0.75000  0.83400  1.0000
  P   P8        1.0  0.32400  0.75000  0.91100  1.0000
