data_image0
_chemical_formula_structural       Ge4O4Yb12
_chemical_formula_sum              "Ge4 O4 Yb12"
_cell_length_a       6.56138
_cell_length_b       6.54122
_cell_length_c       9.26345
_cell_angle_alpha    90
_cell_angle_beta     90
_cell_angle_gamma    90

_space_group_name_H-M_alt    "P 1"
_space_group_IT_number       1

loop_
  _space_group_symop_operation_xyz
  'x, y, z'

loop_
  _atom_site_type_symbol
  _atom_site_label
  _atom_site_symmetry_multiplicity
  _atom_site_fract_x
  _atom_site_fract_y
  _atom_site_fract_z
  _atom_site_occupancy
  Ge  Ge1       1.0  0.50100  0.49400  0.25000  1.0000
  Ge  Ge2       1.0  0.99900  0.99400  0.25000  1.0000
  Ge  Ge3       1.0  0.00074  0.00578  0.75000  1.0000
  Ge  Ge4       1.0  0.49900  0.50600  0.75000  1.0000
  O   O1        1.0  0.50000  0.00000  0.00000  1.0000
  O   O2        1.0  0.00000  0.50000  0.00000  1.0000
  O   O3        1.0  0.50000  0.00000  0.50000  1.0000
  O   O4        1.0  0.00000  0.50000  0.50000  1.0000
  Yb  Yb1       1.0  0.76600  0.23400  0.01780  1.0000
  Yb  Yb2       1.0  0.73400  0.73400  0.01780  1.0000
  Yb  Yb3       1.0  0.46500  0.00169  0.25000  1.0000
  Yb  Yb4       1.0  0.03540  0.50200  0.25000  1.0000
  Yb  Yb5       1.0  0.76600  0.23400  0.48200  1.0000
  Yb  Yb6       1.0  0.73400  0.73400  0.48200  1.0000
  Yb  Yb7       1.0  0.26600  0.26600  0.51800  1.0000
  Yb  Yb8       1.0  0.23400  0.76600  0.51800  1.0000
  Yb  Yb9       1.0  0.96500  0.49800  0.75000  1.0000
  Yb  Yb10      1.0  0.53500  0.99800  0.75000  1.0000
  Yb  Yb11      1.0  0.26600  0.26600  0.98200  1.0000
  Yb  Yb12      1.0  0.23400  0.76600  0.98200  1.0000
