data_image0
_chemical_formula_structural       F4O12Tc4
_chemical_formula_sum              "F4 O12 Tc4"
_cell_length_a       5.5241
_cell_length_b       4.89357
_cell_length_c       9.11816
_cell_angle_alpha    90
_cell_angle_beta     94.1765
_cell_angle_gamma    90

_space_group_name_H-M_alt    "P 1"
_space_group_IT_number       1

loop_
  _space_group_symop_operation_xyz
  'x, y, z'

loop_
  _atom_site_type_symbol
  _atom_site_label
  _atom_site_symmetry_multiplicity
  _atom_site_fract_x
  _atom_site_fract_y
  _atom_site_fract_z
  _atom_site_occupancy
  F   F1        1.0  0.66600  0.64500  0.04900  1.0000
  F   F2        1.0  0.33400  0.14500  0.45100  1.0000
  F   F3        1.0  0.66600  0.85500  0.54900  1.0000
  F   F4        1.0  0.33400  0.35500  0.95100  1.0000
  O   O1        1.0  0.19800  0.84900  0.04780  1.0000
  O   O2        1.0  0.07220  0.40000  0.19500  1.0000
  O   O3        1.0  0.54500  0.21300  0.19900  1.0000
  O   O4        1.0  0.45500  0.71300  0.30100  1.0000
  O   O5        1.0  0.92800  0.90000  0.30500  1.0000
  O   O6        1.0  0.80200  0.34900  0.45200  1.0000
  O   O7        1.0  0.19800  0.65100  0.54800  1.0000
  O   O8        1.0  0.07220  0.10000  0.69500  1.0000
  O   O9        1.0  0.54500  0.28700  0.69900  1.0000
  O   O10       1.0  0.45500  0.78700  0.80100  1.0000
  O   O11       1.0  0.92800  0.60000  0.80500  1.0000
  O   O12       1.0  0.80200  0.15100  0.95200  1.0000
  Tc  Tc1       1.0  0.31500  0.57300  0.14000  1.0000
  Tc  Tc2       1.0  0.68500  0.07280  0.36000  1.0000
  Tc  Tc3       1.0  0.31500  0.92700  0.64000  1.0000
  Tc  Tc4       1.0  0.68500  0.42700  0.86000  1.0000
