data_image0
_chemical_formula_structural       Br9Cs5Nb2S4
_chemical_formula_sum              "Br9 Cs5 Nb2 S4"
_cell_length_a       7.67023
_cell_length_b       10.8351
_cell_length_c       10.8351
_cell_angle_alpha    102.491
_cell_angle_beta     110.729
_cell_angle_gamma    110.729

_space_group_name_H-M_alt    "P 1"
_space_group_IT_number       1

loop_
  _space_group_symop_operation_xyz
  'x, y, z'

loop_
  _atom_site_type_symbol
  _atom_site_label
  _atom_site_symmetry_multiplicity
  _atom_site_fract_x
  _atom_site_fract_y
  _atom_site_fract_z
  _atom_site_occupancy
  Br  Br1       1.0  0.24500  0.37200  0.11800  1.0000
  Br  Br2       1.0  0.24100  0.79500  0.20500  1.0000
  Br  Br3       1.0  0.75900  0.79500  0.20500  1.0000
  Br  Br4       1.0  0.24500  0.11800  0.37200  1.0000
  Br  Br5       1.0  1.00000  0.50000  0.50000  1.0000
  Br  Br6       1.0  0.75500  0.88200  0.62800  1.0000
  Br  Br7       1.0  0.24100  0.20500  0.79500  1.0000
  Br  Br8       1.0  0.75900  0.20500  0.79500  1.0000
  Br  Br9       1.0  0.75500  0.62800  0.88200  1.0000
  Cs  Cs1       1.0  0.77700  0.43700  0.11600  1.0000
  Cs  Cs2       1.0  0.77700  0.11600  0.43700  1.0000
  Cs  Cs3       1.0  0.50000  0.50000  0.50000  1.0000
  Cs  Cs4       1.0  0.22300  0.88400  0.56300  1.0000
  Cs  Cs5       1.0  0.22300  0.56300  0.88400  1.0000
  Nb  Nb1       1.0  1.00000  0.91300  0.08690  1.0000
  Nb  Nb2       1.0  1.00000  0.08690  0.91300  1.0000
  S   S1        1.0  0.32200  0.09040  0.09040  1.0000
  S   S2        1.0  0.85900  0.09040  0.09040  1.0000
  S   S3        1.0  0.14100  0.91000  0.91000  1.0000
  S   S4        1.0  0.67800  0.91000  0.91000  1.0000
