data_image0
_chemical_formula_structural       B8Ba4Ni8
_chemical_formula_sum              "B8 Ba4 Ni8"
_cell_length_a       11.3056
_cell_length_b       8.25196
_cell_length_c       3.23604
_cell_angle_alpha    90
_cell_angle_beta     90
_cell_angle_gamma    90

_space_group_name_H-M_alt    "P 1"
_space_group_IT_number       1

loop_
  _space_group_symop_operation_xyz
  'x, y, z'

loop_
  _atom_site_type_symbol
  _atom_site_label
  _atom_site_symmetry_multiplicity
  _atom_site_fract_x
  _atom_site_fract_y
  _atom_site_fract_z
  _atom_site_occupancy
  B   B1        1.0  0.81800  0.32400  0.00000  1.0000
  B   B2        1.0  0.93000  0.47600  0.00000  1.0000
  B   B3        1.0  0.07030  0.52400  0.00000  1.0000
  B   B4        1.0  0.18200  0.67600  0.00000  1.0000
  B   B5        1.0  0.43000  0.02420  0.50000  1.0000
  B   B6        1.0  0.31800  0.17600  0.50000  1.0000
  B   B7        1.0  0.68200  0.82400  0.50000  1.0000
  B   B8        1.0  0.57000  0.97600  0.50000  1.0000
  Ba  Ba1       1.0  0.06280  0.18000  0.00000  1.0000
  Ba  Ba2       1.0  0.93700  0.82000  0.00000  1.0000
  Ba  Ba3       1.0  0.56300  0.32000  0.50000  1.0000
  Ba  Ba4       1.0  0.43700  0.68000  0.50000  1.0000
  Ni  Ni1       1.0  0.32000  0.02550  0.00000  1.0000
  Ni  Ni2       1.0  0.29400  0.32600  0.00000  1.0000
  Ni  Ni3       1.0  0.70600  0.67400  0.00000  1.0000
  Ni  Ni4       1.0  0.68000  0.97500  0.00000  1.0000
  Ni  Ni5       1.0  0.79400  0.17400  0.50000  1.0000
  Ni  Ni6       1.0  0.82000  0.47500  0.50000  1.0000
  Ni  Ni7       1.0  0.18000  0.52500  0.50000  1.0000
  Ni  Ni8       1.0  0.20600  0.82600  0.50000  1.0000
