data_image0
_chemical_formula_structural       B8Ni8Sr4
_chemical_formula_sum              "B8 Ni8 Sr4"
_cell_length_a       13.267
_cell_length_b       6.30167
_cell_length_c       3.26994
_cell_angle_alpha    90
_cell_angle_beta     90
_cell_angle_gamma    90

_space_group_name_H-M_alt    "P 1"
_space_group_IT_number       1

loop_
  _space_group_symop_operation_xyz
  'x, y, z'

loop_
  _atom_site_type_symbol
  _atom_site_label
  _atom_site_symmetry_multiplicity
  _atom_site_fract_x
  _atom_site_fract_y
  _atom_site_fract_z
  _atom_site_occupancy
  B   B1        1.0  0.94600  0.43200  0.00000  1.0000
  B   B2        1.0  0.81000  0.44000  0.00000  1.0000
  B   B3        1.0  0.19000  0.56000  0.00000  1.0000
  B   B4        1.0  0.05400  0.56800  0.00000  1.0000
  B   B5        1.0  0.31000  0.06000  0.50000  1.0000
  B   B6        1.0  0.44600  0.06840  0.50000  1.0000
  B   B7        1.0  0.55400  0.93200  0.50000  1.0000
  B   B8        1.0  0.69000  0.94000  0.50000  1.0000
  Ni  Ni1       1.0  0.74100  0.12700  0.00000  1.0000
  Ni  Ni2       1.0  0.36900  0.19200  0.00000  1.0000
  Ni  Ni3       1.0  0.63100  0.80800  0.00000  1.0000
  Ni  Ni4       1.0  0.25900  0.87300  0.00000  1.0000
  Ni  Ni5       1.0  0.86900  0.30800  0.50000  1.0000
  Ni  Ni6       1.0  0.24100  0.37300  0.50000  1.0000
  Ni  Ni7       1.0  0.75900  0.62700  0.50000  1.0000
  Ni  Ni8       1.0  0.13100  0.69200  0.50000  1.0000
  Sr  Sr1       1.0  0.10200  0.14000  0.00000  1.0000
  Sr  Sr2       1.0  0.89800  0.86000  0.00000  1.0000
  Sr  Sr3       1.0  0.60200  0.36000  0.50000  1.0000
  Sr  Sr4       1.0  0.39800  0.64000  0.50000  1.0000
