data_image0
_chemical_formula_structural       I12Nb4Se4
_chemical_formula_sum              "I12 Nb4 Se4"
_cell_length_a       7.32276
_cell_length_b       8.23078
_cell_length_c       13.8156
_cell_angle_alpha    93.938
_cell_angle_beta     98.8811
_cell_angle_gamma    63.5869

_space_group_name_H-M_alt    "P 1"
_space_group_IT_number       1

loop_
  _space_group_symop_operation_xyz
  'x, y, z'

loop_
  _atom_site_type_symbol
  _atom_site_label
  _atom_site_symmetry_multiplicity
  _atom_site_fract_x
  _atom_site_fract_y
  _atom_site_fract_z
  _atom_site_occupancy
  I   I1        1.0  0.24700  0.80700  0.03340  1.0000
  I   I2        1.0  0.22600  0.28400  0.08970  1.0000
  I   I3        1.0  0.80200  0.90100  0.19400  1.0000
  I   I4        1.0  0.29800  0.90100  0.30600  1.0000
  I   I5        1.0  0.48900  0.28400  0.41000  1.0000
  I   I6        1.0  0.94500  0.80700  0.46700  1.0000
  I   I7        1.0  0.05450  0.19300  0.53300  1.0000
  I   I8        1.0  0.51100  0.71600  0.59000  1.0000
  I   I9        1.0  0.70200  0.09950  0.69400  1.0000
  I   I10       1.0  0.19800  0.09950  0.80600  1.0000
  I   I11       1.0  0.77400  0.71600  0.91000  1.0000
  I   I12       1.0  0.75300  0.19300  0.96700  1.0000
  Nb  Nb1       1.0  0.00724  0.12200  0.15600  1.0000
  Nb  Nb2       1.0  0.87100  0.12200  0.34400  1.0000
  Nb  Nb3       1.0  0.12900  0.87800  0.65600  1.0000
  Nb  Nb4       1.0  0.99300  0.87800  0.84400  1.0000
  Se  Se1       1.0  0.66300  0.37200  0.20500  1.0000
  Se  Se2       1.0  0.96400  0.37200  0.29500  1.0000
  Se  Se3       1.0  0.03580  0.62800  0.70500  1.0000
  Se  Se4       1.0  0.33700  0.62800  0.79500  1.0000
