data_image0
_chemical_formula_structural       Br4N4O12
_chemical_formula_sum              "Br4 N4 O12"
_cell_length_a       3.86693
_cell_length_b       6.53698
_cell_length_c       11.4126
_cell_angle_alpha    90
_cell_angle_beta     90
_cell_angle_gamma    90

_space_group_name_H-M_alt    "P 1"
_space_group_IT_number       1

loop_
  _space_group_symop_operation_xyz
  'x, y, z'

loop_
  _atom_site_type_symbol
  _atom_site_label
  _atom_site_symmetry_multiplicity
  _atom_site_fract_x
  _atom_site_fract_y
  _atom_site_fract_z
  _atom_site_occupancy
  Br  Br1       1.0  0.74800  0.52700  0.21700  1.0000
  Br  Br2       1.0  0.25200  0.02700  0.28300  1.0000
  Br  Br3       1.0  0.75200  0.47300  0.71700  1.0000
  Br  Br4       1.0  0.24800  0.97300  0.78300  1.0000
  N   N1        1.0  0.33100  0.01060  0.03760  1.0000
  N   N2        1.0  0.66900  0.51100  0.46200  1.0000
  N   N3        1.0  0.16900  0.98900  0.53800  1.0000
  N   N4        1.0  0.83100  0.48900  0.96200  1.0000
  O   O1        1.0  0.09810  0.88800  0.04410  1.0000
  O   O2        1.0  0.98100  0.43000  0.05760  1.0000
  O   O3        1.0  0.47000  0.10400  0.12900  1.0000
  O   O4        1.0  0.53000  0.60400  0.37100  1.0000
  O   O5        1.0  0.01910  0.93000  0.44200  1.0000
  O   O6        1.0  0.90200  0.38800  0.45600  1.0000
  O   O7        1.0  0.40200  0.11200  0.54400  1.0000
  O   O8        1.0  0.51900  0.57000  0.55800  1.0000
  O   O9        1.0  0.03040  0.89600  0.62900  1.0000
  O   O10       1.0  0.97000  0.39600  0.87100  1.0000
  O   O11       1.0  0.48100  0.07010  0.94200  1.0000
  O   O12       1.0  0.59800  0.61200  0.95600  1.0000
