data_image0
_chemical_formula_structural       Au4Cu12Sn4
_chemical_formula_sum              "Au4 Cu12 Sn4"
_cell_length_a       6.85368
_cell_length_b       6.85368
_cell_length_c       6.85368
_cell_angle_alpha    90
_cell_angle_beta     90
_cell_angle_gamma    90

_space_group_name_H-M_alt    "P 1"
_space_group_IT_number       1

loop_
  _space_group_symop_operation_xyz
  'x, y, z'

loop_
  _atom_site_type_symbol
  _atom_site_label
  _atom_site_symmetry_multiplicity
  _atom_site_fract_x
  _atom_site_fract_y
  _atom_site_fract_z
  _atom_site_occupancy
  Au  Au1       1.0  0.00907  0.00907  0.00907  1.0000
  Au  Au2       1.0  0.99100  0.50900  0.49100  1.0000
  Au  Au3       1.0  0.49100  0.99100  0.50900  1.0000
  Au  Au4       1.0  0.50900  0.49100  0.99100  1.0000
  Cu  Cu1       1.0  0.87500  0.64700  0.10400  1.0000
  Cu  Cu2       1.0  0.14700  0.39600  0.12500  1.0000
  Cu  Cu3       1.0  0.39600  0.12500  0.14700  1.0000
  Cu  Cu4       1.0  0.60400  0.62500  0.35300  1.0000
  Cu  Cu5       1.0  0.85300  0.89600  0.37500  1.0000
  Cu  Cu6       1.0  0.12500  0.14700  0.39600  1.0000
  Cu  Cu7       1.0  0.62500  0.35300  0.60400  1.0000
  Cu  Cu8       1.0  0.35300  0.60400  0.62500  1.0000
  Cu  Cu9       1.0  0.10400  0.87500  0.64700  1.0000
  Cu  Cu10      1.0  0.89600  0.37500  0.85300  1.0000
  Cu  Cu11      1.0  0.64700  0.10400  0.87500  1.0000
  Cu  Cu12      1.0  0.37500  0.85300  0.89600  1.0000
  Sn  Sn1       1.0  0.75600  0.25600  0.24400  1.0000
  Sn  Sn2       1.0  0.24400  0.75600  0.25600  1.0000
  Sn  Sn3       1.0  0.74400  0.74400  0.74400  1.0000
  Sn  Sn4       1.0  0.25600  0.24400  0.75600  1.0000
