data_image0
_chemical_formula_structural       I16Ta4
_chemical_formula_sum              "I16 Ta4"
_cell_length_a       7.47544
_cell_length_b       11.0079
_cell_length_c       11.1256
_cell_angle_alpha    81.1488
_cell_angle_beta     89.0099
_cell_angle_gamma    74.6804

_space_group_name_H-M_alt    "P 1"
_space_group_IT_number       1

loop_
  _space_group_symop_operation_xyz
  'x, y, z'

loop_
  _atom_site_type_symbol
  _atom_site_label
  _atom_site_symmetry_multiplicity
  _atom_site_fract_x
  _atom_site_fract_y
  _atom_site_fract_z
  _atom_site_occupancy
  I   I1        1.0  0.97200  0.31500  0.03750  1.0000
  I   I2        1.0  0.23000  0.94800  0.07220  1.0000
  I   I3        1.0  0.52900  0.24100  0.16900  1.0000
  I   I4        1.0  0.58300  0.56400  0.19400  1.0000
  I   I5        1.0  0.80000  0.88300  0.27900  1.0000
  I   I6        1.0  0.06610  0.45100  0.33300  1.0000
  I   I7        1.0  0.11200  0.10100  0.35300  1.0000
  I   I8        1.0  0.66100  0.29000  0.49500  1.0000
  I   I9        1.0  0.33900  0.71000  0.50500  1.0000
  I   I10       1.0  0.88800  0.89900  0.64700  1.0000
  I   I11       1.0  0.93400  0.54900  0.66700  1.0000
  I   I12       1.0  0.20000  0.11700  0.72100  1.0000
  I   I13       1.0  0.41700  0.43600  0.80600  1.0000
  I   I14       1.0  0.47100  0.75900  0.83100  1.0000
  I   I15       1.0  0.77000  0.05230  0.92800  1.0000
  I   I16       1.0  0.02800  0.68500  0.96200  1.0000
  Ta  Ta1       1.0  0.88700  0.09100  0.16300  1.0000
  Ta  Ta2       1.0  0.81200  0.32700  0.27800  1.0000
  Ta  Ta3       1.0  0.18800  0.67300  0.72200  1.0000
  Ta  Ta4       1.0  0.11300  0.90900  0.83700  1.0000
