data_image0
_chemical_formula_structural       F16Te4
_chemical_formula_sum              "F16 Te4"
_cell_length_a       4.88953
_cell_length_b       5.88836
_cell_length_c       8.84959
_cell_angle_alpha    90
_cell_angle_beta     90
_cell_angle_gamma    90

_space_group_name_H-M_alt    "P 1"
_space_group_IT_number       1

loop_
  _space_group_symop_operation_xyz
  'x, y, z'

loop_
  _atom_site_type_symbol
  _atom_site_label
  _atom_site_symmetry_multiplicity
  _atom_site_fract_x
  _atom_site_fract_y
  _atom_site_fract_z
  _atom_site_occupancy
  F   F1        1.0  0.00371  0.87300  0.04070  1.0000
  F   F2        1.0  0.20600  0.28800  0.05860  1.0000
  F   F3        1.0  0.86000  0.54600  0.20800  1.0000
  F   F4        1.0  0.62200  0.18100  0.25000  1.0000
  F   F5        1.0  0.37800  0.68100  0.25000  1.0000
  F   F6        1.0  0.14000  0.04580  0.29200  1.0000
  F   F7        1.0  0.79400  0.78800  0.44100  1.0000
  F   F8        1.0  0.99600  0.37300  0.45900  1.0000
  F   F9        1.0  0.49600  0.12700  0.54100  1.0000
  F   F10       1.0  0.29400  0.71200  0.55900  1.0000
  F   F11       1.0  0.64000  0.45400  0.70800  1.0000
  F   F12       1.0  0.87800  0.81900  0.75000  1.0000
  F   F13       1.0  0.12200  0.31900  0.75000  1.0000
  F   F14       1.0  0.36000  0.95400  0.79200  1.0000
  F   F15       1.0  0.70600  0.21200  0.94100  1.0000
  F   F16       1.0  0.50400  0.62700  0.95900  1.0000
  Te  Te1       1.0  0.34800  0.99500  0.11500  1.0000
  Te  Te2       1.0  0.65200  0.49500  0.38500  1.0000
  Te  Te3       1.0  0.15200  0.00515  0.61500  1.0000
  Te  Te4       1.0  0.84800  0.50500  0.88500  1.0000
