data_image0
_chemical_formula_structural       Ce14Rh6
_chemical_formula_sum              "Ce14 Rh6"
_cell_length_a       10.2444
_cell_length_b       10.2442
_cell_length_c       6.50749
_cell_angle_alpha    90
_cell_angle_beta     90
_cell_angle_gamma    120.001

_space_group_name_H-M_alt    "P 1"
_space_group_IT_number       1

loop_
  _space_group_symop_operation_xyz
  'x, y, z'

loop_
  _atom_site_type_symbol
  _atom_site_label
  _atom_site_symmetry_multiplicity
  _atom_site_fract_x
  _atom_site_fract_y
  _atom_site_fract_z
  _atom_site_occupancy
  Ce  Ce1       1.0  0.33300  0.66700  0.02880  1.0000
  Ce  Ce2       1.0  0.53900  0.07830  0.05190  1.0000
  Ce  Ce3       1.0  0.92200  0.46100  0.05190  1.0000
  Ce  Ce4       1.0  0.53900  0.46100  0.05190  1.0000
  Ce  Ce5       1.0  0.12500  0.25000  0.25100  1.0000
  Ce  Ce6       1.0  0.75000  0.87500  0.25100  1.0000
  Ce  Ce7       1.0  0.12500  0.87500  0.25100  1.0000
  Ce  Ce8       1.0  0.66700  0.33300  0.52900  1.0000
  Ce  Ce9       1.0  0.46100  0.92200  0.55200  1.0000
  Ce  Ce10      1.0  0.46100  0.53900  0.55200  1.0000
  Ce  Ce11      1.0  0.07830  0.53900  0.55200  1.0000
  Ce  Ce12      1.0  0.87500  0.75000  0.75100  1.0000
  Ce  Ce13      1.0  0.87500  0.12500  0.75100  1.0000
  Ce  Ce14      1.0  0.25000  0.12500  0.75100  1.0000
  Rh  Rh1       1.0  0.81100  0.62300  0.30100  1.0000
  Rh  Rh2       1.0  0.81100  0.18900  0.30100  1.0000
  Rh  Rh3       1.0  0.37700  0.18900  0.30100  1.0000
  Rh  Rh4       1.0  0.18900  0.37700  0.80100  1.0000
  Rh  Rh5       1.0  0.62300  0.81100  0.80100  1.0000
  Rh  Rh6       1.0  0.18900  0.81100  0.80100  1.0000
