data_image0
_chemical_formula_structural       C8Ce8W4
_chemical_formula_sum              "C8 Ce8 W4"
_cell_length_a       5.86168
_cell_length_b       5.86168
_cell_length_c       10.682
_cell_angle_alpha    90
_cell_angle_beta     90
_cell_angle_gamma    90

_space_group_name_H-M_alt    "P 1"
_space_group_IT_number       1

loop_
  _space_group_symop_operation_xyz
  'x, y, z'

loop_
  _atom_site_type_symbol
  _atom_site_label
  _atom_site_symmetry_multiplicity
  _atom_site_fract_x
  _atom_site_fract_y
  _atom_site_fract_z
  _atom_site_occupancy
  C   C1        1.0  0.50000  0.00000  0.00000  1.0000
  C   C2        1.0  0.00000  0.50000  0.00000  1.0000
  C   C3        1.0  0.00000  0.00000  0.13800  1.0000
  C   C4        1.0  0.50000  0.50000  0.36200  1.0000
  C   C5        1.0  0.50000  0.00000  0.50000  1.0000
  C   C6        1.0  0.00000  0.50000  0.50000  1.0000
  C   C7        1.0  0.50000  0.50000  0.63800  1.0000
  C   C8        1.0  0.00000  0.00000  0.86200  1.0000
  Ce  Ce1       1.0  0.69500  0.30500  0.15700  1.0000
  Ce  Ce2       1.0  0.30500  0.69500  0.15700  1.0000
  Ce  Ce3       1.0  0.19500  0.19500  0.34300  1.0000
  Ce  Ce4       1.0  0.80500  0.80500  0.34300  1.0000
  Ce  Ce5       1.0  0.19500  0.19500  0.65700  1.0000
  Ce  Ce6       1.0  0.80500  0.80500  0.65700  1.0000
  Ce  Ce7       1.0  0.69500  0.30500  0.84300  1.0000
  Ce  Ce8       1.0  0.30500  0.69500  0.84300  1.0000
  W   W1        1.0  0.17700  0.17700  0.00000  1.0000
  W   W2        1.0  0.82300  0.82300  0.00000  1.0000
  W   W3        1.0  0.67700  0.32300  0.50000  1.0000
  W   W4        1.0  0.32300  0.67700  0.50000  1.0000
