data_image0
_chemical_formula_structural       As4S6
_chemical_formula_sum              "As4 S6"
_cell_length_a       6.99895
_cell_length_b       6.99895
_cell_length_c       7.1827
_cell_angle_alpha    119.157
_cell_angle_beta     60.8427
_cell_angle_gamma    120

_space_group_name_H-M_alt    "P 1"
_space_group_IT_number       1

loop_
  _space_group_symop_operation_xyz
  'x, y, z'

loop_
  _atom_site_type_symbol
  _atom_site_label
  _atom_site_symmetry_multiplicity
  _atom_site_fract_x
  _atom_site_fract_y
  _atom_site_fract_z
  _atom_site_occupancy
  As  As1       1.0  0.33200  0.66800  0.00501  1.0000
  As  As2       1.0  0.16800  0.83200  0.49500  1.0000
  As  As3       1.0  0.83200  0.16800  0.50500  1.0000
  As  As4       1.0  0.66800  0.33200  0.99500  1.0000
  S   S1        1.0  0.52000  0.75000  0.25000  1.0000
  S   S2        1.0  0.98000  0.48000  0.25000  1.0000
  S   S3        1.0  0.25000  0.02020  0.25000  1.0000
  S   S4        1.0  0.75000  0.98000  0.75000  1.0000
  S   S5        1.0  0.02020  0.52000  0.75000  1.0000
  S   S6        1.0  0.48000  0.25000  0.75000  1.0000
