data_image0
_chemical_formula_structural       FeHo7I12
_chemical_formula_sum              "Fe1 Ho7 I12"
_cell_length_a       9.68991
_cell_length_b       9.68991
_cell_length_c       9.68991
_cell_angle_alpha    106.94
_cell_angle_beta     106.94
_cell_angle_gamma    106.94

_space_group_name_H-M_alt    "P 1"
_space_group_IT_number       1

loop_
  _space_group_symop_operation_xyz
  'x, y, z'

loop_
  _atom_site_type_symbol
  _atom_site_label
  _atom_site_symmetry_multiplicity
  _atom_site_fract_x
  _atom_site_fract_y
  _atom_site_fract_z
  _atom_site_occupancy
  Fe  Fe1       1.0  0.50000  0.50000  0.50000  1.0000
  Ho  Ho1       1.0  0.00000  0.00000  0.00000  1.0000
  Ho  Ho2       1.0  0.40900  0.47800  0.21200  1.0000
  Ho  Ho3       1.0  0.47800  0.21200  0.40900  1.0000
  Ho  Ho4       1.0  0.21200  0.40900  0.47800  1.0000
  Ho  Ho5       1.0  0.78800  0.59100  0.52200  1.0000
  Ho  Ho6       1.0  0.52200  0.78800  0.59100  1.0000
  Ho  Ho7       1.0  0.59100  0.52200  0.78800  1.0000
  I   I1        1.0  0.34000  0.11300  0.03620  1.0000
  I   I2        1.0  0.03620  0.34000  0.11300  1.0000
  I   I3        1.0  0.72600  0.57200  0.17900  1.0000
  I   I4        1.0  0.42800  0.82100  0.27400  1.0000
  I   I5        1.0  0.11300  0.03620  0.34000  1.0000
  I   I6        1.0  0.82200  0.27400  0.42800  1.0000
  I   I7        1.0  0.17900  0.72600  0.57200  1.0000
  I   I8        1.0  0.88700  0.96400  0.66000  1.0000
  I   I9        1.0  0.57200  0.17900  0.72600  1.0000
  I   I10       1.0  0.27400  0.42800  0.82200  1.0000
  I   I11       1.0  0.96400  0.66000  0.88700  1.0000
  I   I12       1.0  0.66000  0.88700  0.96400  1.0000
