data_image0
_chemical_formula_structural       Se12Yb8
_chemical_formula_sum              "Se12 Yb8"
_cell_length_a       6.76392
_cell_length_b       6.76392
_cell_length_c       15.1915
_cell_angle_alpha    96.1327
_cell_angle_beta     96.1327
_cell_angle_gamma    121.34

_space_group_name_H-M_alt    "P 1"
_space_group_IT_number       1

loop_
  _space_group_symop_operation_xyz
  'x, y, z'

loop_
  _atom_site_type_symbol
  _atom_site_label
  _atom_site_symmetry_multiplicity
  _atom_site_fract_x
  _atom_site_fract_y
  _atom_site_fract_z
  _atom_site_occupancy
  Se  Se1       1.0  0.78400  0.03770  0.09020  1.0000
  Se  Se2       1.0  0.30600  0.55200  0.09020  1.0000
  Se  Se3       1.0  0.30900  0.05880  0.25000  1.0000
  Se  Se4       1.0  0.94100  0.69100  0.25000  1.0000
  Se  Se5       1.0  0.96200  0.21600  0.41000  1.0000
  Se  Se6       1.0  0.44800  0.69400  0.41000  1.0000
  Se  Se7       1.0  0.55200  0.30600  0.59000  1.0000
  Se  Se8       1.0  0.03770  0.78400  0.59000  1.0000
  Se  Se9       1.0  0.05880  0.30900  0.75000  1.0000
  Se  Se10      1.0  0.69100  0.94100  0.75000  1.0000
  Se  Se11      1.0  0.69400  0.44800  0.91000  1.0000
  Se  Se12      1.0  0.21600  0.96200  0.91000  1.0000
  Yb  Yb1       1.0  0.03360  0.78400  0.06730  1.0000
  Yb  Yb2       1.0  0.12400  0.37400  0.24700  1.0000
  Yb  Yb3       1.0  0.62600  0.87600  0.25300  1.0000
  Yb  Yb4       1.0  0.21600  0.96600  0.43300  1.0000
  Yb  Yb5       1.0  0.78400  0.03360  0.56700  1.0000
  Yb  Yb6       1.0  0.37400  0.12400  0.74700  1.0000
  Yb  Yb7       1.0  0.87600  0.62600  0.75300  1.0000
  Yb  Yb8       1.0  0.96600  0.21600  0.93300  1.0000
