data_image0
_chemical_formula_structural       Pr2S12Tb2Yb4
_chemical_formula_sum              "Pr2 S12 Tb2 Yb4"
_cell_length_a       11.0137
_cell_length_b       4.12441
_cell_length_c       11.4688
_cell_angle_alpha    90
_cell_angle_beta     105.487
_cell_angle_gamma    90

_space_group_name_H-M_alt    "P 1"
_space_group_IT_number       1

loop_
  _space_group_symop_operation_xyz
  'x, y, z'

loop_
  _atom_site_type_symbol
  _atom_site_label
  _atom_site_symmetry_multiplicity
  _atom_site_fract_x
  _atom_site_fract_y
  _atom_site_fract_z
  _atom_site_occupancy
  Pr  Pr1       1.0  0.52800  0.25000  0.18100  1.0000
  Pr  Pr2       1.0  0.47200  0.75000  0.81900  1.0000
  S   S1        1.0  0.37100  0.75000  0.03200  1.0000
  S   S2        1.0  0.95100  0.25000  0.10500  1.0000
  S   S3        1.0  0.30500  0.25000  0.26100  1.0000
  S   S4        1.0  0.72500  0.75000  0.27100  1.0000
  S   S5        1.0  0.59900  0.75000  0.38200  1.0000
  S   S6        1.0  0.09680  0.75000  0.42900  1.0000
  S   S7        1.0  0.90300  0.25000  0.57100  1.0000
  S   S8        1.0  0.40100  0.25000  0.61800  1.0000
  S   S9        1.0  0.27500  0.25000  0.72900  1.0000
  S   S10       1.0  0.69500  0.75000  0.73900  1.0000
  S   S11       1.0  0.04860  0.75000  0.89500  1.0000
  S   S12       1.0  0.62900  0.25000  0.96800  1.0000
  Tb  Tb1       1.0  0.16900  0.25000  0.03210  1.0000
  Tb  Tb2       1.0  0.83100  0.75000  0.96800  1.0000
  Yb  Yb1       1.0  0.94600  0.25000  0.35000  1.0000
  Yb  Yb2       1.0  0.32400  0.75000  0.41500  1.0000
  Yb  Yb3       1.0  0.67600  0.25000  0.58500  1.0000
  Yb  Yb4       1.0  0.05450  0.75000  0.65000  1.0000
