data_image0
_chemical_formula_structural       As2F12I6
_chemical_formula_sum              "As2 F12 I6"
_cell_length_a       7.67163
_cell_length_b       5.4664
_cell_length_c       10.0502
_cell_angle_alpha    104.277
_cell_angle_beta     90.3208
_cell_angle_gamma    102.591

_space_group_name_H-M_alt    "P 1"
_space_group_IT_number       1

loop_
  _space_group_symop_operation_xyz
  'x, y, z'

loop_
  _atom_site_type_symbol
  _atom_site_label
  _atom_site_symmetry_multiplicity
  _atom_site_fract_x
  _atom_site_fract_y
  _atom_site_fract_z
  _atom_site_occupancy
  As  As1       1.0  0.23100  0.46700  0.19600  1.0000
  As  As2       1.0  0.76900  0.53300  0.80400  1.0000
  F   F1        1.0  0.10300  0.21200  0.06490  1.0000
  F   F2        1.0  0.42800  0.44000  0.10800  1.0000
  F   F3        1.0  0.18700  0.69100  0.11000  1.0000
  F   F4        1.0  0.27300  0.22300  0.27600  1.0000
  F   F5        1.0  0.03570  0.47900  0.29000  1.0000
  F   F6        1.0  0.35500  0.71000  0.33200  1.0000
  F   F7        1.0  0.64500  0.29000  0.66800  1.0000
  F   F8        1.0  0.96400  0.52100  0.71000  1.0000
  F   F9        1.0  0.72700  0.77700  0.72400  1.0000
  F   F10       1.0  0.81300  0.30900  0.89000  1.0000
  F   F11       1.0  0.57200  0.56000  0.89200  1.0000
  F   F12       1.0  0.89700  0.78800  0.93500  1.0000
  I   I1        1.0  0.62700  0.10600  0.16300  1.0000
  I   I2        1.0  0.84200  0.82200  0.22200  1.0000
  I   I3        1.0  0.75500  0.77500  0.47300  1.0000
  I   I4        1.0  0.24500  0.22500  0.52700  1.0000
  I   I5        1.0  0.15800  0.17800  0.77800  1.0000
  I   I6        1.0  0.37300  0.89400  0.83700  1.0000
