data_image0
_chemical_formula_structural       Cs4F12Na2V2
_chemical_formula_sum              "Cs4 F12 Na2 V2"
_cell_length_a       6.09521
_cell_length_b       6.09521
_cell_length_c       10.5305
_cell_angle_alpha    106.823
_cell_angle_beta     106.823
_cell_angle_gamma    60

_space_group_name_H-M_alt    "P 1"
_space_group_IT_number       1

loop_
  _space_group_symop_operation_xyz
  'x, y, z'

loop_
  _atom_site_type_symbol
  _atom_site_label
  _atom_site_symmetry_multiplicity
  _atom_site_fract_x
  _atom_site_fract_y
  _atom_site_fract_z
  _atom_site_occupancy
  Cs  Cs1       1.0  0.71700  0.71700  0.15100  1.0000
  Cs  Cs2       1.0  0.12700  0.12700  0.38100  1.0000
  Cs  Cs3       1.0  0.87300  0.87300  0.61900  1.0000
  Cs  Cs4       1.0  0.28300  0.28300  0.84900  1.0000
  F   F1        1.0  0.18800  0.18800  0.11100  1.0000
  F   F2        1.0  0.18800  0.73400  0.11100  1.0000
  F   F3        1.0  0.73400  0.18800  0.11100  1.0000
  F   F4        1.0  0.16400  0.61000  0.38300  1.0000
  F   F5        1.0  0.61000  0.16400  0.38300  1.0000
  F   F6        1.0  0.61000  0.61000  0.38300  1.0000
  F   F7        1.0  0.39000  0.39000  0.61700  1.0000
  F   F8        1.0  0.39000  0.83600  0.61700  1.0000
  F   F9        1.0  0.83600  0.39000  0.61700  1.0000
  F   F10       1.0  0.26600  0.81200  0.88900  1.0000
  F   F11       1.0  0.81200  0.26600  0.88900  1.0000
  F   F12       1.0  0.81200  0.81200  0.88900  1.0000
  Na  Na1       1.0  0.40400  0.40400  0.21200  1.0000
  Na  Na2       1.0  0.59600  0.59600  0.78800  1.0000
  V   V1        1.0  0.00000  0.00000  0.00000  1.0000
  V   V2        1.0  0.50000  0.50000  0.50000  1.0000
