data_image0
_chemical_formula_structural       Cs2F14Sb4
_chemical_formula_sum              "Cs2 F14 Sb4"
_cell_length_a       5.16711
_cell_length_b       6.41584
_cell_length_c       9.88812
_cell_angle_alpha    108.931
_cell_angle_beta     91.0015
_cell_angle_gamma    90

_space_group_name_H-M_alt    "P 1"
_space_group_IT_number       1

loop_
  _space_group_symop_operation_xyz
  'x, y, z'

loop_
  _atom_site_type_symbol
  _atom_site_label
  _atom_site_symmetry_multiplicity
  _atom_site_fract_x
  _atom_site_fract_y
  _atom_site_fract_z
  _atom_site_occupancy
  Cs  Cs1       1.0  0.50000  0.50000  0.50000  1.0000
  Cs  Cs2       1.0  1.00000  0.00000  0.50000  1.0000
  F   F1        1.0  0.25000  0.05370  1.00000  1.0000
  F   F2        1.0  0.75000  0.94600  1.00000  1.0000
  F   F3        1.0  0.86100  0.69400  0.15100  1.0000
  F   F4        1.0  0.36100  0.45800  0.15100  1.0000
  F   F5        1.0  0.20100  0.13800  0.26500  1.0000
  F   F6        1.0  0.70100  0.12700  0.26500  1.0000
  F   F7        1.0  0.49500  0.83900  0.36000  1.0000
  F   F8        1.0  0.99500  0.52100  0.36000  1.0000
  F   F9        1.0  0.00533  0.47900  0.64000  1.0000
  F   F10       1.0  0.50500  0.16100  0.64000  1.0000
  F   F11       1.0  0.29900  0.87300  0.73500  1.0000
  F   F12       1.0  0.79900  0.86200  0.73500  1.0000
  F   F13       1.0  0.63900  0.54200  0.84900  1.0000
  F   F14       1.0  0.13900  0.30600  0.84900  1.0000
  Sb  Sb1       1.0  0.01020  0.31600  0.15800  1.0000
  Sb  Sb2       1.0  0.51000  0.84200  0.15800  1.0000
  Sb  Sb3       1.0  0.49000  0.15800  0.84200  1.0000
  Sb  Sb4       1.0  0.99000  0.68400  0.84200  1.0000
