data_image0
_chemical_formula_structural       Bi2Cu2P4Se12
_chemical_formula_sum              "Bi2 Cu2 P4 Se12"
_cell_length_a       6.61039
_cell_length_b       6.6102
_cell_length_c       13.9143
_cell_angle_alpha    89.993
_cell_angle_beta     90.0034
_cell_angle_gamma    119.999

_space_group_name_H-M_alt    "P 1"
_space_group_IT_number       1

loop_
  _space_group_symop_operation_xyz
  'x, y, z'

loop_
  _atom_site_type_symbol
  _atom_site_label
  _atom_site_symmetry_multiplicity
  _atom_site_fract_x
  _atom_site_fract_y
  _atom_site_fract_z
  _atom_site_occupancy
  Bi  Bi1       1.0  0.66700  0.33300  0.25000  1.0000
  Bi  Bi2       1.0  0.33300  0.66700  0.75000  1.0000
  Cu  Cu1       1.0  0.00002  0.00001  0.25000  1.0000
  Cu  Cu2       1.0  0.99998  0.99999  0.75000  1.0000
  P   P1        1.0  0.33300  0.66700  0.16800  1.0000
  P   P2        1.0  0.33300  0.66700  0.33200  1.0000
  P   P3        1.0  0.66700  0.33300  0.66800  1.0000
  P   P4        1.0  0.66700  0.33300  0.83200  1.0000
  Se  Se1       1.0  0.67500  0.97000  0.12500  1.0000
  Se  Se2       1.0  0.03040  0.70500  0.12500  1.0000
  Se  Se3       1.0  0.29500  0.32600  0.12500  1.0000
  Se  Se4       1.0  0.29500  0.97000  0.37500  1.0000
  Se  Se5       1.0  0.03040  0.32600  0.37500  1.0000
  Se  Se6       1.0  0.67500  0.70500  0.37500  1.0000
  Se  Se7       1.0  0.32500  0.29500  0.62500  1.0000
  Se  Se8       1.0  0.97000  0.67400  0.62500  1.0000
  Se  Se9       1.0  0.70500  0.03020  0.62500  1.0000
  Se  Se10      1.0  0.70500  0.67400  0.87500  1.0000
  Se  Se11      1.0  0.97000  0.29500  0.87500  1.0000
  Se  Se12      1.0  0.32500  0.03020  0.87500  1.0000
