data_image0
_chemical_formula_structural       F12Gd2K6
_chemical_formula_sum              "F12 Gd2 K6"
_cell_length_a       6.15986
_cell_length_b       6.46741
_cell_length_c       8.74299
_cell_angle_alpha    90
_cell_angle_beta     91.51
_cell_angle_gamma    90

_space_group_name_H-M_alt    "P 1"
_space_group_IT_number       1

loop_
  _space_group_symop_operation_xyz
  'x, y, z'

loop_
  _atom_site_type_symbol
  _atom_site_label
  _atom_site_symmetry_multiplicity
  _atom_site_fract_x
  _atom_site_fract_y
  _atom_site_fract_z
  _atom_site_occupancy
  F   F1        1.0  0.71000  0.17800  0.05460  1.0000
  F   F2        1.0  0.83000  0.72100  0.07650  1.0000
  F   F3        1.0  0.12900  0.06410  0.23200  1.0000
  F   F4        1.0  0.37100  0.56400  0.26800  1.0000
  F   F5        1.0  0.67000  0.22100  0.42400  1.0000
  F   F6        1.0  0.79000  0.67800  0.44500  1.0000
  F   F7        1.0  0.21000  0.32200  0.55500  1.0000
  F   F8        1.0  0.33000  0.77900  0.57600  1.0000
  F   F9        1.0  0.62900  0.43600  0.73200  1.0000
  F   F10       1.0  0.87100  0.93600  0.76800  1.0000
  F   F11       1.0  0.17000  0.27900  0.92400  1.0000
  F   F12       1.0  0.29000  0.82200  0.94500  1.0000
  Gd  Gd1       1.0  0.00000  0.00000  0.00000  1.0000
  Gd  Gd2       1.0  0.50000  0.50000  0.50000  1.0000
  K   K1        1.0  0.50000  0.50000  0.00000  1.0000
  K   K2        1.0  0.52100  0.93800  0.24500  1.0000
  K   K3        1.0  0.97900  0.43800  0.25500  1.0000
  K   K4        1.0  1.00000  0.00000  0.50000  1.0000
  K   K5        1.0  0.02070  0.56200  0.74500  1.0000
  K   K6        1.0  0.47900  0.06190  0.75500  1.0000
