data_image0
_chemical_formula_structural       Ni2O12Sr4U2
_chemical_formula_sum              "Ni2 O12 Sr4 U2"
_cell_length_a       5.7737
_cell_length_b       5.78015
_cell_length_c       8.1466
_cell_angle_alpha    90
_cell_angle_beta     90.2633
_cell_angle_gamma    90

_space_group_name_H-M_alt    "P 1"
_space_group_IT_number       1

loop_
  _space_group_symop_operation_xyz
  'x, y, z'

loop_
  _atom_site_type_symbol
  _atom_site_label
  _atom_site_symmetry_multiplicity
  _atom_site_fract_x
  _atom_site_fract_y
  _atom_site_fract_z
  _atom_site_occupancy
  Ni  Ni1       1.0  0.50000  0.00000  1.00000  1.0000
  Ni  Ni2       1.0  0.00000  0.50000  0.50000  1.0000
  O   O1        1.0  0.71500  0.28300  0.03900  1.0000
  O   O2        1.0  0.78300  0.78400  0.04130  1.0000
  O   O3        1.0  0.42300  0.98400  0.24900  1.0000
  O   O4        1.0  0.07670  0.48400  0.25100  1.0000
  O   O5        1.0  0.71700  0.28400  0.45900  1.0000
  O   O6        1.0  0.78500  0.78300  0.46100  1.0000
  O   O7        1.0  0.21500  0.21700  0.53900  1.0000
  O   O8        1.0  0.28300  0.71600  0.54100  1.0000
  O   O9        1.0  0.92300  0.51600  0.74900  1.0000
  O   O10       1.0  0.57700  0.01630  0.75100  1.0000
  O   O11       1.0  0.21700  0.21600  0.95900  1.0000
  O   O12       1.0  0.28500  0.71700  0.96100  1.0000
  Sr  Sr1       1.0  0.50800  0.53200  0.24800  1.0000
  Sr  Sr2       1.0  0.99200  0.03220  0.25200  1.0000
  Sr  Sr3       1.0  0.00777  0.96800  0.74800  1.0000
  Sr  Sr4       1.0  0.49200  0.46800  0.75200  1.0000
  U   U1        1.0  0.00000  0.50000  0.00000  1.0000
  U   U2        1.0  0.50000  0.00000  0.50000  1.0000
