data_image0
_chemical_formula_structural       Cs2F16Re2
_chemical_formula_sum              "Cs2 F16 Re2"
_cell_length_a       7.44549
_cell_length_b       7.44549
_cell_length_c       4.82151
_cell_angle_alpha    90
_cell_angle_beta     90
_cell_angle_gamma    90

_space_group_name_H-M_alt    "P 1"
_space_group_IT_number       1

loop_
  _space_group_symop_operation_xyz
  'x, y, z'

loop_
  _atom_site_type_symbol
  _atom_site_label
  _atom_site_symmetry_multiplicity
  _atom_site_fract_x
  _atom_site_fract_y
  _atom_site_fract_z
  _atom_site_occupancy
  Cs  Cs1       1.0  0.75000  0.25000  0.50000  1.0000
  Cs  Cs2       1.0  0.25000  0.75000  0.50000  1.0000
  F   F1        1.0  0.75000  0.53300  0.10300  1.0000
  F   F2        1.0  0.53300  0.75000  0.10300  1.0000
  F   F3        1.0  0.96700  0.75000  0.10300  1.0000
  F   F4        1.0  0.75000  0.96700  0.10300  1.0000
  F   F5        1.0  0.09740  0.09740  0.32600  1.0000
  F   F6        1.0  0.40300  0.09740  0.32600  1.0000
  F   F7        1.0  0.09740  0.40300  0.32600  1.0000
  F   F8        1.0  0.40300  0.40300  0.32600  1.0000
  F   F9        1.0  0.59700  0.59700  0.67400  1.0000
  F   F10       1.0  0.90300  0.59700  0.67400  1.0000
  F   F11       1.0  0.59700  0.90300  0.67400  1.0000
  F   F12       1.0  0.90300  0.90300  0.67400  1.0000
  F   F13       1.0  0.25000  0.03270  0.89700  1.0000
  F   F14       1.0  0.03270  0.25000  0.89700  1.0000
  F   F15       1.0  0.46700  0.25000  0.89700  1.0000
  F   F16       1.0  0.25000  0.46700  0.89700  1.0000
  Re  Re1       1.0  0.25000  0.25000  0.10800  1.0000
  Re  Re2       1.0  0.75000  0.75000  0.89200  1.0000
