data_image0
_chemical_formula_structural       Ag2Er2P4Se12
_chemical_formula_sum              "Ag2 Er2 P4 Se12"
_cell_length_a       6.64807
_cell_length_b       6.64827
_cell_length_c       14.3221
_cell_angle_alpha    89.9998
_cell_angle_beta     90.0001
_cell_angle_gamma    120.001

_space_group_name_H-M_alt    "P 1"
_space_group_IT_number       1

loop_
  _space_group_symop_operation_xyz
  'x, y, z'

loop_
  _atom_site_type_symbol
  _atom_site_label
  _atom_site_symmetry_multiplicity
  _atom_site_fract_x
  _atom_site_fract_y
  _atom_site_fract_z
  _atom_site_occupancy
  Ag  Ag1       1.0  0.66700  0.33300  0.25000  1.0000
  Ag  Ag2       1.0  0.33300  0.66700  0.75000  1.0000
  Er  Er1       1.0  0.99991  0.99996  0.25000  1.0000
  Er  Er2       1.0  0.00009  0.00004  0.75000  1.0000
  P   P1        1.0  0.33300  0.66700  0.17100  1.0000
  P   P2        1.0  0.33300  0.66700  0.32900  1.0000
  P   P3        1.0  0.66700  0.33300  0.67100  1.0000
  P   P4        1.0  0.66700  0.33300  0.82900  1.0000
  Se  Se1       1.0  0.02160  0.34300  0.12400  1.0000
  Se  Se2       1.0  0.65700  0.67800  0.12400  1.0000
  Se  Se3       1.0  0.32200  0.97800  0.12400  1.0000
  Se  Se4       1.0  0.65700  0.97800  0.37600  1.0000
  Se  Se5       1.0  0.32200  0.34300  0.37600  1.0000
  Se  Se6       1.0  0.02160  0.67800  0.37600  1.0000
  Se  Se7       1.0  0.97800  0.32200  0.62400  1.0000
  Se  Se8       1.0  0.34300  0.02160  0.62400  1.0000
  Se  Se9       1.0  0.67800  0.65700  0.62400  1.0000
  Se  Se10      1.0  0.67800  0.02160  0.87600  1.0000
  Se  Se11      1.0  0.34300  0.32200  0.87600  1.0000
  Se  Se12      1.0  0.97800  0.65700  0.87600  1.0000
