data_image0
_chemical_formula_structural       Br4Na4O12
_chemical_formula_sum              "Br4 Na4 O12"
_cell_length_a       6.61203
_cell_length_b       6.61203
_cell_length_c       6.61203
_cell_angle_alpha    90
_cell_angle_beta     90
_cell_angle_gamma    90

_space_group_name_H-M_alt    "P 1"
_space_group_IT_number       1

loop_
  _space_group_symop_operation_xyz
  'x, y, z'

loop_
  _atom_site_type_symbol
  _atom_site_label
  _atom_site_symmetry_multiplicity
  _atom_site_fract_x
  _atom_site_fract_y
  _atom_site_fract_z
  _atom_site_occupancy
  Br  Br1       1.0  0.59600  0.90400  0.09590  1.0000
  Br  Br2       1.0  0.40400  0.40400  0.40400  1.0000
  Br  Br3       1.0  0.90400  0.09590  0.59600  1.0000
  Br  Br4       1.0  0.09590  0.59600  0.90400  1.0000
  Na  Na1       1.0  0.07690  0.07690  0.07690  1.0000
  Na  Na2       1.0  0.92300  0.57700  0.42300  1.0000
  Na  Na3       1.0  0.42300  0.92300  0.57700  1.0000
  Na  Na4       1.0  0.57700  0.42300  0.92300  1.0000
  O   O1        1.0  0.21800  0.39800  0.01030  1.0000
  O   O2        1.0  0.99000  0.71800  0.10200  1.0000
  O   O3        1.0  0.39800  0.01030  0.21800  1.0000
  O   O4        1.0  0.60200  0.51000  0.28200  1.0000
  O   O5        1.0  0.01030  0.21800  0.39800  1.0000
  O   O6        1.0  0.78200  0.89800  0.49000  1.0000
  O   O7        1.0  0.28200  0.60200  0.51000  1.0000
  O   O8        1.0  0.51000  0.28200  0.60200  1.0000
  O   O9        1.0  0.10200  0.99000  0.71800  1.0000
  O   O10       1.0  0.89800  0.49000  0.78200  1.0000
  O   O11       1.0  0.49000  0.78200  0.89800  1.0000
  O   O12       1.0  0.71800  0.10200  0.99000  1.0000
