data_image0
_chemical_formula_structural       C4Ge4La10
_chemical_formula_sum              "C4 Ge4 La10"
_cell_length_a       8.25716
_cell_length_b       12.955
_cell_length_c       4.31401
_cell_angle_alpha    90
_cell_angle_beta     90
_cell_angle_gamma    90

_space_group_name_H-M_alt    "P 1"
_space_group_IT_number       1

loop_
  _space_group_symop_operation_xyz
  'x, y, z'

loop_
  _atom_site_type_symbol
  _atom_site_label
  _atom_site_symmetry_multiplicity
  _atom_site_fract_x
  _atom_site_fract_y
  _atom_site_fract_z
  _atom_site_occupancy
  C   C1        1.0  0.04130  0.04630  0.00000  1.0000
  C   C2        1.0  0.54100  0.45400  0.00000  1.0000
  C   C3        1.0  0.45900  0.54600  0.00000  1.0000
  C   C4        1.0  0.95900  0.95400  0.00000  1.0000
  Ge  Ge1       1.0  0.45200  0.17100  0.50000  1.0000
  Ge  Ge2       1.0  0.95200  0.32900  0.50000  1.0000
  Ge  Ge3       1.0  0.04810  0.67100  0.50000  1.0000
  Ge  Ge4       1.0  0.54800  0.82900  0.50000  1.0000
  La  La1       1.0  0.50000  0.00000  0.00000  1.0000
  La  La2       1.0  0.17300  0.21200  0.00000  1.0000
  La  La3       1.0  0.67300  0.28800  0.00000  1.0000
  La  La4       1.0  0.00000  0.50000  0.00000  1.0000
  La  La5       1.0  0.32700  0.71200  0.00000  1.0000
  La  La6       1.0  0.82700  0.78800  0.00000  1.0000
  La  La7       1.0  0.83400  0.06080  0.50000  1.0000
  La  La8       1.0  0.33400  0.43900  0.50000  1.0000
  La  La9       1.0  0.66600  0.56100  0.50000  1.0000
  La  La10      1.0  0.16600  0.93900  0.50000  1.0000
