data_image0
_chemical_formula_structural       F12K6Y2
_chemical_formula_sum              "F12 K6 Y2"
_cell_length_a       6.14054
_cell_length_b       6.44052
_cell_length_c       8.70523
_cell_angle_alpha    90
_cell_angle_beta     91.6675
_cell_angle_gamma    90

_space_group_name_H-M_alt    "P 1"
_space_group_IT_number       1

loop_
  _space_group_symop_operation_xyz
  'x, y, z'

loop_
  _atom_site_type_symbol
  _atom_site_label
  _atom_site_symmetry_multiplicity
  _atom_site_fract_x
  _atom_site_fract_y
  _atom_site_fract_z
  _atom_site_occupancy
  F   F1        1.0  0.71200  0.17700  0.05440  1.0000
  F   F2        1.0  0.83200  0.72200  0.07520  1.0000
  F   F3        1.0  0.12900  0.06250  0.23000  1.0000
  F   F4        1.0  0.37100  0.56200  0.27000  1.0000
  F   F5        1.0  0.66800  0.22200  0.42500  1.0000
  F   F6        1.0  0.78800  0.67700  0.44600  1.0000
  F   F7        1.0  0.21200  0.32300  0.55400  1.0000
  F   F8        1.0  0.33200  0.77800  0.57500  1.0000
  F   F9        1.0  0.62900  0.43800  0.73000  1.0000
  F   F10       1.0  0.87100  0.93800  0.77000  1.0000
  F   F11       1.0  0.16800  0.27800  0.92500  1.0000
  F   F12       1.0  0.28800  0.82300  0.94600  1.0000
  K   K1        1.0  0.50000  0.50000  1.00000  1.0000
  K   K2        1.0  0.52200  0.93700  0.24500  1.0000
  K   K3        1.0  0.97800  0.43700  0.25500  1.0000
  K   K4        1.0  0.00000  0.00000  0.50000  1.0000
  K   K5        1.0  0.02200  0.56300  0.74500  1.0000
  K   K6        1.0  0.47800  0.06310  0.75500  1.0000
  Y   Y1        1.0  0.00000  0.00000  0.00000  1.0000
  Y   Y2        1.0  0.50000  0.50000  0.50000  1.0000
