data_image0
_chemical_formula_structural       F8O8S4
_chemical_formula_sum              "F8 O8 S4"
_cell_length_a       4.80352
_cell_length_b       4.80352
_cell_length_c       10.4533
_cell_angle_alpha    90
_cell_angle_beta     90
_cell_angle_gamma    90

_space_group_name_H-M_alt    "P 1"
_space_group_IT_number       1

loop_
  _space_group_symop_operation_xyz
  'x, y, z'

loop_
  _atom_site_type_symbol
  _atom_site_label
  _atom_site_symmetry_multiplicity
  _atom_site_fract_x
  _atom_site_fract_y
  _atom_site_fract_z
  _atom_site_occupancy
  F   F1        1.0  0.87900  0.98300  0.10600  1.0000
  F   F2        1.0  0.62100  0.48300  0.14400  1.0000
  F   F3        1.0  0.51700  0.37900  0.35600  1.0000
  F   F4        1.0  0.01720  0.12100  0.39400  1.0000
  F   F5        1.0  0.12100  0.01720  0.60600  1.0000
  F   F6        1.0  0.37900  0.51700  0.64400  1.0000
  F   F7        1.0  0.48300  0.62100  0.85600  1.0000
  F   F8        1.0  0.98300  0.87900  0.89400  1.0000
  O   O1        1.0  0.35400  0.00505  0.03850  1.0000
  O   O2        1.0  0.14600  0.50500  0.21100  1.0000
  O   O3        1.0  0.49500  0.85400  0.28900  1.0000
  O   O4        1.0  0.99500  0.64600  0.46100  1.0000
  O   O5        1.0  0.64600  0.99500  0.53900  1.0000
  O   O6        1.0  0.85400  0.49500  0.71100  1.0000
  O   O7        1.0  0.50500  0.14600  0.78900  1.0000
  O   O8        1.0  0.00505  0.35400  0.96100  1.0000
  S   S1        1.0  0.08330  0.08330  0.00000  1.0000
  S   S2        1.0  0.41700  0.58300  0.25000  1.0000
  S   S3        1.0  0.91700  0.91700  0.50000  1.0000
  S   S4        1.0  0.58300  0.41700  0.75000  1.0000
