data_image0
_chemical_formula_structural       Te12U8
_chemical_formula_sum              "Te12 U8"
_cell_length_a       11.9543
_cell_length_b       4.23316
_cell_length_c       11.8396
_cell_angle_alpha    90
_cell_angle_beta     90
_cell_angle_gamma    90

_space_group_name_H-M_alt    "P 1"
_space_group_IT_number       1

loop_
  _space_group_symop_operation_xyz
  'x, y, z'

loop_
  _atom_site_type_symbol
  _atom_site_label
  _atom_site_symmetry_multiplicity
  _atom_site_fract_x
  _atom_site_fract_y
  _atom_site_fract_z
  _atom_site_occupancy
  Te  Te1       1.0  0.62400  0.75000  0.05610  1.0000
  Te  Te2       1.0  0.95000  0.75000  0.12600  1.0000
  Te  Te3       1.0  0.22400  0.25000  0.20500  1.0000
  Te  Te4       1.0  0.72400  0.25000  0.29500  1.0000
  Te  Te5       1.0  0.45000  0.75000  0.37400  1.0000
  Te  Te6       1.0  0.12400  0.75000  0.44400  1.0000
  Te  Te7       1.0  0.87600  0.25000  0.55600  1.0000
  Te  Te8       1.0  0.55000  0.25000  0.62600  1.0000
  Te  Te9       1.0  0.27600  0.75000  0.70500  1.0000
  Te  Te10      1.0  0.77600  0.75000  0.79500  1.0000
  Te  Te11      1.0  0.04960  0.25000  0.87400  1.0000
  Te  Te12      1.0  0.37600  0.25000  0.94400  1.0000
  U   U1        1.0  0.19300  0.75000  0.00720  1.0000
  U   U2        1.0  0.48400  0.25000  0.18400  1.0000
  U   U3        1.0  0.98400  0.25000  0.31600  1.0000
  U   U4        1.0  0.69300  0.75000  0.49300  1.0000
  U   U5        1.0  0.30700  0.25000  0.50700  1.0000
  U   U6        1.0  0.01640  0.75000  0.68400  1.0000
  U   U7        1.0  0.51600  0.75000  0.81600  1.0000
  U   U8        1.0  0.80700  0.25000  0.99300  1.0000
