data_image0
_chemical_formula_structural       Ag2P4Se12Tm2
_chemical_formula_sum              "Ag2 P4 Se12 Tm2"
_cell_length_a       6.6293
_cell_length_b       6.62932
_cell_length_c       14.2335
_cell_angle_alpha    89.9999
_cell_angle_beta     90
_cell_angle_gamma    120

_space_group_name_H-M_alt    "P 1"
_space_group_IT_number       1

loop_
  _space_group_symop_operation_xyz
  'x, y, z'

loop_
  _atom_site_type_symbol
  _atom_site_label
  _atom_site_symmetry_multiplicity
  _atom_site_fract_x
  _atom_site_fract_y
  _atom_site_fract_z
  _atom_site_occupancy
  Ag  Ag1       1.0  0.66700  0.33300  0.25000  1.0000
  Ag  Ag2       1.0  0.33300  0.66700  0.75000  1.0000
  P   P1        1.0  0.33300  0.66700  0.17000  1.0000
  P   P2        1.0  0.33300  0.66700  0.33000  1.0000
  P   P3        1.0  0.66700  0.33300  0.67000  1.0000
  P   P4        1.0  0.66700  0.33300  0.83000  1.0000
  Se  Se1       1.0  0.32000  0.97800  0.12300  1.0000
  Se  Se2       1.0  0.65800  0.68000  0.12300  1.0000
  Se  Se3       1.0  0.02170  0.34200  0.12300  1.0000
  Se  Se4       1.0  0.02170  0.68000  0.37700  1.0000
  Se  Se5       1.0  0.65800  0.97800  0.37700  1.0000
  Se  Se6       1.0  0.32000  0.34200  0.37700  1.0000
  Se  Se7       1.0  0.68000  0.65800  0.62300  1.0000
  Se  Se8       1.0  0.34200  0.02170  0.62300  1.0000
  Se  Se9       1.0  0.97800  0.32000  0.62300  1.0000
  Se  Se10      1.0  0.97800  0.65800  0.87700  1.0000
  Se  Se11      1.0  0.34200  0.32000  0.87700  1.0000
  Se  Se12      1.0  0.68000  0.02170  0.87700  1.0000
  Tm  Tm1       1.0  0.00002  0.00001  0.25000  1.0000
  Tm  Tm2       1.0  0.99998  0.99999  0.75000  1.0000
