data_image0
_chemical_formula_structural       Mg2O12Pb4U2
_chemical_formula_sum              "Mg2 O12 Pb4 U2"
_cell_length_a       5.80907
_cell_length_b       5.81842
_cell_length_c       8.31124
_cell_angle_alpha    90
_cell_angle_beta     89.6768
_cell_angle_gamma    90

_space_group_name_H-M_alt    "P 1"
_space_group_IT_number       1

loop_
  _space_group_symop_operation_xyz
  'x, y, z'

loop_
  _atom_site_type_symbol
  _atom_site_label
  _atom_site_symmetry_multiplicity
  _atom_site_fract_x
  _atom_site_fract_y
  _atom_site_fract_z
  _atom_site_occupancy
  Mg  Mg1       1.0  0.50000  0.00000  0.00000  1.0000
  Mg  Mg2       1.0  0.00000  0.50000  0.50000  1.0000
  O   O1        1.0  0.70300  0.29700  0.02620  1.0000
  O   O2        1.0  0.79700  0.79200  0.03080  1.0000
  O   O3        1.0  0.43400  0.98400  0.24700  1.0000
  O   O4        1.0  0.06560  0.48400  0.25300  1.0000
  O   O5        1.0  0.70300  0.29200  0.46900  1.0000
  O   O6        1.0  0.79700  0.79700  0.47400  1.0000
  O   O7        1.0  0.20300  0.20300  0.52600  1.0000
  O   O8        1.0  0.29700  0.70800  0.53100  1.0000
  O   O9        1.0  0.93400  0.51600  0.74700  1.0000
  O   O10       1.0  0.56600  0.01610  0.75300  1.0000
  O   O11       1.0  0.20300  0.20800  0.96900  1.0000
  O   O12       1.0  0.29700  0.70300  0.97400  1.0000
  Pb  Pb1       1.0  0.49200  0.52800  0.24700  1.0000
  Pb  Pb2       1.0  0.00762  0.02770  0.25300  1.0000
  Pb  Pb3       1.0  0.99200  0.97200  0.74700  1.0000
  Pb  Pb4       1.0  0.50800  0.47200  0.75300  1.0000
  U   U1        1.0  0.00000  0.50000  0.00000  1.0000
  U   U2        1.0  0.50000  0.00000  0.50000  1.0000
