data_image0
_chemical_formula_structural       H6Na2O10S2
_chemical_formula_sum              "H6 Na2 O10 S2"
_cell_length_a       5.37433
_cell_length_b       5.37433
_cell_length_c       7.76144
_cell_angle_alpha    70.6791
_cell_angle_beta     109.321
_cell_angle_gamma    90.5415

_space_group_name_H-M_alt    "P 1"
_space_group_IT_number       1

loop_
  _space_group_symop_operation_xyz
  'x, y, z'

loop_
  _atom_site_type_symbol
  _atom_site_label
  _atom_site_symmetry_multiplicity
  _atom_site_fract_x
  _atom_site_fract_y
  _atom_site_fract_z
  _atom_site_occupancy
  H   H1        1.0  0.62100  0.48200  0.22300  1.0000
  H   H2        1.0  0.77600  0.19800  0.31100  1.0000
  H   H3        1.0  0.31300  0.08850  0.48900  1.0000
  H   H4        1.0  0.01820  0.87900  0.72300  1.0000
  H   H5        1.0  0.30200  0.72400  0.81100  1.0000
  H   H6        1.0  0.41100  0.18700  0.98900  1.0000
  Na  Na1       1.0  0.95700  0.48300  0.01180  1.0000
  Na  Na2       1.0  0.01740  0.54300  0.51200  1.0000
  O   O1        1.0  0.28700  0.14800  0.07080  1.0000
  O   O2        1.0  0.31900  0.66000  0.18600  1.0000
  O   O3        1.0  0.79900  0.38800  0.26200  1.0000
  O   O4        1.0  0.66700  0.88100  0.35100  1.0000
  O   O5        1.0  0.22400  0.91200  0.37000  1.0000
  O   O6        1.0  0.35200  0.21300  0.57100  1.0000
  O   O7        1.0  0.84000  0.18100  0.68600  1.0000
  O   O8        1.0  0.11200  0.70100  0.76200  1.0000
  O   O9        1.0  0.61900  0.83300  0.85100  1.0000
  O   O10       1.0  0.58800  0.27600  0.87000  1.0000
  S   S1        1.0  0.38200  0.88400  0.25300  1.0000
  S   S2        1.0  0.61600  0.11800  0.75300  1.0000
