data_image0
_chemical_formula_structural       Ce12Ga8
_chemical_formula_sum              "Ce12 Ga8"
_cell_length_a       8.60511
_cell_length_b       8.60511
_cell_length_c       7.71184
_cell_angle_alpha    90
_cell_angle_beta     90
_cell_angle_gamma    90

_space_group_name_H-M_alt    "P 1"
_space_group_IT_number       1

loop_
  _space_group_symop_operation_xyz
  'x, y, z'

loop_
  _atom_site_type_symbol
  _atom_site_label
  _atom_site_symmetry_multiplicity
  _atom_site_fract_x
  _atom_site_fract_y
  _atom_site_fract_z
  _atom_site_occupancy
  Ce  Ce1       1.0  0.80400  0.19600  0.00000  1.0000
  Ce  Ce2       1.0  0.35000  0.35000  0.00000  1.0000
  Ce  Ce3       1.0  0.65000  0.65000  0.00000  1.0000
  Ce  Ce4       1.0  0.19600  0.80400  0.00000  1.0000
  Ce  Ce5       1.0  0.50000  0.00000  0.25000  1.0000
  Ce  Ce6       1.0  0.00000  0.50000  0.25000  1.0000
  Ce  Ce7       1.0  0.85000  0.15000  0.50000  1.0000
  Ce  Ce8       1.0  0.30400  0.30400  0.50000  1.0000
  Ce  Ce9       1.0  0.69600  0.69600  0.50000  1.0000
  Ce  Ce10      1.0  0.15000  0.85000  0.50000  1.0000
  Ce  Ce11      1.0  0.50000  0.00000  0.75000  1.0000
  Ce  Ce12      1.0  0.00000  0.50000  0.75000  1.0000
  Ga  Ga1       1.0  0.12100  0.12100  0.19400  1.0000
  Ga  Ga2       1.0  0.87900  0.87900  0.19400  1.0000
  Ga  Ga3       1.0  0.62100  0.37900  0.30600  1.0000
  Ga  Ga4       1.0  0.37900  0.62100  0.30600  1.0000
  Ga  Ga5       1.0  0.62100  0.37900  0.69400  1.0000
  Ga  Ga6       1.0  0.37900  0.62100  0.69400  1.0000
  Ga  Ga7       1.0  0.12100  0.12100  0.80600  1.0000
  Ga  Ga8       1.0  0.87900  0.87900  0.80600  1.0000
