data_image0
_chemical_formula_structural       O14P4Zr2
_chemical_formula_sum              "O14 P4 Zr2"
_cell_length_a       8.48799
_cell_length_b       6.78642
_cell_length_c       5.42796
_cell_angle_alpha    90
_cell_angle_beta     90
_cell_angle_gamma    90

_space_group_name_H-M_alt    "P 1"
_space_group_IT_number       1

loop_
  _space_group_symop_operation_xyz
  'x, y, z'

loop_
  _atom_site_type_symbol
  _atom_site_label
  _atom_site_symmetry_multiplicity
  _atom_site_fract_x
  _atom_site_fract_y
  _atom_site_fract_z
  _atom_site_occupancy
  O   O1        1.0  0.22300  0.38100  0.00000  1.0000
  O   O2        1.0  0.50000  0.50000  0.00000  1.0000
  O   O3        1.0  0.77700  0.61900  0.00000  1.0000
  O   O4        1.0  0.43200  0.19900  0.23300  1.0000
  O   O5        1.0  0.56800  0.80100  0.23300  1.0000
  O   O6        1.0  0.93200  0.30100  0.26700  1.0000
  O   O7        1.0  0.06820  0.69900  0.26700  1.0000
  O   O8        1.0  0.00000  0.00000  0.50000  1.0000
  O   O9        1.0  0.72300  0.11900  0.50000  1.0000
  O   O10       1.0  0.27700  0.88100  0.50000  1.0000
  O   O11       1.0  0.93200  0.30100  0.73300  1.0000
  O   O12       1.0  0.06820  0.69900  0.73300  1.0000
  O   O13       1.0  0.43200  0.19900  0.76700  1.0000
  O   O14       1.0  0.56800  0.80100  0.76700  1.0000
  P   P1        1.0  0.39200  0.31100  0.00000  1.0000
  P   P2        1.0  0.60800  0.68900  0.00000  1.0000
  P   P3        1.0  0.89200  0.18900  0.50000  1.0000
  P   P4        1.0  0.10800  0.81100  0.50000  1.0000
  Zr  Zr1       1.0  0.00000  0.50000  0.00000  1.0000
  Zr  Zr2       1.0  0.50000  0.00000  0.50000  1.0000
