data_image0
_chemical_formula_structural       As2F16Sb2
_chemical_formula_sum              "As2 F16 Sb2"
_cell_length_a       6.64219
_cell_length_b       7.3176
_cell_length_c       5.26385
_cell_angle_alpha    90
_cell_angle_beta     97.0285
_cell_angle_gamma    90

_space_group_name_H-M_alt    "P 1"
_space_group_IT_number       1

loop_
  _space_group_symop_operation_xyz
  'x, y, z'

loop_
  _atom_site_type_symbol
  _atom_site_label
  _atom_site_symmetry_multiplicity
  _atom_site_fract_x
  _atom_site_fract_y
  _atom_site_fract_z
  _atom_site_occupancy
  As  As1       1.0  0.68300  0.75000  0.49200  1.0000
  As  As2       1.0  0.31700  0.25000  0.50800  1.0000
  F   F1        1.0  0.46200  0.75000  0.04400  1.0000
  F   F2        1.0  0.03780  0.75000  0.06880  1.0000
  F   F3        1.0  0.78600  0.50700  0.20800  1.0000
  F   F4        1.0  0.78600  0.99300  0.20800  1.0000
  F   F5        1.0  0.30100  0.07120  0.28100  1.0000
  F   F6        1.0  0.30100  0.42900  0.28100  1.0000
  F   F7        1.0  0.00682  0.25000  0.45800  1.0000
  F   F8        1.0  0.63100  0.25000  0.47300  1.0000
  F   F9        1.0  0.36900  0.75000  0.52700  1.0000
  F   F10       1.0  0.99300  0.75000  0.54200  1.0000
  F   F11       1.0  0.69900  0.57100  0.71900  1.0000
  F   F12       1.0  0.69900  0.92900  0.71900  1.0000
  F   F13       1.0  0.21400  0.00750  0.79200  1.0000
  F   F14       1.0  0.21400  0.49300  0.79200  1.0000
  F   F15       1.0  0.96200  0.25000  0.93100  1.0000
  F   F16       1.0  0.53800  0.25000  0.95600  1.0000
  Sb  Sb1       1.0  0.78300  0.25000  0.17700  1.0000
  Sb  Sb2       1.0  0.21700  0.75000  0.82300  1.0000
