data_image0
_chemical_formula_structural       B4Rb4Se12
_chemical_formula_sum              "B4 Rb4 Se12"
_cell_length_a       7.48528
_cell_length_b       12.6776
_cell_length_c       6.25881
_cell_angle_alpha    90
_cell_angle_beta     105.521
_cell_angle_gamma    90

_space_group_name_H-M_alt    "P 1"
_space_group_IT_number       1

loop_
  _space_group_symop_operation_xyz
  'x, y, z'

loop_
  _atom_site_type_symbol
  _atom_site_label
  _atom_site_symmetry_multiplicity
  _atom_site_fract_x
  _atom_site_fract_y
  _atom_site_fract_z
  _atom_site_occupancy
  B   B1        1.0  0.70200  0.26900  0.17700  1.0000
  B   B2        1.0  0.29800  0.76900  0.32300  1.0000
  B   B3        1.0  0.70200  0.23100  0.67700  1.0000
  B   B4        1.0  0.29800  0.73100  0.82300  1.0000
  Rb  Rb1       1.0  0.25800  0.42300  0.20900  1.0000
  Rb  Rb2       1.0  0.74200  0.92300  0.29100  1.0000
  Rb  Rb3       1.0  0.25800  0.07670  0.70900  1.0000
  Rb  Rb4       1.0  0.74200  0.57700  0.79100  1.0000
  Se  Se1       1.0  0.45600  0.69500  0.13800  1.0000
  Se  Se2       1.0  0.20000  0.90800  0.16700  1.0000
  Se  Se3       1.0  0.93900  0.18100  0.17500  1.0000
  Se  Se4       1.0  0.06100  0.68100  0.32500  1.0000
  Se  Se5       1.0  0.80000  0.40800  0.33300  1.0000
  Se  Se6       1.0  0.54400  0.19500  0.36200  1.0000
  Se  Se7       1.0  0.45600  0.80500  0.63800  1.0000
  Se  Se8       1.0  0.20000  0.59200  0.66700  1.0000
  Se  Se9       1.0  0.93900  0.31900  0.67500  1.0000
  Se  Se10      1.0  0.06100  0.81900  0.82500  1.0000
  Se  Se11      1.0  0.80000  0.09150  0.83300  1.0000
  Se  Se12      1.0  0.54400  0.30500  0.86200  1.0000
