data_image0
_chemical_formula_structural       As2Br6F12
_chemical_formula_sum              "As2 Br6 F12"
_cell_length_a       7.21998
_cell_length_b       5.18948
_cell_length_c       9.42398
_cell_angle_alpha    99.8956
_cell_angle_beta     86.7252
_cell_angle_gamma    101.729

_space_group_name_H-M_alt    "P 1"
_space_group_IT_number       1

loop_
  _space_group_symop_operation_xyz
  'x, y, z'

loop_
  _atom_site_type_symbol
  _atom_site_label
  _atom_site_symmetry_multiplicity
  _atom_site_fract_x
  _atom_site_fract_y
  _atom_site_fract_z
  _atom_site_occupancy
  As  As1       1.0  0.21500  0.44600  0.20500  1.0000
  As  As2       1.0  0.78500  0.55400  0.79500  1.0000
  Br  Br1       1.0  0.62000  0.09540  0.16700  1.0000
  Br  Br2       1.0  0.80500  0.81200  0.21700  1.0000
  Br  Br3       1.0  0.75400  0.81500  0.46100  1.0000
  Br  Br4       1.0  0.24600  0.18500  0.53900  1.0000
  Br  Br5       1.0  0.19500  0.18800  0.78300  1.0000
  Br  Br6       1.0  0.38000  0.90500  0.83300  1.0000
  F   F1        1.0  0.09910  0.21200  0.06400  1.0000
  F   F2        1.0  0.19400  0.70100  0.11200  1.0000
  F   F3        1.0  0.43600  0.41600  0.11600  1.0000
  F   F4        1.0  0.23600  0.16800  0.28900  1.0000
  F   F5        1.0  0.99800  0.45800  0.29800  1.0000
  F   F6        1.0  0.33500  0.66700  0.34700  1.0000
  F   F7        1.0  0.66500  0.33300  0.65300  1.0000
  F   F8        1.0  0.00242  0.54200  0.70200  1.0000
  F   F9        1.0  0.76400  0.83200  0.71100  1.0000
  F   F10       1.0  0.56400  0.58400  0.88400  1.0000
  F   F11       1.0  0.80600  0.29900  0.88800  1.0000
  F   F12       1.0  0.90100  0.78800  0.93600  1.0000
