data_image0
_chemical_formula_structural       F12O4V4
_chemical_formula_sum              "F12 O4 V4"
_cell_length_a       5.26134
_cell_length_b       4.75924
_cell_length_c       9.08179
_cell_angle_alpha    90
_cell_angle_beta     91.8184
_cell_angle_gamma    90

_space_group_name_H-M_alt    "P 1"
_space_group_IT_number       1

loop_
  _space_group_symop_operation_xyz
  'x, y, z'

loop_
  _atom_site_type_symbol
  _atom_site_label
  _atom_site_symmetry_multiplicity
  _atom_site_fract_x
  _atom_site_fract_y
  _atom_site_fract_z
  _atom_site_occupancy
  F   F1        1.0  0.66300  0.35100  0.05000  1.0000
  F   F2        1.0  0.06620  0.62300  0.18900  1.0000
  F   F3        1.0  0.55500  0.79700  0.20000  1.0000
  F   F4        1.0  0.44500  0.29700  0.30000  1.0000
  F   F5        1.0  0.93400  0.12300  0.31100  1.0000
  F   F6        1.0  0.33700  0.85100  0.45000  1.0000
  F   F7        1.0  0.66300  0.14900  0.55000  1.0000
  F   F8        1.0  0.06620  0.87700  0.68900  1.0000
  F   F9        1.0  0.55500  0.70300  0.70000  1.0000
  F   F10       1.0  0.44500  0.20300  0.80000  1.0000
  F   F11       1.0  0.93400  0.37700  0.81100  1.0000
  F   F12       1.0  0.33700  0.64900  0.95000  1.0000
  O   O1        1.0  0.18500  0.15300  0.05830  1.0000
  O   O2        1.0  0.81500  0.65300  0.44200  1.0000
  O   O3        1.0  0.18500  0.34700  0.55800  1.0000
  O   O4        1.0  0.81500  0.84700  0.94200  1.0000
  V   V1        1.0  0.31900  0.42400  0.12500  1.0000
  V   V2        1.0  0.68100  0.92400  0.37500  1.0000
  V   V3        1.0  0.31900  0.07590  0.62500  1.0000
  V   V4        1.0  0.68100  0.57600  0.87500  1.0000
