data_image0
_chemical_formula_structural       N18Sb2
_chemical_formula_sum              "N18 Sb2"
_cell_length_a       7.45533
_cell_length_b       7.45533
_cell_length_c       7.45533
_cell_angle_alpha    55.2823
_cell_angle_beta     55.2823
_cell_angle_gamma    55.2823

_space_group_name_H-M_alt    "P 1"
_space_group_IT_number       1

loop_
  _space_group_symop_operation_xyz
  'x, y, z'

loop_
  _atom_site_type_symbol
  _atom_site_label
  _atom_site_symmetry_multiplicity
  _atom_site_fract_x
  _atom_site_fract_y
  _atom_site_fract_z
  _atom_site_occupancy
  N   N1        1.0  0.37100  0.62700  0.12500  1.0000
  N   N2        1.0  0.64900  0.83900  0.13700  1.0000
  N   N3        1.0  0.86300  0.35100  0.16100  1.0000
  N   N4        1.0  0.26300  0.74800  0.24100  1.0000
  N   N5        1.0  0.75900  0.73700  0.25200  1.0000
  N   N6        1.0  0.74800  0.24100  0.26300  1.0000
  N   N7        1.0  0.16100  0.86300  0.35100  1.0000
  N   N8        1.0  0.62700  0.12500  0.37100  1.0000
  N   N9        1.0  0.87500  0.62900  0.37300  1.0000
  N   N10       1.0  0.12500  0.37100  0.62700  1.0000
  N   N11       1.0  0.37300  0.87500  0.62900  1.0000
  N   N12       1.0  0.83900  0.13700  0.64900  1.0000
  N   N13       1.0  0.25200  0.75900  0.73700  1.0000
  N   N14       1.0  0.24100  0.26300  0.74800  1.0000
  N   N15       1.0  0.73700  0.25200  0.75900  1.0000
  N   N16       1.0  0.13700  0.64900  0.83900  1.0000
  N   N17       1.0  0.35100  0.16100  0.86300  1.0000
  N   N18       1.0  0.62900  0.37300  0.87500  1.0000
  Sb  Sb1       1.0  0.30200  0.30200  0.30200  1.0000
  Sb  Sb2       1.0  0.69800  0.69800  0.69800  1.0000
