data_image0
_chemical_formula_structural       GaN5O14
_chemical_formula_sum              "Ga1 N5 O14"
_cell_length_a       5.65156
_cell_length_b       6.87567
_cell_length_c       6.95472
_cell_angle_alpha    96.3826
_cell_angle_beta     113.973
_cell_angle_gamma    65.7334

_space_group_name_H-M_alt    "P 1"
_space_group_IT_number       1

loop_
  _space_group_symop_operation_xyz
  'x, y, z'

loop_
  _atom_site_type_symbol
  _atom_site_label
  _atom_site_symmetry_multiplicity
  _atom_site_fract_x
  _atom_site_fract_y
  _atom_site_fract_z
  _atom_site_occupancy
  Ga  Ga1       1.0  0.00734  0.00000  0.00000  1.0000
  N   N1        1.0  0.45800  0.69700  0.02230  1.0000
  N   N2        1.0  0.85200  0.00665  0.32700  1.0000
  N   N3        1.0  0.65100  0.50000  0.50000  1.0000
  N   N4        1.0  0.53200  0.99300  0.67300  1.0000
  N   N5        1.0  0.13300  0.30300  0.97800  1.0000
  O   O1        1.0  0.68100  0.54400  0.05850  1.0000
  O   O2        1.0  0.27800  0.18000  0.14500  1.0000
  O   O3        1.0  0.34300  0.74800  0.16200  1.0000
  O   O4        1.0  0.83700  0.14000  0.19200  1.0000
  O   O5        1.0  0.91100  0.81600  0.29000  1.0000
  O   O6        1.0  0.80300  0.08910  0.48100  1.0000
  O   O7        1.0  0.44900  0.50000  0.50000  1.0000
  O   O8        1.0  0.85300  0.50000  0.50000  1.0000
  O   O9        1.0  0.41200  0.91100  0.51900  1.0000
  O   O10       1.0  0.43700  0.18400  0.71000  1.0000
  O   O11       1.0  0.78400  0.86000  0.80800  1.0000
  O   O12       1.0  0.92900  0.25200  0.83800  1.0000
  O   O13       1.0  0.31300  0.82000  0.85500  1.0000
  O   O14       1.0  0.16600  0.45600  0.94200  1.0000
