data_image0
_chemical_formula_structural       O4Si4Yb12
_chemical_formula_sum              "O4 Si4 Yb12"
_cell_length_a       6.55896
_cell_length_b       6.54039
_cell_length_c       9.25653
_cell_angle_alpha    90
_cell_angle_beta     90
_cell_angle_gamma    90

_space_group_name_H-M_alt    "P 1"
_space_group_IT_number       1

loop_
  _space_group_symop_operation_xyz
  'x, y, z'

loop_
  _atom_site_type_symbol
  _atom_site_label
  _atom_site_symmetry_multiplicity
  _atom_site_fract_x
  _atom_site_fract_y
  _atom_site_fract_z
  _atom_site_occupancy
  O   O1        1.0  0.50000  0.00000  0.00000  1.0000
  O   O2        1.0  0.00000  0.50000  0.00000  1.0000
  O   O3        1.0  0.50000  0.00000  0.50000  1.0000
  O   O4        1.0  0.00000  0.50000  0.50000  1.0000
  Si  Si1       1.0  0.50000  0.49800  0.25000  1.0000
  Si  Si2       1.0  0.00007  0.99800  0.25000  1.0000
  Si  Si3       1.0  0.99993  0.00224  0.75000  1.0000
  Si  Si4       1.0  0.50000  0.50200  0.75000  1.0000
  Yb  Yb1       1.0  0.76100  0.23900  0.01380  1.0000
  Yb  Yb2       1.0  0.73900  0.73900  0.01380  1.0000
  Yb  Yb3       1.0  0.47200  0.00219  0.25000  1.0000
  Yb  Yb4       1.0  0.02770  0.50200  0.25000  1.0000
  Yb  Yb5       1.0  0.76100  0.23900  0.48600  1.0000
  Yb  Yb6       1.0  0.73900  0.73900  0.48600  1.0000
  Yb  Yb7       1.0  0.26100  0.26100  0.51400  1.0000
  Yb  Yb8       1.0  0.23900  0.76100  0.51400  1.0000
  Yb  Yb9       1.0  0.97200  0.49800  0.75000  1.0000
  Yb  Yb10      1.0  0.52800  0.99800  0.75000  1.0000
  Yb  Yb11      1.0  0.26100  0.26100  0.98600  1.0000
  Yb  Yb12      1.0  0.23900  0.76100  0.98600  1.0000
