data_image0
_chemical_formula_structural       O12P8
_chemical_formula_sum              "O12 P8"
_cell_length_a       5.93331
_cell_length_b       7.52774
_cell_length_c       6.46848
_cell_angle_alpha    90
_cell_angle_beta     108.04
_cell_angle_gamma    90

_space_group_name_H-M_alt    "P 1"
_space_group_IT_number       1

loop_
  _space_group_symop_operation_xyz
  'x, y, z'

loop_
  _atom_site_type_symbol
  _atom_site_label
  _atom_site_symmetry_multiplicity
  _atom_site_fract_x
  _atom_site_fract_y
  _atom_site_fract_z
  _atom_site_occupancy
  O   O1        1.0  0.16700  0.75000  0.00520  1.0000
  O   O2        1.0  0.53400  0.58100  0.21700  1.0000
  O   O3        1.0  0.53400  0.91900  0.21700  1.0000
  O   O4        1.0  0.16800  0.58000  0.34600  1.0000
  O   O5        1.0  0.16800  0.92000  0.34600  1.0000
  O   O6        1.0  0.46300  0.25000  0.44100  1.0000
  O   O7        1.0  0.53700  0.75000  0.55900  1.0000
  O   O8        1.0  0.83200  0.07990  0.65400  1.0000
  O   O9        1.0  0.83200  0.42000  0.65400  1.0000
  O   O10       1.0  0.46600  0.08080  0.78300  1.0000
  O   O11       1.0  0.46600  0.41900  0.78300  1.0000
  O   O12       1.0  0.83300  0.25000  0.99500  1.0000
  P   P1        1.0  0.24000  0.55300  0.12000  1.0000
  P   P2        1.0  0.24000  0.94700  0.12000  1.0000
  P   P3        1.0  0.67200  0.75000  0.37000  1.0000
  P   P4        1.0  0.75700  0.25000  0.48000  1.0000
  P   P5        1.0  0.24300  0.75000  0.52000  1.0000
  P   P6        1.0  0.32800  0.25000  0.63000  1.0000
  P   P7        1.0  0.76000  0.05310  0.88000  1.0000
  P   P8        1.0  0.76000  0.44700  0.88000  1.0000
