data_image0
_chemical_formula_structural       B4Cs4Se12
_chemical_formula_sum              "B4 Cs4 Se12"
_cell_length_a       7.81304
_cell_length_b       13.1228
_cell_length_c       6.25837
_cell_angle_alpha    90
_cell_angle_beta     106.919
_cell_angle_gamma    90

_space_group_name_H-M_alt    "P 1"
_space_group_IT_number       1

loop_
  _space_group_symop_operation_xyz
  'x, y, z'

loop_
  _atom_site_type_symbol
  _atom_site_label
  _atom_site_symmetry_multiplicity
  _atom_site_fract_x
  _atom_site_fract_y
  _atom_site_fract_z
  _atom_site_occupancy
  B   B1        1.0  0.70600  0.26900  0.15600  1.0000
  B   B2        1.0  0.29400  0.76900  0.34400  1.0000
  B   B3        1.0  0.70600  0.23100  0.65600  1.0000
  B   B4        1.0  0.29400  0.73100  0.84400  1.0000
  Cs  Cs1       1.0  0.26000  0.42300  0.21300  1.0000
  Cs  Cs2       1.0  0.74000  0.92300  0.28700  1.0000
  Cs  Cs3       1.0  0.26000  0.07740  0.71300  1.0000
  Cs  Cs4       1.0  0.74000  0.57700  0.78700  1.0000
  Se  Se1       1.0  0.93400  0.18300  0.16200  1.0000
  Se  Se2       1.0  0.44700  0.69700  0.16400  1.0000
  Se  Se3       1.0  0.20100  0.90300  0.18400  1.0000
  Se  Se4       1.0  0.79900  0.40300  0.31600  1.0000
  Se  Se5       1.0  0.55300  0.19700  0.33600  1.0000
  Se  Se6       1.0  0.06590  0.68300  0.33800  1.0000
  Se  Se7       1.0  0.93400  0.31700  0.66200  1.0000
  Se  Se8       1.0  0.44700  0.80300  0.66400  1.0000
  Se  Se9       1.0  0.20100  0.59700  0.68400  1.0000
  Se  Se10      1.0  0.79900  0.09660  0.81600  1.0000
  Se  Se11      1.0  0.55300  0.30300  0.83600  1.0000
  Se  Se12      1.0  0.06590  0.81700  0.83800  1.0000
