data_image0
_chemical_formula_structural       F4H12O4
_chemical_formula_sum              "F4 H12 O4"
_cell_length_a       5.39127
_cell_length_b       4.09352
_cell_length_c       5.86749
_cell_angle_alpha    90
_cell_angle_beta     90
_cell_angle_gamma    90

_space_group_name_H-M_alt    "P 1"
_space_group_IT_number       1

loop_
  _space_group_symop_operation_xyz
  'x, y, z'

loop_
  _atom_site_type_symbol
  _atom_site_label
  _atom_site_symmetry_multiplicity
  _atom_site_fract_x
  _atom_site_fract_y
  _atom_site_fract_z
  _atom_site_occupancy
  F   F1        1.0  0.88700  0.75000  0.12600  1.0000
  F   F2        1.0  0.38700  0.75000  0.37400  1.0000
  F   F3        1.0  0.61300  0.25000  0.62600  1.0000
  F   F4        1.0  0.11300  0.25000  0.87400  1.0000
  H   H1        1.0  0.30600  0.25000  0.03330  1.0000
  H   H2        1.0  0.91800  0.04230  0.24300  1.0000
  H   H3        1.0  0.91800  0.45800  0.24300  1.0000
  H   H4        1.0  0.41800  0.04230  0.25700  1.0000
  H   H5        1.0  0.41800  0.45800  0.25700  1.0000
  H   H6        1.0  0.80600  0.25000  0.46700  1.0000
  H   H7        1.0  0.19400  0.75000  0.53300  1.0000
  H   H8        1.0  0.58200  0.54200  0.74300  1.0000
  H   H9        1.0  0.58200  0.95800  0.74300  1.0000
  H   H10       1.0  0.08170  0.54200  0.75700  1.0000
  H   H11       1.0  0.08170  0.95800  0.75700  1.0000
  H   H12       1.0  0.69400  0.75000  0.96700  1.0000
  O   O1        1.0  0.44300  0.25000  0.15700  1.0000
  O   O2        1.0  0.94300  0.25000  0.34300  1.0000
  O   O3        1.0  0.05700  0.75000  0.65700  1.0000
  O   O4        1.0  0.55700  0.75000  0.84300  1.0000
