data_image0
_chemical_formula_structural       C8Ce8Re4
_chemical_formula_sum              "C8 Ce8 Re4"
_cell_length_a       6.77363
_cell_length_b       5.46156
_cell_length_c       10.3766
_cell_angle_alpha    90
_cell_angle_beta     90
_cell_angle_gamma    90

_space_group_name_H-M_alt    "P 1"
_space_group_IT_number       1

loop_
  _space_group_symop_operation_xyz
  'x, y, z'

loop_
  _atom_site_type_symbol
  _atom_site_label
  _atom_site_symmetry_multiplicity
  _atom_site_fract_x
  _atom_site_fract_y
  _atom_site_fract_z
  _atom_site_occupancy
  C   C1        1.0  0.81000  0.75000  0.03330  1.0000
  C   C2        1.0  0.52900  0.25000  0.24200  1.0000
  C   C3        1.0  0.02890  0.25000  0.25800  1.0000
  C   C4        1.0  0.31000  0.75000  0.46700  1.0000
  C   C5        1.0  0.69000  0.25000  0.53300  1.0000
  C   C6        1.0  0.97100  0.75000  0.74200  1.0000
  C   C7        1.0  0.47100  0.75000  0.75800  1.0000
  C   C8        1.0  0.19000  0.25000  0.96700  1.0000
  Ce  Ce1       1.0  0.80800  0.25000  0.04880  1.0000
  Ce  Ce2       1.0  0.52400  0.75000  0.21300  1.0000
  Ce  Ce3       1.0  0.02360  0.75000  0.28700  1.0000
  Ce  Ce4       1.0  0.30800  0.25000  0.45100  1.0000
  Ce  Ce5       1.0  0.69200  0.75000  0.54900  1.0000
  Ce  Ce6       1.0  0.97600  0.25000  0.71300  1.0000
  Ce  Ce7       1.0  0.47600  0.25000  0.78700  1.0000
  Ce  Ce8       1.0  0.19200  0.75000  0.95100  1.0000
  Re  Re1       1.0  0.26600  0.25000  0.14500  1.0000
  Re  Re2       1.0  0.76600  0.25000  0.35500  1.0000
  Re  Re3       1.0  0.23400  0.75000  0.64500  1.0000
  Re  Re4       1.0  0.73400  0.75000  0.85500  1.0000
