data_image0
_chemical_formula_structural       K2O13Ti6
_chemical_formula_sum              "K2 O13 Ti6"
_cell_length_a       3.81503
_cell_length_b       7.97264
_cell_length_c       9.13307
_cell_angle_alpha    99.1901
_cell_angle_beta     90
_cell_angle_gamma    103.843

_space_group_name_H-M_alt    "P 1"
_space_group_IT_number       1

loop_
  _space_group_symop_operation_xyz
  'x, y, z'

loop_
  _atom_site_type_symbol
  _atom_site_label
  _atom_site_symmetry_multiplicity
  _atom_site_fract_x
  _atom_site_fract_y
  _atom_site_fract_z
  _atom_site_occupancy
  K   K1        1.0  0.45400  0.90800  0.24600  1.0000
  K   K2        1.0  0.54600  0.09190  0.75400  1.0000
  O   O1        1.0  0.00000  0.00000  0.00000  1.0000
  O   O2        1.0  0.83300  0.66600  0.08260  1.0000
  O   O3        1.0  0.64100  0.28200  0.11500  1.0000
  O   O4        1.0  0.24000  0.47900  0.24400  1.0000
  O   O5        1.0  0.07440  0.14900  0.29200  1.0000
  O   O6        1.0  0.86900  0.73700  0.38300  1.0000
  O   O7        1.0  0.70300  0.40500  0.42800  1.0000
  O   O8        1.0  0.29700  0.59500  0.57200  1.0000
  O   O9        1.0  0.13100  0.26300  0.61700  1.0000
  O   O10       1.0  0.92600  0.85100  0.70800  1.0000
  O   O11       1.0  0.76000  0.52100  0.75600  1.0000
  O   O12       1.0  0.35900  0.71800  0.88500  1.0000
  O   O13       1.0  0.16700  0.33400  0.91700  1.0000
  Ti  Ti1       1.0  0.11500  0.23000  0.09790  1.0000
  Ti  Ti2       1.0  0.76700  0.53500  0.22700  1.0000
  Ti  Ti3       1.0  0.17000  0.34000  0.43800  1.0000
  Ti  Ti4       1.0  0.83000  0.66000  0.56200  1.0000
  Ti  Ti5       1.0  0.23300  0.46500  0.77300  1.0000
  Ti  Ti6       1.0  0.88500  0.77000  0.90200  1.0000
