data_image0
_chemical_formula_structural       Br2F12O4Sb2
_chemical_formula_sum              "Br2 F12 O4 Sb2"
_cell_length_a       6.863
_cell_length_b       5.51305
_cell_length_c       9.2946
_cell_angle_alpha    90
_cell_angle_beta     133.398
_cell_angle_gamma    90

_space_group_name_H-M_alt    "P 1"
_space_group_IT_number       1

loop_
  _space_group_symop_operation_xyz
  'x, y, z'

loop_
  _atom_site_type_symbol
  _atom_site_label
  _atom_site_symmetry_multiplicity
  _atom_site_fract_x
  _atom_site_fract_y
  _atom_site_fract_z
  _atom_site_occupancy
  Br  Br1       1.0  0.50000  0.87600  0.25000  1.0000
  Br  Br2       1.0  0.50000  0.12400  0.75000  1.0000
  F   F1        1.0  0.32400  0.51700  0.02360  1.0000
  F   F2        1.0  0.14400  0.24000  0.19600  1.0000
  F   F3        1.0  0.13400  0.73300  0.19900  1.0000
  F   F4        1.0  0.86600  0.73300  0.30100  1.0000
  F   F5        1.0  0.85600  0.24000  0.30400  1.0000
  F   F6        1.0  0.67600  0.51700  0.47600  1.0000
  F   F7        1.0  0.32400  0.48300  0.52400  1.0000
  F   F8        1.0  0.14400  0.76000  0.69600  1.0000
  F   F9        1.0  0.13400  0.26700  0.69900  1.0000
  F   F10       1.0  0.86600  0.26700  0.80100  1.0000
  F   F11       1.0  0.85600  0.76000  0.80400  1.0000
  F   F12       1.0  0.67600  0.48300  0.97600  1.0000
  O   O1        1.0  0.35100  0.03640  0.05340  1.0000
  O   O2        1.0  0.64900  0.03640  0.44700  1.0000
  O   O3        1.0  0.35100  0.96400  0.55300  1.0000
  O   O4        1.0  0.64900  0.96400  0.94700  1.0000
  Sb  Sb1       1.0  1.00000  0.47300  0.25000  1.0000
  Sb  Sb2       1.0  0.00000  0.52700  0.75000  1.0000
