data_image0
_chemical_formula_structural       Ge4Na2O12V2
_chemical_formula_sum              "Ge4 Na2 O12 V2"
_cell_length_a       5.50725
_cell_length_b       6.68503
_cell_length_c       6.68504
_cell_angle_alpha    97.7341
_cell_angle_beta     101.956
_cell_angle_gamma    78.0438

_space_group_name_H-M_alt    "P 1"
_space_group_IT_number       1

loop_
  _space_group_symop_operation_xyz
  'x, y, z'

loop_
  _atom_site_type_symbol
  _atom_site_label
  _atom_site_symmetry_multiplicity
  _atom_site_fract_x
  _atom_site_fract_y
  _atom_site_fract_z
  _atom_site_occupancy
  Ge  Ge1       1.0  0.76700  0.69100  0.11700  1.0000
  Ge  Ge2       1.0  0.26700  0.88300  0.30900  1.0000
  Ge  Ge3       1.0  0.73300  0.11700  0.69100  1.0000
  Ge  Ge4       1.0  0.23300  0.30900  0.88300  1.0000
  Na  Na1       1.0  0.75000  0.19100  0.19100  1.0000
  Na  Na2       1.0  0.25000  0.80900  0.80900  1.0000
  O   O1        1.0  0.99800  0.84100  0.11700  1.0000
  O   O2        1.0  0.32600  0.41400  0.13300  1.0000
  O   O3        1.0  0.49800  0.88300  0.15900  1.0000
  O   O4        1.0  0.86600  0.51900  0.30700  1.0000
  O   O5        1.0  0.17400  0.13300  0.41400  1.0000
  O   O6        1.0  0.36600  0.69300  0.48100  1.0000
  O   O7        1.0  0.63400  0.30700  0.51900  1.0000
  O   O8        1.0  0.82600  0.86700  0.58600  1.0000
  O   O9        1.0  0.13400  0.48100  0.69300  1.0000
  O   O10       1.0  0.50200  0.11700  0.84100  1.0000
  O   O11       1.0  0.67400  0.58600  0.86700  1.0000
  O   O12       1.0  0.00197  0.15900  0.88300  1.0000
  V   V1        1.0  0.25000  0.40700  0.40700  1.0000
  V   V2        1.0  0.75000  0.59300  0.59300  1.0000
