data_image0
_chemical_formula_structural       Al13Cr4Si4
_chemical_formula_sum              "Al13 Cr4 Si4"
_cell_length_a       7.70905
_cell_length_b       7.70905
_cell_length_c       7.70905
_cell_angle_alpha    120
_cell_angle_beta     90
_cell_angle_gamma    120

_space_group_name_H-M_alt    "P 1"
_space_group_IT_number       1

loop_
  _space_group_symop_operation_xyz
  'x, y, z'

loop_
  _atom_site_type_symbol
  _atom_site_label
  _atom_site_symmetry_multiplicity
  _atom_site_fract_x
  _atom_site_fract_y
  _atom_site_fract_z
  _atom_site_occupancy
  Al  Al1       1.0  0.00000  0.00000  0.00000  1.0000
  Al  Al2       1.0  0.30900  0.00000  0.30900  1.0000
  Al  Al3       1.0  0.30900  0.61900  0.30900  1.0000
  Al  Al4       1.0  0.69100  0.00000  0.30900  1.0000
  Al  Al5       1.0  0.05920  0.50000  0.55900  1.0000
  Al  Al6       1.0  0.44100  0.50000  0.55900  1.0000
  Al  Al7       1.0  0.05920  0.11800  0.55900  1.0000
  Al  Al8       1.0  0.69100  0.00000  0.69100  1.0000
  Al  Al9       1.0  0.30900  0.00000  0.69100  1.0000
  Al  Al10      1.0  0.69100  0.38100  0.69100  1.0000
  Al  Al11      1.0  0.05920  0.50000  0.94100  1.0000
  Al  Al12      1.0  0.44100  0.50000  0.94100  1.0000
  Al  Al13      1.0  0.44100  0.88200  0.94100  1.0000
  Cr  Cr1       1.0  0.65800  0.31500  0.34200  1.0000
  Cr  Cr2       1.0  0.02690  0.68500  0.34200  1.0000
  Cr  Cr3       1.0  0.65800  0.68500  0.34200  1.0000
  Cr  Cr4       1.0  0.65800  0.31500  0.97300  1.0000
  Si  Si1       1.0  0.38200  0.25500  0.12700  1.0000
  Si  Si2       1.0  0.87300  0.25500  0.12700  1.0000
  Si  Si3       1.0  0.87300  0.74500  0.12700  1.0000
  Si  Si4       1.0  0.87300  0.74500  0.61800  1.0000
