data_image0
_chemical_formula_structural       Mn12P7Yb2
_chemical_formula_sum              "Mn12 P7 Yb2"
_cell_length_a       9.36679
_cell_length_b       9.36681
_cell_length_c       3.50046
_cell_angle_alpha    90
_cell_angle_beta     90
_cell_angle_gamma    120.001

_space_group_name_H-M_alt    "P 1"
_space_group_IT_number       1

loop_
  _space_group_symop_operation_xyz
  'x, y, z'

loop_
  _atom_site_type_symbol
  _atom_site_label
  _atom_site_symmetry_multiplicity
  _atom_site_fract_x
  _atom_site_fract_y
  _atom_site_fract_z
  _atom_site_occupancy
  Mn  Mn1       1.0  0.42900  0.05100  0.00000  1.0000
  Mn  Mn2       1.0  0.15800  0.27600  0.00000  1.0000
  Mn  Mn3       1.0  0.94900  0.37800  0.00000  1.0000
  Mn  Mn4       1.0  0.62200  0.57100  0.00000  1.0000
  Mn  Mn5       1.0  0.11800  0.84200  0.00000  1.0000
  Mn  Mn6       1.0  0.72400  0.88200  0.00000  1.0000
  Mn  Mn7       1.0  0.23200  0.09940  0.50000  1.0000
  Mn  Mn8       1.0  0.90100  0.13200  0.50000  1.0000
  Mn  Mn9       1.0  0.38400  0.43300  0.50000  1.0000
  Mn  Mn10      1.0  0.04840  0.61600  0.50000  1.0000
  Mn  Mn11      1.0  0.86800  0.76800  0.50000  1.0000
  Mn  Mn12      1.0  0.56700  0.95200  0.50000  1.0000
  P   P1        1.0  0.99999  0.99999  0.00000  1.0000
  P   P2        1.0  0.71100  0.12300  0.00000  1.0000
  P   P3        1.0  0.41200  0.28900  0.00000  1.0000
  P   P4        1.0  0.87700  0.58800  0.00000  1.0000
  P   P5        1.0  0.12500  0.41600  0.50000  1.0000
  P   P6        1.0  0.58400  0.70900  0.50000  1.0000
  P   P7        1.0  0.29100  0.87500  0.50000  1.0000
  Yb  Yb1       1.0  0.33300  0.66700  0.00000  1.0000
  Yb  Yb2       1.0  0.66700  0.33300  0.50000  1.0000
