data_image0
_chemical_formula_structural       Cl4Na4O12
_chemical_formula_sum              "Cl4 Na4 O12"
_cell_length_a       6.4734
_cell_length_b       6.4734
_cell_length_c       6.4734
_cell_angle_alpha    90
_cell_angle_beta     90
_cell_angle_gamma    90

_space_group_name_H-M_alt    "P 1"
_space_group_IT_number       1

loop_
  _space_group_symop_operation_xyz
  'x, y, z'

loop_
  _atom_site_type_symbol
  _atom_site_label
  _atom_site_symmetry_multiplicity
  _atom_site_fract_x
  _atom_site_fract_y
  _atom_site_fract_z
  _atom_site_occupancy
  Cl  Cl1       1.0  0.58300  0.91700  0.08330  1.0000
  Cl  Cl2       1.0  0.41700  0.41700  0.41700  1.0000
  Cl  Cl3       1.0  0.91700  0.08330  0.58300  1.0000
  Cl  Cl4       1.0  0.08330  0.58300  0.91700  1.0000
  Na  Na1       1.0  0.06800  0.06800  0.06800  1.0000
  Na  Na2       1.0  0.93200  0.56800  0.43200  1.0000
  Na  Na3       1.0  0.43200  0.93200  0.56800  1.0000
  Na  Na4       1.0  0.56800  0.43200  0.93200  1.0000
  O   O1        1.0  0.20000  0.40300  0.00621  1.0000
  O   O2        1.0  0.99400  0.70000  0.09660  1.0000
  O   O3        1.0  0.40300  0.00621  0.20000  1.0000
  O   O4        1.0  0.59700  0.50600  0.30000  1.0000
  O   O5        1.0  0.00621  0.20000  0.40300  1.0000
  O   O6        1.0  0.80000  0.90300  0.49400  1.0000
  O   O7        1.0  0.30000  0.59700  0.50600  1.0000
  O   O8        1.0  0.50600  0.30000  0.59700  1.0000
  O   O9        1.0  0.09660  0.99400  0.70000  1.0000
  O   O10       1.0  0.90300  0.49400  0.80000  1.0000
  O   O11       1.0  0.49400  0.80000  0.90300  1.0000
  O   O12       1.0  0.70000  0.09660  0.99400  1.0000
