data_image0
_chemical_formula_structural       Cl2F12O4Sb2
_chemical_formula_sum              "Cl2 F12 O4 Sb2"
_cell_length_a       6.82544
_cell_length_b       5.48697
_cell_length_c       9.52057
_cell_angle_alpha    90
_cell_angle_beta     136.057
_cell_angle_gamma    90

_space_group_name_H-M_alt    "P 1"
_space_group_IT_number       1

loop_
  _space_group_symop_operation_xyz
  'x, y, z'

loop_
  _atom_site_type_symbol
  _atom_site_label
  _atom_site_symmetry_multiplicity
  _atom_site_fract_x
  _atom_site_fract_y
  _atom_site_fract_z
  _atom_site_occupancy
  Cl  Cl1       1.0  0.00000  0.61700  0.25000  1.0000
  Cl  Cl2       1.0  1.00000  0.38300  0.75000  1.0000
  F   F1        1.0  0.78200  0.99700  0.03700  1.0000
  F   F2        1.0  0.29500  0.25000  0.24500  1.0000
  F   F3        1.0  0.31000  0.74800  0.24500  1.0000
  F   F4        1.0  0.69000  0.74800  0.25500  1.0000
  F   F5        1.0  0.70500  0.25000  0.25500  1.0000
  F   F6        1.0  0.21800  0.99700  0.46300  1.0000
  F   F7        1.0  0.78200  0.00307  0.53700  1.0000
  F   F8        1.0  0.29500  0.75000  0.74500  1.0000
  F   F9        1.0  0.31000  0.25200  0.74500  1.0000
  F   F10       1.0  0.69000  0.25200  0.75500  1.0000
  F   F11       1.0  0.70500  0.75000  0.75500  1.0000
  F   F12       1.0  0.21800  0.00307  0.96300  1.0000
  O   O1        1.0  0.81300  0.48300  0.06610  1.0000
  O   O2        1.0  0.18700  0.48300  0.43400  1.0000
  O   O3        1.0  0.81300  0.51700  0.56600  1.0000
  O   O4        1.0  0.18700  0.51700  0.93400  1.0000
  Sb  Sb1       1.0  0.50000  0.01330  0.25000  1.0000
  Sb  Sb2       1.0  0.50000  0.98700  0.75000  1.0000
