data_image0
_chemical_formula_structural       Fe9Ga12
_chemical_formula_sum              "Fe9 Ga12"
_cell_length_a       6.30354
_cell_length_b       6.30354
_cell_length_c       7.8314
_cell_angle_alpha    102.741
_cell_angle_beta     77.2591
_cell_angle_gamma    105.422

_space_group_name_H-M_alt    "P 1"
_space_group_IT_number       1

loop_
  _space_group_symop_operation_xyz
  'x, y, z'

loop_
  _atom_site_type_symbol
  _atom_site_label
  _atom_site_symmetry_multiplicity
  _atom_site_fract_x
  _atom_site_fract_y
  _atom_site_fract_z
  _atom_site_occupancy
  Fe  Fe1       1.0  0.00000  0.00000  0.00000  1.0000
  Fe  Fe2       1.0  0.33700  0.06560  0.15200  1.0000
  Fe  Fe3       1.0  0.93400  0.66300  0.15200  1.0000
  Fe  Fe4       1.0  0.50600  0.49400  0.31000  1.0000
  Fe  Fe5       1.0  0.22400  0.77600  0.36100  1.0000
  Fe  Fe6       1.0  0.77600  0.22400  0.63900  1.0000
  Fe  Fe7       1.0  0.49400  0.50600  0.69000  1.0000
  Fe  Fe8       1.0  0.06560  0.33700  0.84800  1.0000
  Fe  Fe9       1.0  0.66300  0.93400  0.84800  1.0000
  Ga  Ga1       1.0  0.73100  0.26900  0.08390  1.0000
  Ga  Ga2       1.0  0.18900  0.40600  0.15100  1.0000
  Ga  Ga3       1.0  0.59400  0.81100  0.15100  1.0000
  Ga  Ga4       1.0  0.95900  0.04110  0.34700  1.0000
  Ga  Ga5       1.0  0.46200  0.16700  0.45000  1.0000
  Ga  Ga6       1.0  0.83300  0.53800  0.45000  1.0000
  Ga  Ga7       1.0  0.16700  0.46200  0.55000  1.0000
  Ga  Ga8       1.0  0.53800  0.83300  0.55000  1.0000
  Ga  Ga9       1.0  0.04110  0.95900  0.65300  1.0000
  Ga  Ga10      1.0  0.40600  0.18900  0.84900  1.0000
  Ga  Ga11      1.0  0.81100  0.59400  0.84900  1.0000
  Ga  Ga12      1.0  0.26900  0.73100  0.91600  1.0000
