data_image0
_chemical_formula_structural       Cl2F12Pb7
_chemical_formula_sum              "Cl2 F12 Pb7"
_cell_length_a       10.1449
_cell_length_b       10.1449
_cell_length_c       3.9226
_cell_angle_alpha    90
_cell_angle_beta     90
_cell_angle_gamma    120

_space_group_name_H-M_alt    "P 1"
_space_group_IT_number       1

loop_
  _space_group_symop_operation_xyz
  'x, y, z'

loop_
  _atom_site_type_symbol
  _atom_site_label
  _atom_site_symmetry_multiplicity
  _atom_site_fract_x
  _atom_site_fract_y
  _atom_site_fract_z
  _atom_site_occupancy
  Cl  Cl1       1.0  0.66700  0.33300  0.00000  1.0000
  Cl  Cl2       1.0  0.33300  0.66700  0.50000  1.0000
  F   F1        1.0  0.21200  0.08400  0.00000  1.0000
  F   F2        1.0  0.91600  0.12800  0.00000  1.0000
  F   F3        1.0  0.38900  0.42800  0.00000  1.0000
  F   F4        1.0  0.03920  0.61100  0.00000  1.0000
  F   F5        1.0  0.87200  0.78800  0.00000  1.0000
  F   F6        1.0  0.57200  0.96100  0.00000  1.0000
  F   F7        1.0  0.43100  0.05150  0.50000  1.0000
  F   F8        1.0  0.16400  0.27900  0.50000  1.0000
  F   F9        1.0  0.94900  0.37900  0.50000  1.0000
  F   F10       1.0  0.62100  0.56900  0.50000  1.0000
  F   F11       1.0  0.11500  0.83600  0.50000  1.0000
  F   F12       1.0  0.72100  0.88500  0.50000  1.0000
  Pb  Pb1       1.0  0.11700  0.40400  0.00000  1.0000
  Pb  Pb2       1.0  0.59600  0.71300  0.00000  1.0000
  Pb  Pb3       1.0  0.28700  0.88300  0.00000  1.0000
  Pb  Pb4       1.0  0.00000  1.00000  0.50000  1.0000
  Pb  Pb5       1.0  0.70000  0.11400  0.50000  1.0000
  Pb  Pb6       1.0  0.41400  0.30000  0.50000  1.0000
  Pb  Pb7       1.0  0.88600  0.58600  0.50000  1.0000
