data_image0
_chemical_formula_structural       Al2H12K4Na2
_chemical_formula_sum              "Al2 H12 K4 Na2"
_cell_length_a       5.62381
_cell_length_b       5.59502
_cell_length_c       7.96505
_cell_angle_alpha    89.9451
_cell_angle_beta     90.0962
_cell_angle_gamma    89.8806

_space_group_name_H-M_alt    "P 1"
_space_group_IT_number       1

loop_
  _space_group_symop_operation_xyz
  'x, y, z'

loop_
  _atom_site_type_symbol
  _atom_site_label
  _atom_site_symmetry_multiplicity
  _atom_site_fract_x
  _atom_site_fract_y
  _atom_site_fract_z
  _atom_site_occupancy
  Al  Al1       1.0  0.55000  0.55000  0.50000  1.0000
  Al  Al2       1.0  0.05060  0.04990  0.00000  1.0000
  H   H1        1.0  0.82700  0.83000  0.00048  1.0000
  H   H2        1.0  0.26900  0.82500  0.00085  1.0000
  H   H3        1.0  0.05060  0.05110  0.22100  1.0000
  H   H4        1.0  0.55000  0.54900  0.27900  1.0000
  H   H5        1.0  0.33400  0.77700  0.49900  1.0000
  H   H6        1.0  0.77500  0.76700  0.50000  1.0000
  H   H7        1.0  0.32300  0.33400  0.50000  1.0000
  H   H8        1.0  0.76500  0.32300  0.50100  1.0000
  H   H9        1.0  0.54900  0.55100  0.72100  1.0000
  H   H10       1.0  0.05050  0.04890  0.77900  1.0000
  H   H11       1.0  0.83200  0.27400  0.99900  1.0000
  H   H12       1.0  0.27400  0.26900  1.00000  1.0000
  K   K1        1.0  0.05010  0.55000  0.25000  1.0000
  K   K2        1.0  0.55000  0.04990  0.25000  1.0000
  K   K3        1.0  0.04980  0.55000  0.75000  1.0000
  K   K4        1.0  0.55000  0.04980  0.75000  1.0000
  Na  Na1       1.0  0.55000  0.55000  0.00000  1.0000
  Na  Na2       1.0  0.04970  0.05030  0.50000  1.0000
