data_image0
_chemical_formula_structural       Cs2F6MnNa
_chemical_formula_sum              "Cs2 F6 Mn1 Na1"
_cell_length_a       6.01604
_cell_length_b       6.01775
_cell_length_c       6.01604
_cell_angle_alpha    120.01
_cell_angle_beta     89.9664
_cell_angle_gamma    120.01

_space_group_name_H-M_alt    "P 1"
_space_group_IT_number       1

loop_
  _space_group_symop_operation_xyz
  'x, y, z'

loop_
  _atom_site_type_symbol
  _atom_site_label
  _atom_site_symmetry_multiplicity
  _atom_site_fract_x
  _atom_site_fract_y
  _atom_site_fract_z
  _atom_site_occupancy
  Cs  Cs1       1.0  0.75000  0.50000  0.25000  1.0000
  Cs  Cs2       1.0  0.25000  0.50000  0.75000  1.0000
  F   F1        1.0  0.77100  0.00000  0.22900  1.0000
  F   F2        1.0  0.23000  0.45900  0.23000  1.0000
  F   F3        1.0  0.23000  0.00000  0.23000  1.0000
  F   F4        1.0  0.77000  0.00000  0.77000  1.0000
  F   F5        1.0  0.77000  0.54100  0.77000  1.0000
  F   F6        1.0  0.22900  0.00000  0.77100  1.0000
  Mn  Mn1       1.0  0.00000  0.00000  0.00000  1.0000
  Na  Na1       1.0  0.50000  0.00000  0.50000  1.0000
