data_image0
_chemical_formula_structural       Cl12N4W4
_chemical_formula_sum              "Cl12 N4 W4"
_cell_length_a       7.96234
_cell_length_b       8.29485
_cell_length_c       9.21072
_cell_angle_alpha    97.7698
_cell_angle_beta     107.902
_cell_angle_gamma    110.544

_space_group_name_H-M_alt    "P 1"
_space_group_IT_number       1

loop_
  _space_group_symop_operation_xyz
  'x, y, z'

loop_
  _atom_site_type_symbol
  _atom_site_label
  _atom_site_symmetry_multiplicity
  _atom_site_fract_x
  _atom_site_fract_y
  _atom_site_fract_z
  _atom_site_occupancy
  Cl  Cl1       1.0  0.05880  0.22500  0.04500  1.0000
  Cl  Cl2       1.0  0.67800  0.94900  0.10500  1.0000
  Cl  Cl3       1.0  0.77800  0.42800  0.15600  1.0000
  Cl  Cl4       1.0  0.31900  0.06940  0.29800  1.0000
  Cl  Cl5       1.0  0.56500  0.61000  0.34000  1.0000
  Cl  Cl6       1.0  0.19000  0.64200  0.47500  1.0000
  Cl  Cl7       1.0  0.81000  0.35800  0.52500  1.0000
  Cl  Cl8       1.0  0.43500  0.39000  0.66000  1.0000
  Cl  Cl9       1.0  0.68100  0.93100  0.70200  1.0000
  Cl  Cl10      1.0  0.22200  0.57200  0.84400  1.0000
  Cl  Cl11      1.0  0.32200  0.05120  0.89500  1.0000
  Cl  Cl12      1.0  0.94100  0.77500  0.95500  1.0000
  N   N1        1.0  0.94900  0.84000  0.31200  1.0000
  N   N2        1.0  0.05170  0.21900  0.39100  1.0000
  N   N3        1.0  0.94800  0.78100  0.60900  1.0000
  N   N4        1.0  0.05090  0.16000  0.68800  1.0000
  W   W1        1.0  0.00956  0.05650  0.22700  1.0000
  W   W2        1.0  0.87800  0.65200  0.38100  1.0000
  W   W3        1.0  0.12200  0.34800  0.61900  1.0000
  W   W4        1.0  0.99000  0.94400  0.77300  1.0000
