data_image0
_chemical_formula_structural       F4Ga2H10N4
_chemical_formula_sum              "F4 Ga2 H10 N4"
_cell_length_a       4.83838
_cell_length_b       5.69818
_cell_length_c       5.86163
_cell_angle_alpha    119.082
_cell_angle_beta     88.3223
_cell_angle_gamma    90

_space_group_name_H-M_alt    "P 1"
_space_group_IT_number       1

loop_
  _space_group_symop_operation_xyz
  'x, y, z'

loop_
  _atom_site_type_symbol
  _atom_site_label
  _atom_site_symmetry_multiplicity
  _atom_site_fract_x
  _atom_site_fract_y
  _atom_site_fract_z
  _atom_site_occupancy
  F   F1        1.0  0.76000  0.32700  0.17200  1.0000
  F   F2        1.0  0.76000  0.84400  0.17200  1.0000
  F   F3        1.0  0.24000  0.15600  0.82800  1.0000
  F   F4        1.0  0.24000  0.67300  0.82800  1.0000
  Ga  Ga1       1.0  0.00000  0.00000  0.00000  1.0000
  Ga  Ga2       1.0  0.50000  0.50000  1.00000  1.0000
  H   H1        1.0  0.44400  0.11100  0.22100  1.0000
  H   H2        1.0  0.06690  0.63700  0.27300  1.0000
  H   H3        1.0  0.22400  0.04690  0.40100  1.0000
  H   H4        1.0  0.22400  0.35400  0.40100  1.0000
  H   H5        1.0  0.33600  0.73900  0.47900  1.0000
  H   H6        1.0  0.66400  0.26100  0.52100  1.0000
  H   H7        1.0  0.77600  0.64600  0.59900  1.0000
  H   H8        1.0  0.77600  0.95300  0.59900  1.0000
  H   H9        1.0  0.93300  0.36300  0.72700  1.0000
  H   H10       1.0  0.55600  0.88900  0.77900  1.0000
  N   N1        1.0  0.27400  0.64600  0.29200  1.0000
  N   N2        1.0  0.24500  0.14800  0.29600  1.0000
  N   N3        1.0  0.75500  0.85200  0.70400  1.0000
  N   N4        1.0  0.72600  0.35400  0.70800  1.0000
