data_image0
_chemical_formula_structural       N8Ni4Sr8
_chemical_formula_sum              "N8 Ni4 Sr8"
_cell_length_a       7.62209
_cell_length_b       3.81228
_cell_length_c       12.4575
_cell_angle_alpha    90
_cell_angle_beta     90
_cell_angle_gamma    90

_space_group_name_H-M_alt    "P 1"
_space_group_IT_number       1

loop_
  _space_group_symop_operation_xyz
  'x, y, z'

loop_
  _atom_site_type_symbol
  _atom_site_label
  _atom_site_symmetry_multiplicity
  _atom_site_fract_x
  _atom_site_fract_y
  _atom_site_fract_z
  _atom_site_occupancy
  N   N1        1.0  0.12600  0.25000  0.10900  1.0000
  N   N2        1.0  0.62600  0.25000  0.10900  1.0000
  N   N3        1.0  0.12600  0.25000  0.39100  1.0000
  N   N4        1.0  0.62600  0.25000  0.39100  1.0000
  N   N5        1.0  0.37400  0.75000  0.60900  1.0000
  N   N6        1.0  0.87400  0.75000  0.60900  1.0000
  N   N7        1.0  0.37400  0.75000  0.89100  1.0000
  N   N8        1.0  0.87400  0.75000  0.89100  1.0000
  Ni  Ni1       1.0  0.12700  0.25000  0.25000  1.0000
  Ni  Ni2       1.0  0.62700  0.25000  0.25000  1.0000
  Ni  Ni3       1.0  0.37300  0.75000  0.75000  1.0000
  Ni  Ni4       1.0  0.87300  0.75000  0.75000  1.0000
  Sr  Sr1       1.0  0.37600  0.75000  0.10200  1.0000
  Sr  Sr2       1.0  0.87600  0.75000  0.10200  1.0000
  Sr  Sr3       1.0  0.37600  0.75000  0.39800  1.0000
  Sr  Sr4       1.0  0.87600  0.75000  0.39800  1.0000
  Sr  Sr5       1.0  0.12400  0.25000  0.60200  1.0000
  Sr  Sr6       1.0  0.62400  0.25000  0.60200  1.0000
  Sr  Sr7       1.0  0.12400  0.25000  0.89800  1.0000
  Sr  Sr8       1.0  0.62400  0.25000  0.89800  1.0000
