data_image0
_chemical_formula_structural       Fe12Gd2P7
_chemical_formula_sum              "Fe12 Gd2 P7"
_cell_length_a       8.97084
_cell_length_b       8.97186
_cell_length_c       3.64215
_cell_angle_alpha    90
_cell_angle_beta     90
_cell_angle_gamma    119.997

_space_group_name_H-M_alt    "P 1"
_space_group_IT_number       1

loop_
  _space_group_symop_operation_xyz
  'x, y, z'

loop_
  _atom_site_type_symbol
  _atom_site_label
  _atom_site_symmetry_multiplicity
  _atom_site_fract_x
  _atom_site_fract_y
  _atom_site_fract_z
  _atom_site_occupancy
  Fe  Fe1       1.0  0.42700  0.05500  0.00000  1.0000
  Fe  Fe2       1.0  0.15500  0.27400  0.00000  1.0000
  Fe  Fe3       1.0  0.94500  0.37200  0.00000  1.0000
  Fe  Fe4       1.0  0.62800  0.57300  0.00000  1.0000
  Fe  Fe5       1.0  0.12000  0.84500  0.00000  1.0000
  Fe  Fe6       1.0  0.72600  0.88000  0.00000  1.0000
  Fe  Fe7       1.0  0.21500  0.09590  0.50000  1.0000
  Fe  Fe8       1.0  0.90400  0.11900  0.50000  1.0000
  Fe  Fe9       1.0  0.38300  0.43100  0.50000  1.0000
  Fe  Fe10      1.0  0.04800  0.61700  0.50000  1.0000
  Fe  Fe11      1.0  0.88100  0.78500  0.50000  1.0000
  Fe  Fe12      1.0  0.56900  0.95200  0.50000  1.0000
  Gd  Gd1       1.0  0.33300  0.66700  0.00000  1.0000
  Gd  Gd2       1.0  0.66700  0.33300  0.50000  1.0000
  P   P1        1.0  0.00001  0.00000  0.00000  1.0000
  P   P2        1.0  0.70400  0.11300  0.00000  1.0000
  P   P3        1.0  0.40900  0.29600  0.00000  1.0000
  P   P4        1.0  0.88700  0.59100  0.00000  1.0000
  P   P5        1.0  0.11100  0.40000  0.50000  1.0000
  P   P6        1.0  0.60000  0.71100  0.50000  1.0000
  P   P7        1.0  0.28900  0.88900  0.50000  1.0000
