data_image0
_chemical_formula_structural       Pb2S12Ta6
_chemical_formula_sum              "Pb2 S12 Ta6"
_cell_length_a       5.80432
_cell_length_b       5.80434
_cell_length_c       14.9407
_cell_angle_alpha    90.0005
_cell_angle_beta     89.9996
_cell_angle_gamma    120.009

_space_group_name_H-M_alt    "P 1"
_space_group_IT_number       1

loop_
  _space_group_symop_operation_xyz
  'x, y, z'

loop_
  _atom_site_type_symbol
  _atom_site_label
  _atom_site_symmetry_multiplicity
  _atom_site_fract_x
  _atom_site_fract_y
  _atom_site_fract_z
  _atom_site_occupancy
  Pb  Pb1       1.0  0.00000  0.00004  0.25000  1.0000
  Pb  Pb2       1.0  0.00002  0.00000  0.75000  1.0000
  S   S1        1.0  0.33700  0.33700  0.10400  1.0000
  S   S2        1.0  0.66300  0.66300  0.60400  1.0000
  S   S3        1.0  0.66300  0.00003  0.10400  1.0000
  S   S4        1.0  0.00001  0.66300  0.10400  1.0000
  S   S5        1.0  0.00000  0.33700  0.60400  1.0000
  S   S6        1.0  0.33700  1.00000  0.60400  1.0000
  S   S7        1.0  0.00000  0.66300  0.89600  1.0000
  S   S8        1.0  0.66300  0.00005  0.89600  1.0000
  S   S9        1.0  0.33700  0.33700  0.89600  1.0000
  S   S10       1.0  0.66300  0.66300  0.39600  1.0000
  S   S11       1.0  0.33700  1.00000  0.39600  1.0000
  S   S12       1.0  0.00000  0.33700  0.39600  1.0000
  Ta  Ta1       1.0  0.33300  0.66700  0.00000  1.0000
  Ta  Ta2       1.0  0.66700  0.33300  0.50000  1.0000
  Ta  Ta3       1.0  0.66700  0.33300  0.00001  1.0000
  Ta  Ta4       1.0  0.33300  0.66700  0.50000  1.0000
  Ta  Ta5       1.0  0.00000  0.00003  0.00000  1.0000
  Ta  Ta6       1.0  0.00000  0.00000  0.50000  1.0000
