data_image0
_chemical_formula_structural       Br16Ge4
_chemical_formula_sum              "Br16 Ge4"
_cell_length_a       10.8063
_cell_length_b       7.18589
_cell_length_c       10.9584
_cell_angle_alpha    90
_cell_angle_beta     102.755
_cell_angle_gamma    90

_space_group_name_H-M_alt    "P 1"
_space_group_IT_number       1

loop_
  _space_group_symop_operation_xyz
  'x, y, z'

loop_
  _atom_site_type_symbol
  _atom_site_label
  _atom_site_symmetry_multiplicity
  _atom_site_fract_x
  _atom_site_fract_y
  _atom_site_fract_z
  _atom_site_occupancy
  Br  Br1       1.0  0.69800  0.92200  0.02890  1.0000
  Br  Br2       1.0  0.19400  0.62300  0.08590  1.0000
  Br  Br3       1.0  0.57400  0.43000  0.19500  1.0000
  Br  Br4       1.0  0.08500  0.07720  0.19700  1.0000
  Br  Br5       1.0  0.91500  0.57700  0.30300  1.0000
  Br  Br6       1.0  0.42600  0.93000  0.30500  1.0000
  Br  Br7       1.0  0.80600  0.12300  0.41400  1.0000
  Br  Br8       1.0  0.30200  0.42200  0.47100  1.0000
  Br  Br9       1.0  0.69800  0.57800  0.52900  1.0000
  Br  Br10      1.0  0.19400  0.87700  0.58600  1.0000
  Br  Br11      1.0  0.57400  0.07030  0.69500  1.0000
  Br  Br12      1.0  0.08500  0.42300  0.69700  1.0000
  Br  Br13      1.0  0.91500  0.92300  0.80300  1.0000
  Br  Br14      1.0  0.42600  0.57000  0.80500  1.0000
  Br  Br15      1.0  0.80600  0.37700  0.91400  1.0000
  Br  Br16      1.0  0.30200  0.07760  0.97100  1.0000
  Ge  Ge1       1.0  0.25200  0.92600  0.14000  1.0000
  Ge  Ge2       1.0  0.74800  0.42600  0.36000  1.0000
  Ge  Ge3       1.0  0.25200  0.57400  0.64000  1.0000
  Ge  Ge4       1.0  0.74800  0.07380  0.86000  1.0000
