data_image0
_chemical_formula_structural       Ge4Ir4Mn12
_chemical_formula_sum              "Ge4 Ir4 Mn12"
_cell_length_a       6.81403
_cell_length_b       6.81403
_cell_length_c       6.81403
_cell_angle_alpha    90
_cell_angle_beta     90
_cell_angle_gamma    90

_space_group_name_H-M_alt    "P 1"
_space_group_IT_number       1

loop_
  _space_group_symop_operation_xyz
  'x, y, z'

loop_
  _atom_site_type_symbol
  _atom_site_label
  _atom_site_symmetry_multiplicity
  _atom_site_fract_x
  _atom_site_fract_y
  _atom_site_fract_z
  _atom_site_occupancy
  Ge  Ge1       1.0  0.05990  0.05990  0.05990  1.0000
  Ge  Ge2       1.0  0.94000  0.56000  0.44000  1.0000
  Ge  Ge3       1.0  0.44000  0.94000  0.56000  1.0000
  Ge  Ge4       1.0  0.56000  0.44000  0.94000  1.0000
  Ir  Ir1       1.0  0.81700  0.31700  0.18300  1.0000
  Ir  Ir2       1.0  0.18300  0.81700  0.31700  1.0000
  Ir  Ir3       1.0  0.68300  0.68300  0.68300  1.0000
  Ir  Ir4       1.0  0.31700  0.18300  0.81700  1.0000
  Mn  Mn1       1.0  0.88100  0.70500  0.04110  1.0000
  Mn  Mn2       1.0  0.20500  0.45900  0.11900  1.0000
  Mn  Mn3       1.0  0.45900  0.11900  0.20500  1.0000
  Mn  Mn4       1.0  0.54100  0.61900  0.29500  1.0000
  Mn  Mn5       1.0  0.79500  0.95900  0.38100  1.0000
  Mn  Mn6       1.0  0.11900  0.20500  0.45900  1.0000
  Mn  Mn7       1.0  0.61900  0.29500  0.54100  1.0000
  Mn  Mn8       1.0  0.29500  0.54100  0.61900  1.0000
  Mn  Mn9       1.0  0.04110  0.88100  0.70500  1.0000
  Mn  Mn10      1.0  0.95900  0.38100  0.79500  1.0000
  Mn  Mn11      1.0  0.70500  0.04110  0.88100  1.0000
  Mn  Mn12      1.0  0.38100  0.79500  0.95900  1.0000
