data_image0
_chemical_formula_structural       Ca2Mg2O12Si4
_chemical_formula_sum              "Ca2 Mg2 O12 Si4"
_cell_length_a       5.23924
_cell_length_b       6.57858
_cell_length_c       6.57858
_cell_angle_alpha    95.4372
_cell_angle_beta     101.501
_cell_angle_gamma    78.4991

_space_group_name_H-M_alt    "P 1"
_space_group_IT_number       1

loop_
  _space_group_symop_operation_xyz
  'x, y, z'

loop_
  _atom_site_type_symbol
  _atom_site_label
  _atom_site_symmetry_multiplicity
  _atom_site_fract_x
  _atom_site_fract_y
  _atom_site_fract_z
  _atom_site_occupancy
  Ca  Ca1       1.0  0.25000  0.30300  0.30300  1.0000
  Ca  Ca2       1.0  0.75000  0.69700  0.69700  1.0000
  Mg  Mg1       1.0  0.75000  0.09000  0.09000  1.0000
  Mg  Mg2       1.0  0.25000  0.91000  0.91000  1.0000
  O   O1        1.0  0.64200  0.79700  0.02600  1.0000
  O   O2        1.0  0.82200  0.38500  0.10700  1.0000
  O   O3        1.0  0.14200  0.97400  0.20300  1.0000
  O   O4        1.0  0.49400  0.62800  0.33300  1.0000
  O   O5        1.0  0.99400  0.66700  0.37200  1.0000
  O   O6        1.0  0.67800  0.10700  0.38500  1.0000
  O   O7        1.0  0.32200  0.89300  0.61500  1.0000
  O   O8        1.0  0.00575  0.33300  0.62800  1.0000
  O   O9        1.0  0.50600  0.37200  0.66700  1.0000
  O   O10       1.0  0.85800  0.02600  0.79700  1.0000
  O   O11       1.0  0.17800  0.61500  0.89300  1.0000
  O   O12       1.0  0.35800  0.20300  0.97400  1.0000
  Si  Si1       1.0  0.73000  0.61900  0.19100  1.0000
  Si  Si2       1.0  0.23000  0.80900  0.38100  1.0000
  Si  Si3       1.0  0.77000  0.19100  0.61900  1.0000
  Si  Si4       1.0  0.27000  0.38100  0.80900  1.0000
