data_image0
_chemical_formula_structural       C4F12I4
_chemical_formula_sum              "C4 F12 I4"
_cell_length_a       4.31114
_cell_length_b       4.31114
_cell_length_c       18.4421
_cell_angle_alpha    90
_cell_angle_beta     90
_cell_angle_gamma    76.3099

_space_group_name_H-M_alt    "P 1"
_space_group_IT_number       1

loop_
  _space_group_symop_operation_xyz
  'x, y, z'

loop_
  _atom_site_type_symbol
  _atom_site_label
  _atom_site_symmetry_multiplicity
  _atom_site_fract_x
  _atom_site_fract_y
  _atom_site_fract_z
  _atom_site_occupancy
  C   C1        1.0  0.31700  0.68300  0.09660  1.0000
  C   C2        1.0  0.81700  0.18300  0.40300  1.0000
  C   C3        1.0  0.18300  0.81700  0.59700  1.0000
  C   C4        1.0  0.68300  0.31700  0.90300  1.0000
  F   F1        1.0  0.11200  0.56700  0.05610  1.0000
  F   F2        1.0  0.43300  0.88800  0.05610  1.0000
  F   F3        1.0  0.56300  0.43700  0.11500  1.0000
  F   F4        1.0  0.06330  0.93700  0.38500  1.0000
  F   F5        1.0  0.61200  0.06700  0.44400  1.0000
  F   F6        1.0  0.93300  0.38800  0.44400  1.0000
  F   F7        1.0  0.06700  0.61200  0.55600  1.0000
  F   F8        1.0  0.38800  0.93300  0.55600  1.0000
  F   F9        1.0  0.93700  0.06330  0.61500  1.0000
  F   F10       1.0  0.43700  0.56300  0.88500  1.0000
  F   F11       1.0  0.56700  0.11200  0.94400  1.0000
  F   F12       1.0  0.88800  0.43300  0.94400  1.0000
  I   I1        1.0  0.07800  0.92200  0.19100  1.0000
  I   I2        1.0  0.57800  0.42200  0.30900  1.0000
  I   I3        1.0  0.42200  0.57800  0.69100  1.0000
  I   I4        1.0  0.92200  0.07800  0.80900  1.0000
