data_image0
_chemical_formula_structural       Al2Au4O8
_chemical_formula_sum              "Al2 Au4 O8"
_cell_length_a       6.34852
_cell_length_b       6.34852
_cell_length_c       6.34852
_cell_angle_alpha    122.964
_cell_angle_beta     84.9386
_cell_angle_gamma    122.964

_space_group_name_H-M_alt    "P 1"
_space_group_IT_number       1

loop_
  _space_group_symop_operation_xyz
  'x, y, z'

loop_
  _atom_site_type_symbol
  _atom_site_label
  _atom_site_symmetry_multiplicity
  _atom_site_fract_x
  _atom_site_fract_y
  _atom_site_fract_z
  _atom_site_occupancy
  Al  Al1       1.0  0.00000  0.00000  0.00000  1.0000
  Al  Al2       1.0  0.75000  0.50000  0.25000  1.0000
  Au  Au1       1.0  0.37500  0.75000  0.12500  1.0000
  Au  Au2       1.0  0.37500  0.25000  0.62500  1.0000
  Au  Au3       1.0  0.37500  0.75000  0.62500  1.0000
  Au  Au4       1.0  0.87500  0.25000  0.62500  1.0000
  O   O1        1.0  0.09000  0.78600  0.30400  1.0000
  O   O2        1.0  0.51700  0.21400  0.30400  1.0000
  O   O3        1.0  0.05360  0.28600  0.34000  1.0000
  O   O4        1.0  0.69600  0.78600  0.48300  1.0000
  O   O5        1.0  0.05360  0.71400  0.76700  1.0000
  O   O6        1.0  0.69600  0.21400  0.91000  1.0000
  O   O7        1.0  0.23300  0.28600  0.94600  1.0000
  O   O8        1.0  0.66000  0.71400  0.94600  1.0000
