data_image0
_chemical_formula_structural       F12Na6Sc2
_chemical_formula_sum              "F12 Na6 Sc2"
_cell_length_a       5.16623
_cell_length_b       5.57818
_cell_length_c       7.52924
_cell_angle_alpha    90
_cell_angle_beta     91.9418
_cell_angle_gamma    90

_space_group_name_H-M_alt    "P 1"
_space_group_IT_number       1

loop_
  _space_group_symop_operation_xyz
  'x, y, z'

loop_
  _atom_site_type_symbol
  _atom_site_label
  _atom_site_symmetry_multiplicity
  _atom_site_fract_x
  _atom_site_fract_y
  _atom_site_fract_z
  _atom_site_occupancy
  F   F1        1.0  0.14700  0.05910  0.24300  1.0000
  F   F2        1.0  0.35300  0.55900  0.25700  1.0000
  F   F3        1.0  0.85300  0.94100  0.75700  1.0000
  F   F4        1.0  0.64700  0.44100  0.74300  1.0000
  F   F5        1.0  0.68400  0.17500  0.06610  1.0000
  F   F6        1.0  0.81600  0.67500  0.43400  1.0000
  F   F7        1.0  0.31600  0.82500  0.93400  1.0000
  F   F8        1.0  0.18400  0.32500  0.56600  1.0000
  F   F9        1.0  0.16000  0.30500  0.92600  1.0000
  F   F10       1.0  0.34000  0.80500  0.57400  1.0000
  F   F11       1.0  0.84000  0.69500  0.07370  1.0000
  F   F12       1.0  0.66000  0.19500  0.42600  1.0000
  Na  Na1       1.0  0.53200  0.91300  0.24700  1.0000
  Na  Na2       1.0  0.96800  0.41300  0.25300  1.0000
  Na  Na3       1.0  0.46800  0.08730  0.75300  1.0000
  Na  Na4       1.0  0.03180  0.58700  0.74700  1.0000
  Na  Na5       1.0  0.00000  0.00000  0.50000  1.0000
  Na  Na6       1.0  0.50000  0.50000  0.00000  1.0000
  Sc  Sc1       1.0  0.00000  0.00000  0.00000  1.0000
  Sc  Sc2       1.0  0.50000  0.50000  0.50000  1.0000
