data_image0
_chemical_formula_structural       F16Se4
_chemical_formula_sum              "F16 Se4"
_cell_length_a       4.61932
_cell_length_b       5.14922
_cell_length_c       10.4323
_cell_angle_alpha    90
_cell_angle_beta     90
_cell_angle_gamma    90

_space_group_name_H-M_alt    "P 1"
_space_group_IT_number       1

loop_
  _space_group_symop_operation_xyz
  'x, y, z'

loop_
  _atom_site_type_symbol
  _atom_site_label
  _atom_site_symmetry_multiplicity
  _atom_site_fract_x
  _atom_site_fract_y
  _atom_site_fract_z
  _atom_site_occupancy
  F   F1        1.0  0.17300  0.09800  0.00533  1.0000
  F   F2        1.0  0.16200  0.61600  0.04870  1.0000
  F   F3        1.0  0.46900  0.22100  0.19700  1.0000
  F   F4        1.0  0.03320  0.93100  0.22100  1.0000
  F   F5        1.0  0.96700  0.43100  0.27900  1.0000
  F   F6        1.0  0.53100  0.72100  0.30300  1.0000
  F   F7        1.0  0.83800  0.11600  0.45100  1.0000
  F   F8        1.0  0.82700  0.59800  0.49500  1.0000
  F   F9        1.0  0.32700  0.90200  0.50500  1.0000
  F   F10       1.0  0.33800  0.38400  0.54900  1.0000
  F   F11       1.0  0.03080  0.77900  0.69700  1.0000
  F   F12       1.0  0.46700  0.06900  0.72100  1.0000
  F   F13       1.0  0.53300  0.56900  0.77900  1.0000
  F   F14       1.0  0.96900  0.27900  0.80300  1.0000
  F   F15       1.0  0.66200  0.88400  0.95100  1.0000
  F   F16       1.0  0.67300  0.40200  0.99500  1.0000
  Se  Se1       1.0  0.33600  0.91000  0.12300  1.0000
  Se  Se2       1.0  0.66400  0.41000  0.37700  1.0000
  Se  Se3       1.0  0.16400  0.09030  0.62300  1.0000
  Se  Se4       1.0  0.83600  0.59000  0.87700  1.0000
