data_image0
_chemical_formula_structural       C8U4W8
_chemical_formula_sum              "C8 U4 W8"
_cell_length_a       9.27287
_cell_length_b       9.27287
_cell_length_c       4.88111
_cell_angle_alpha    90
_cell_angle_beta     90
_cell_angle_gamma    90

_space_group_name_H-M_alt    "P 1"
_space_group_IT_number       1

loop_
  _space_group_symop_operation_xyz
  'x, y, z'

loop_
  _atom_site_type_symbol
  _atom_site_label
  _atom_site_symmetry_multiplicity
  _atom_site_fract_x
  _atom_site_fract_y
  _atom_site_fract_z
  _atom_site_occupancy
  C   C1        1.0  0.50300  0.26300  0.00000  1.0000
  C   C2        1.0  0.26300  0.49700  0.00000  1.0000
  C   C3        1.0  0.73700  0.50300  0.00000  1.0000
  C   C4        1.0  0.49700  0.73700  0.00000  1.0000
  C   C5        1.0  0.23700  0.00224  0.50000  1.0000
  C   C6        1.0  0.99800  0.23700  0.50000  1.0000
  C   C7        1.0  0.00224  0.76300  0.50000  1.0000
  C   C8        1.0  0.76300  0.99800  0.50000  1.0000
  U   U1        1.0  0.50000  0.00000  0.00000  1.0000
  U   U2        1.0  1.00000  0.50000  0.00000  1.0000
  U   U3        1.0  0.50000  0.00000  0.50000  1.0000
  U   U4        1.0  1.00000  0.50000  0.50000  1.0000
  W   W1        1.0  0.29600  0.29100  0.00000  1.0000
  W   W2        1.0  0.70900  0.29600  0.00000  1.0000
  W   W3        1.0  0.29100  0.70400  0.00000  1.0000
  W   W4        1.0  0.70400  0.70900  0.00000  1.0000
  W   W5        1.0  0.79200  0.20500  0.50000  1.0000
  W   W6        1.0  0.20500  0.20800  0.50000  1.0000
  W   W7        1.0  0.79500  0.79200  0.50000  1.0000
  W   W8        1.0  0.20800  0.79500  0.50000  1.0000
