data_image0
_chemical_formula_structural       Eu4S6
_chemical_formula_sum              "Eu4 S6"
_cell_length_a       7.09235
_cell_length_b       7.09235
_cell_length_c       7.89187
_cell_angle_alpha    116.702
_cell_angle_beta     63.2983
_cell_angle_gamma    120

_space_group_name_H-M_alt    "P 1"
_space_group_IT_number       1

loop_
  _space_group_symop_operation_xyz
  'x, y, z'

loop_
  _atom_site_type_symbol
  _atom_site_label
  _atom_site_symmetry_multiplicity
  _atom_site_fract_x
  _atom_site_fract_y
  _atom_site_fract_z
  _atom_site_occupancy
  Eu  Eu1       1.0  0.64400  0.35600  0.06650  1.0000
  Eu  Eu2       1.0  0.85600  0.14400  0.43300  1.0000
  Eu  Eu3       1.0  0.14400  0.85600  0.56700  1.0000
  Eu  Eu4       1.0  0.35600  0.64400  0.93300  1.0000
  S   S1        1.0  0.25000  0.02260  0.25000  1.0000
  S   S2        1.0  0.97700  0.47700  0.25000  1.0000
  S   S3        1.0  0.52300  0.75000  0.25000  1.0000
  S   S4        1.0  0.47700  0.25000  0.75000  1.0000
  S   S5        1.0  0.02260  0.52300  0.75000  1.0000
  S   S6        1.0  0.75000  0.97700  0.75000  1.0000
