data_image0
_chemical_formula_structural       Ce2Fe12P7
_chemical_formula_sum              "Ce2 Fe12 P7"
_cell_length_a       9.07375
_cell_length_b       9.07304
_cell_length_c       3.68541
_cell_angle_alpha    90
_cell_angle_beta     90
_cell_angle_gamma    120.008

_space_group_name_H-M_alt    "P 1"
_space_group_IT_number       1

loop_
  _space_group_symop_operation_xyz
  'x, y, z'

loop_
  _atom_site_type_symbol
  _atom_site_label
  _atom_site_symmetry_multiplicity
  _atom_site_fract_x
  _atom_site_fract_y
  _atom_site_fract_z
  _atom_site_occupancy
  Ce  Ce1       1.0  0.33300  0.66700  0.00000  1.0000
  Ce  Ce2       1.0  0.66700  0.33300  0.50000  1.0000
  Fe  Fe1       1.0  0.42500  0.05440  0.00000  1.0000
  Fe  Fe2       1.0  0.15100  0.27100  0.00000  1.0000
  Fe  Fe3       1.0  0.94600  0.37000  0.00000  1.0000
  Fe  Fe4       1.0  0.63000  0.57500  0.00000  1.0000
  Fe  Fe5       1.0  0.12100  0.84900  0.00000  1.0000
  Fe  Fe6       1.0  0.72900  0.87900  0.00000  1.0000
  Fe  Fe7       1.0  0.21400  0.09750  0.50000  1.0000
  Fe  Fe8       1.0  0.90300  0.11700  0.50000  1.0000
  Fe  Fe9       1.0  0.38200  0.43000  0.50000  1.0000
  Fe  Fe10      1.0  0.04780  0.61800  0.50000  1.0000
  Fe  Fe11      1.0  0.88300  0.78600  0.50000  1.0000
  Fe  Fe12      1.0  0.57000  0.95200  0.50000  1.0000
  P   P1        1.0  0.00010  0.00003  0.00000  1.0000
  P   P2        1.0  0.70100  0.10500  0.00000  1.0000
  P   P3        1.0  0.40400  0.29800  0.00000  1.0000
  P   P4        1.0  0.89400  0.59600  0.00000  1.0000
  P   P5        1.0  0.10500  0.39400  0.50000  1.0000
  P   P6        1.0  0.60600  0.71100  0.50000  1.0000
  P   P7        1.0  0.28900  0.89500  0.50000  1.0000
