data_image0
_chemical_formula_structural       K4O12Zr5
_chemical_formula_sum              "K4 O12 Zr5"
_cell_length_a       5.84653
_cell_length_b       5.84653
_cell_length_c       10.4885
_cell_angle_alpha    90
_cell_angle_beta     90.001
_cell_angle_gamma    120

_space_group_name_H-M_alt    "P 1"
_space_group_IT_number       1

loop_
  _space_group_symop_operation_xyz
  'x, y, z'

loop_
  _atom_site_type_symbol
  _atom_site_label
  _atom_site_symmetry_multiplicity
  _atom_site_fract_x
  _atom_site_fract_y
  _atom_site_fract_z
  _atom_site_occupancy
  K   K1        1.0  1.00000  1.00000  0.17800  1.0000
  K   K2        1.0  0.33300  0.66700  0.38600  1.0000
  K   K3        1.0  0.66700  0.33300  0.61400  1.0000
  K   K4        1.0  0.00000  0.00000  0.82200  1.0000
  O   O1        1.0  0.98100  0.49100  0.12300  1.0000
  O   O2        1.0  0.50900  0.49100  0.12300  1.0000
  O   O3        1.0  0.50900  0.01890  0.12300  1.0000
  O   O4        1.0  0.83500  0.67000  0.37900  1.0000
  O   O5        1.0  0.83500  0.16500  0.37900  1.0000
  O   O6        1.0  0.33000  0.16500  0.37900  1.0000
  O   O7        1.0  0.67000  0.83500  0.62100  1.0000
  O   O8        1.0  0.16500  0.83500  0.62100  1.0000
  O   O9        1.0  0.16500  0.33000  0.62100  1.0000
  O   O10       1.0  0.49100  0.98100  0.87700  1.0000
  O   O11       1.0  0.49100  0.50900  0.87700  1.0000
  O   O12       1.0  0.01890  0.50900  0.87700  1.0000
  Zr  Zr1       1.0  0.33300  0.66700  0.02400  1.0000
  Zr  Zr2       1.0  0.66700  0.33300  0.28300  1.0000
  Zr  Zr3       1.0  0.00000  1.00000  0.50000  1.0000
  Zr  Zr4       1.0  0.33300  0.66700  0.71700  1.0000
  Zr  Zr5       1.0  0.66700  0.33300  0.97600  1.0000
