data_image0
_chemical_formula_structural       O6Rh4
_chemical_formula_sum              "O6 Rh4"
_cell_length_a       5.50946
_cell_length_b       5.50946
_cell_length_c       5.50946
_cell_angle_alpha    55.8459
_cell_angle_beta     55.8459
_cell_angle_gamma    55.8459

_space_group_name_H-M_alt    "P 1"
_space_group_IT_number       1

loop_
  _space_group_symop_operation_xyz
  'x, y, z'

loop_
  _atom_site_type_symbol
  _atom_site_label
  _atom_site_symmetry_multiplicity
  _atom_site_fract_x
  _atom_site_fract_y
  _atom_site_fract_z
  _atom_site_occupancy
  O   O1        1.0  0.75000  0.45000  0.05020  1.0000
  O   O2        1.0  0.55000  0.95000  0.25000  1.0000
  O   O3        1.0  0.05020  0.75000  0.45000  1.0000
  O   O4        1.0  0.95000  0.25000  0.55000  1.0000
  O   O5        1.0  0.45000  0.05020  0.75000  1.0000
  O   O6        1.0  0.25000  0.55000  0.95000  1.0000
  Rh  Rh1       1.0  0.15000  0.15000  0.15000  1.0000
  Rh  Rh2       1.0  0.35000  0.35000  0.35000  1.0000
  Rh  Rh3       1.0  0.65000  0.65000  0.65000  1.0000
  Rh  Rh4       1.0  0.85000  0.85000  0.85000  1.0000
