data_image0
_chemical_formula_structural       Ni12P7Zr2
_chemical_formula_sum              "Ni12 P7 Zr2"
_cell_length_a       8.9793
_cell_length_b       8.97863
_cell_length_c       3.58042
_cell_angle_alpha    90
_cell_angle_beta     90
_cell_angle_gamma    119.999

_space_group_name_H-M_alt    "P 1"
_space_group_IT_number       1

loop_
  _space_group_symop_operation_xyz
  'x, y, z'

loop_
  _atom_site_type_symbol
  _atom_site_label
  _atom_site_symmetry_multiplicity
  _atom_site_fract_x
  _atom_site_fract_y
  _atom_site_fract_z
  _atom_site_occupancy
  Ni  Ni1       1.0  0.62700  0.06030  0.00000  1.0000
  Ni  Ni2       1.0  0.11900  0.27700  0.00000  1.0000
  Ni  Ni3       1.0  0.43300  0.37300  0.00000  1.0000
  Ni  Ni4       1.0  0.94000  0.56700  0.00000  1.0000
  Ni  Ni5       1.0  0.72300  0.84200  0.00000  1.0000
  Ni  Ni6       1.0  0.15800  0.88100  0.00000  1.0000
  Ni  Ni7       1.0  0.87200  0.09120  0.50000  1.0000
  Ni  Ni8       1.0  0.21900  0.12800  0.50000  1.0000
  Ni  Ni9       1.0  0.04650  0.43400  0.50000  1.0000
  Ni  Ni10      1.0  0.56600  0.61200  0.50000  1.0000
  Ni  Ni11      1.0  0.90900  0.78100  0.50000  1.0000
  Ni  Ni12      1.0  0.38800  0.95400  0.50000  1.0000
  P   P1        1.0  0.99999  0.00001  0.00000  1.0000
  P   P2        1.0  0.41300  0.11900  0.00000  1.0000
  P   P3        1.0  0.88100  0.29300  0.00000  1.0000
  P   P4        1.0  0.70700  0.58700  0.00000  1.0000
  P   P5        1.0  0.29100  0.41100  0.50000  1.0000
  P   P6        1.0  0.12000  0.70900  0.50000  1.0000
  P   P7        1.0  0.58900  0.88000  0.50000  1.0000
  Zr  Zr1       1.0  0.33300  0.66700  0.00000  1.0000
  Zr  Zr2       1.0  0.66700  0.33300  0.50000  1.0000
