data_image0
_chemical_formula_structural       Cl16V4
_chemical_formula_sum              "Cl16 V4"
_cell_length_a       12.0561
_cell_length_b       6.14145
_cell_length_c       12.0033
_cell_angle_alpha    90
_cell_angle_beta     118.688
_cell_angle_gamma    90

_space_group_name_H-M_alt    "P 1"
_space_group_IT_number       1

loop_
  _space_group_symop_operation_xyz
  'x, y, z'

loop_
  _atom_site_type_symbol
  _atom_site_label
  _atom_site_symmetry_multiplicity
  _atom_site_fract_x
  _atom_site_fract_y
  _atom_site_fract_z
  _atom_site_occupancy
  Cl  Cl1       1.0  0.76800  0.11500  0.01430  1.0000
  Cl  Cl2       1.0  0.67300  0.61000  0.07230  1.0000
  Cl  Cl3       1.0  0.59300  0.08880  0.17600  1.0000
  Cl  Cl4       1.0  0.09590  0.91400  0.17600  1.0000
  Cl  Cl5       1.0  0.90400  0.91400  0.32400  1.0000
  Cl  Cl6       1.0  0.40700  0.08880  0.32400  1.0000
  Cl  Cl7       1.0  0.32700  0.61000  0.42800  1.0000
  Cl  Cl8       1.0  0.23200  0.11500  0.48600  1.0000
  Cl  Cl9       1.0  0.76800  0.88500  0.51400  1.0000
  Cl  Cl10      1.0  0.67300  0.39000  0.57200  1.0000
  Cl  Cl11      1.0  0.59300  0.91100  0.67600  1.0000
  Cl  Cl12      1.0  0.09590  0.08560  0.67600  1.0000
  Cl  Cl13      1.0  0.90400  0.08560  0.82400  1.0000
  Cl  Cl14      1.0  0.40700  0.91100  0.82400  1.0000
  Cl  Cl15      1.0  0.32700  0.39000  0.92800  1.0000
  Cl  Cl16      1.0  0.23200  0.88500  0.98600  1.0000
  V   V1        1.0  0.73400  0.93100  0.14600  1.0000
  V   V2        1.0  0.26600  0.93100  0.35400  1.0000
  V   V3        1.0  0.73400  0.06930  0.64600  1.0000
  V   V4        1.0  0.26600  0.06930  0.85400  1.0000
