data_image0
_chemical_formula_structural       In16O24
_chemical_formula_sum              "In16 O24"
_cell_length_a       8.75803
_cell_length_b       8.75803
_cell_length_c       8.75803
_cell_angle_alpha    109.471
_cell_angle_beta     109.471
_cell_angle_gamma    109.471

_space_group_name_H-M_alt    "P 1"
_space_group_IT_number       1

loop_
  _space_group_symop_operation_xyz
  'x, y, z'

loop_
  _atom_site_type_symbol
  _atom_site_label
  _atom_site_symmetry_multiplicity
  _atom_site_fract_x
  _atom_site_fract_y
  _atom_site_fract_z
  _atom_site_occupancy
  In  In1       1.0  0.49800  0.49800  0.49800  1.0000
  In  In2       1.0  0.50000  0.00000  0.00228  1.0000
  In  In3       1.0  0.00228  0.50000  0.00000  1.0000
  In  In4       1.0  0.00000  0.00228  0.50000  1.0000
  In  In5       1.0  0.25000  0.21600  0.96600  1.0000
  In  In6       1.0  0.75000  0.28400  0.53400  1.0000
  In  In7       1.0  0.96600  0.25000  0.21600  1.0000
  In  In8       1.0  0.21600  0.96600  0.25000  1.0000
  In  In9       1.0  0.53400  0.75000  0.28400  1.0000
  In  In10      1.0  0.28400  0.53400  0.75000  1.0000
  In  In11      1.0  0.25000  0.71700  0.46700  1.0000
  In  In12      1.0  0.75000  0.78300  0.03340  1.0000
  In  In13      1.0  0.46700  0.25000  0.71700  1.0000
  In  In14      1.0  0.71700  0.46700  0.25000  1.0000
  In  In15      1.0  0.03340  0.75000  0.78300  1.0000
  In  In16      1.0  0.78300  0.03340  0.75000  1.0000
  O   O1        1.0  0.45400  0.46400  0.22700  1.0000
  O   O2        1.0  0.73700  0.22700  0.27300  1.0000
  O   O3        1.0  0.04620  0.27300  0.00999  1.0000
  O   O4        1.0  0.76300  0.03630  0.49000  1.0000
  O   O5        1.0  0.22700  0.45400  0.46400  1.0000
  O   O6        1.0  0.46400  0.22700  0.45400  1.0000
  O   O7        1.0  0.49000  0.76300  0.03630  1.0000
  O   O8        1.0  0.22700  0.27300  0.73700  1.0000
  O   O9        1.0  0.27300  0.73700  0.22700  1.0000
  O   O10       1.0  0.27300  0.00999  0.04620  1.0000
  O   O11       1.0  0.00999  0.04620  0.27300  1.0000
  O   O12       1.0  0.03630  0.49000  0.76300  1.0000
  O   O13       1.0  0.77200  0.54600  0.53600  1.0000
  O   O14       1.0  0.51000  0.23600  0.96400  1.0000
  O   O15       1.0  0.72800  0.26400  0.77400  1.0000
  O   O16       1.0  0.99000  0.95400  0.72600  1.0000
  O   O17       1.0  0.53600  0.77200  0.54600  1.0000
  O   O18       1.0  0.54600  0.53600  0.77200  1.0000
  O   O19       1.0  0.72600  0.99000  0.95400  1.0000
  O   O20       1.0  0.23600  0.96400  0.51000  1.0000
  O   O21       1.0  0.96400  0.51000  0.23600  1.0000
  O   O22       1.0  0.26400  0.77400  0.72800  1.0000
  O   O23       1.0  0.77400  0.72800  0.26400  1.0000
  O   O24       1.0  0.95400  0.72600  0.99000  1.0000
