data_image0
_chemical_formula_structural       Er2Ni12P7
_chemical_formula_sum              "Er2 Ni12 P7"
_cell_length_a       9.00662
_cell_length_b       9.00623
_cell_length_c       3.66063
_cell_angle_alpha    90
_cell_angle_beta     90
_cell_angle_gamma    120

_space_group_name_H-M_alt    "P 1"
_space_group_IT_number       1

loop_
  _space_group_symop_operation_xyz
  'x, y, z'

loop_
  _atom_site_type_symbol
  _atom_site_label
  _atom_site_symmetry_multiplicity
  _atom_site_fract_x
  _atom_site_fract_y
  _atom_site_fract_z
  _atom_site_occupancy
  Er  Er1       1.0  0.33300  0.66700  0.00000  1.0000
  Er  Er2       1.0  0.66700  0.33300  0.50000  1.0000
  Ni  Ni1       1.0  0.43500  0.06080  0.00000  1.0000
  Ni  Ni2       1.0  0.15300  0.27500  0.00000  1.0000
  Ni  Ni3       1.0  0.93900  0.37400  0.00000  1.0000
  Ni  Ni4       1.0  0.62600  0.56500  0.00000  1.0000
  Ni  Ni5       1.0  0.12200  0.84700  0.00000  1.0000
  Ni  Ni6       1.0  0.72500  0.87800  0.00000  1.0000
  Ni  Ni7       1.0  0.21700  0.09460  0.50000  1.0000
  Ni  Ni8       1.0  0.90500  0.12300  0.50000  1.0000
  Ni  Ni9       1.0  0.38200  0.43100  0.50000  1.0000
  Ni  Ni10      1.0  0.04930  0.61800  0.50000  1.0000
  Ni  Ni11      1.0  0.87700  0.78300  0.50000  1.0000
  Ni  Ni12      1.0  0.56900  0.95100  0.50000  1.0000
  P   P1        1.0  0.99999  1.00000  0.00000  1.0000
  P   P2        1.0  0.70600  0.11400  0.00000  1.0000
  P   P3        1.0  0.40800  0.29400  0.00000  1.0000
  P   P4        1.0  0.88600  0.59200  0.00000  1.0000
  P   P5        1.0  0.11200  0.40600  0.50000  1.0000
  P   P6        1.0  0.59400  0.70600  0.50000  1.0000
  P   P7        1.0  0.29400  0.88800  0.50000  1.0000
