data_image0
_chemical_formula_structural       Cl2F12O4Ru2
_chemical_formula_sum              "Cl2 F12 O4 Ru2"
_cell_length_a       6.73961
_cell_length_b       5.40066
_cell_length_c       6.56742
_cell_angle_alpha    90
_cell_angle_beta     93.2352
_cell_angle_gamma    90

_space_group_name_H-M_alt    "P 1"
_space_group_IT_number       1

loop_
  _space_group_symop_operation_xyz
  'x, y, z'

loop_
  _atom_site_type_symbol
  _atom_site_label
  _atom_site_symmetry_multiplicity
  _atom_site_fract_x
  _atom_site_fract_y
  _atom_site_fract_z
  _atom_site_occupancy
  Cl  Cl1       1.0  0.25000  0.62700  0.25000  1.0000
  Cl  Cl2       1.0  0.75000  0.37300  0.75000  1.0000
  F   F1        1.0  0.20000  0.00598  0.02890  1.0000
  F   F2        1.0  0.56400  0.73500  0.19800  1.0000
  F   F3        1.0  0.55300  0.23700  0.20400  1.0000
  F   F4        1.0  0.94700  0.23700  0.29600  1.0000
  F   F5        1.0  0.93600  0.73500  0.30200  1.0000
  F   F6        1.0  0.30000  0.00598  0.47100  1.0000
  F   F7        1.0  0.70000  0.99400  0.52900  1.0000
  F   F8        1.0  0.06390  0.26500  0.69800  1.0000
  F   F9        1.0  0.05290  0.76300  0.70400  1.0000
  F   F10       1.0  0.44700  0.76300  0.79600  1.0000
  F   F11       1.0  0.43600  0.26500  0.80200  1.0000
  F   F12       1.0  0.80000  0.99400  0.97100  1.0000
  O   O1        1.0  0.21100  0.49000  0.06730  1.0000
  O   O2        1.0  0.28900  0.49000  0.43300  1.0000
  O   O3        1.0  0.71100  0.51000  0.56700  1.0000
  O   O4        1.0  0.78900  0.51000  0.93300  1.0000
  Ru  Ru1       1.0  0.75000  0.99900  0.25000  1.0000
  Ru  Ru2       1.0  0.25000  0.00148  0.75000  1.0000
