data_image0
_chemical_formula_structural       Cu3O12PbSn4
_chemical_formula_sum              "Cu3 O12 Pb1 Sn4"
_cell_length_a       6.52634
_cell_length_b       6.52634
_cell_length_c       6.52634
_cell_angle_alpha    109.471
_cell_angle_beta     109.471
_cell_angle_gamma    109.471

_space_group_name_H-M_alt    "P 1"
_space_group_IT_number       1

loop_
  _space_group_symop_operation_xyz
  'x, y, z'

loop_
  _atom_site_type_symbol
  _atom_site_label
  _atom_site_symmetry_multiplicity
  _atom_site_fract_x
  _atom_site_fract_y
  _atom_site_fract_z
  _atom_site_occupancy
  Cu  Cu1       1.0  0.50000  0.50000  0.00000  1.0000
  Cu  Cu2       1.0  0.50000  0.00000  0.50000  1.0000
  Cu  Cu3       1.0  0.00000  0.50000  0.50000  1.0000
  O   O1        1.0  0.31600  0.82800  0.14400  1.0000
  O   O2        1.0  0.48800  0.31600  0.17200  1.0000
  O   O3        1.0  0.85600  0.68400  0.17200  1.0000
  O   O4        1.0  0.82800  0.14400  0.31600  1.0000
  O   O5        1.0  0.17200  0.48800  0.31600  1.0000
  O   O6        1.0  0.31600  0.17200  0.48800  1.0000
  O   O7        1.0  0.68400  0.82800  0.51200  1.0000
  O   O8        1.0  0.82800  0.51200  0.68400  1.0000
  O   O9        1.0  0.17200  0.85600  0.68400  1.0000
  O   O10       1.0  0.14400  0.31600  0.82800  1.0000
  O   O11       1.0  0.51200  0.68400  0.82800  1.0000
  O   O12       1.0  0.68400  0.17200  0.85600  1.0000
  Pb  Pb1       1.0  0.00000  0.00000  0.00000  1.0000
  Sn  Sn1       1.0  0.50000  0.00000  0.00000  1.0000
  Sn  Sn2       1.0  0.00000  0.50000  0.00000  1.0000
  Sn  Sn3       1.0  0.00000  0.00000  0.50000  1.0000
  Sn  Sn4       1.0  0.50000  0.50000  0.50000  1.0000
