data_image0
_chemical_formula_structural       Cl14Mo2O2Se2
_chemical_formula_sum              "Cl14 Mo2 O2 Se2"
_cell_length_a       7.93439
_cell_length_b       8.32193
_cell_length_c       9.77614
_cell_angle_alpha    90.5567
_cell_angle_beta     112.757
_cell_angle_gamma    107.986

_space_group_name_H-M_alt    "P 1"
_space_group_IT_number       1

loop_
  _space_group_symop_operation_xyz
  'x, y, z'

loop_
  _atom_site_type_symbol
  _atom_site_label
  _atom_site_symmetry_multiplicity
  _atom_site_fract_x
  _atom_site_fract_y
  _atom_site_fract_z
  _atom_site_occupancy
  Cl  Cl1       1.0  0.67700  0.38600  0.01320  1.0000
  Cl  Cl2       1.0  0.11600  0.23100  0.15000  1.0000
  Cl  Cl3       1.0  0.42900  0.99200  0.18200  1.0000
  Cl  Cl4       1.0  0.78000  0.84400  0.19200  1.0000
  Cl  Cl5       1.0  0.17800  0.61400  0.29900  1.0000
  Cl  Cl6       1.0  0.60800  0.48800  0.37200  1.0000
  Cl  Cl7       1.0  0.29600  0.12400  0.47900  1.0000
  Cl  Cl8       1.0  0.70400  0.87600  0.52100  1.0000
  Cl  Cl9       1.0  0.39200  0.51200  0.62800  1.0000
  Cl  Cl10      1.0  0.82200  0.38600  0.70100  1.0000
  Cl  Cl11      1.0  0.22000  0.15600  0.80800  1.0000
  Cl  Cl12      1.0  0.57100  0.00763  0.81800  1.0000
  Cl  Cl13      1.0  0.88400  0.76900  0.85000  1.0000
  Cl  Cl14      1.0  0.32300  0.61400  0.98700  1.0000
  Mo  Mo1       1.0  0.17100  0.34700  0.38600  1.0000
  Mo  Mo2       1.0  0.82900  0.65300  0.61400  1.0000
  O   O1        1.0  0.95300  0.28000  0.39500  1.0000
  O   O2        1.0  0.04680  0.72000  0.60500  1.0000
  Se  Se1       1.0  0.50400  0.75800  0.21700  1.0000
  Se  Se2       1.0  0.49600  0.24200  0.78300  1.0000
