data_image0
_chemical_formula_structural       F12O4P2Sb2
_chemical_formula_sum              "F12 O4 P2 Sb2"
_cell_length_a       5.15127
_cell_length_b       6.96269
_cell_length_c       6.78426
_cell_angle_alpha    87.5804
_cell_angle_beta     78.3144
_cell_angle_gamma    83.9514

_space_group_name_H-M_alt    "P 1"
_space_group_IT_number       1

loop_
  _space_group_symop_operation_xyz
  'x, y, z'

loop_
  _atom_site_type_symbol
  _atom_site_label
  _atom_site_symmetry_multiplicity
  _atom_site_fract_x
  _atom_site_fract_y
  _atom_site_fract_z
  _atom_site_occupancy
  F   F1        1.0  0.96300  0.30200  0.12000  1.0000
  F   F2        1.0  0.69600  0.91100  0.23900  1.0000
  F   F3        1.0  0.12000  0.61900  0.24200  1.0000
  F   F4        1.0  0.61900  0.53300  0.31700  1.0000
  F   F5        1.0  0.22000  0.26700  0.38800  1.0000
  F   F6        1.0  0.72900  0.17300  0.47400  1.0000
  F   F7        1.0  0.27100  0.82700  0.52600  1.0000
  F   F8        1.0  0.78000  0.73300  0.61200  1.0000
  F   F9        1.0  0.38100  0.46700  0.68300  1.0000
  F   F10       1.0  0.88000  0.38100  0.75800  1.0000
  F   F11       1.0  0.30400  0.08870  0.76100  1.0000
  F   F12       1.0  0.03720  0.69800  0.88000  1.0000
  O   O1        1.0  0.45600  0.28900  0.04130  1.0000
  O   O2        1.0  0.19900  0.99200  0.17000  1.0000
  O   O3        1.0  0.80100  0.00769  0.83000  1.0000
  O   O4        1.0  0.54400  0.71100  0.95900  1.0000
  P   P1        1.0  0.21900  0.20600  0.17500  1.0000
  P   P2        1.0  0.78100  0.79400  0.82500  1.0000
  Sb  Sb1       1.0  0.41100  0.75600  0.25800  1.0000
  Sb  Sb2       1.0  0.58900  0.24400  0.74200  1.0000
