data_image0
_chemical_formula_structural       Bi2Cl2F16
_chemical_formula_sum              "Bi2 Cl2 F16"
_cell_length_a       4.73741
_cell_length_b       5.33538
_cell_length_c       9.92564
_cell_angle_alpha    91.6466
_cell_angle_beta     95.9226
_cell_angle_gamma    93.3811

_space_group_name_H-M_alt    "P 1"
_space_group_IT_number       1

loop_
  _space_group_symop_operation_xyz
  'x, y, z'

loop_
  _atom_site_type_symbol
  _atom_site_label
  _atom_site_symmetry_multiplicity
  _atom_site_fract_x
  _atom_site_fract_y
  _atom_site_fract_z
  _atom_site_occupancy
  Bi  Bi1       1.0  0.99998  0.99994  0.99995  1.0000
  Bi  Bi2       1.0  0.00001  0.99998  0.50000  1.0000
  Cl  Cl1       1.0  0.55700  0.58700  0.24800  1.0000
  Cl  Cl2       1.0  0.44300  0.41300  0.75200  1.0000
  F   F1        1.0  0.88900  0.30200  0.09960  1.0000
  F   F2        1.0  0.37600  0.54900  0.10200  1.0000
  F   F3        1.0  0.37900  0.05100  0.11200  1.0000
  F   F4        1.0  0.89200  0.77700  0.15800  1.0000
  F   F5        1.0  0.31700  0.44700  0.32800  1.0000
  F   F6        1.0  0.80400  0.16400  0.34200  1.0000
  F   F7        1.0  0.31700  0.94000  0.38700  1.0000
  F   F8        1.0  0.81300  0.64700  0.43400  1.0000
  F   F9        1.0  0.18700  0.35300  0.56600  1.0000
  F   F10       1.0  0.68300  0.05980  0.61300  1.0000
  F   F11       1.0  0.19600  0.83600  0.65800  1.0000
  F   F12       1.0  0.68300  0.55300  0.67200  1.0000
  F   F13       1.0  0.10800  0.22300  0.84200  1.0000
  F   F14       1.0  0.62100  0.94900  0.88800  1.0000
  F   F15       1.0  0.62400  0.45100  0.89800  1.0000
  F   F16       1.0  0.11100  0.69900  0.90000  1.0000
