data_image0
_chemical_formula_structural       Cl8Hg6S4Zn2
_chemical_formula_sum              "Cl8 Hg6 S4 Zn2"
_cell_length_a       7.48669
_cell_length_b       7.39932
_cell_length_c       11.5399
_cell_angle_alpha    90
_cell_angle_beta     90
_cell_angle_gamma    120.182

_space_group_name_H-M_alt    "P 1"
_space_group_IT_number       1

loop_
  _space_group_symop_operation_xyz
  'x, y, z'

loop_
  _atom_site_type_symbol
  _atom_site_label
  _atom_site_symmetry_multiplicity
  _atom_site_fract_x
  _atom_site_fract_y
  _atom_site_fract_z
  _atom_site_occupancy
  Cl  Cl1       1.0  0.83700  0.65400  0.25400  1.0000
  Cl  Cl2       1.0  0.35400  0.13000  0.27700  1.0000
  Cl  Cl3       1.0  0.87700  0.14300  0.38600  1.0000
  Cl  Cl4       1.0  0.34600  0.65000  0.44300  1.0000
  Cl  Cl5       1.0  0.16300  0.34600  0.75400  1.0000
  Cl  Cl6       1.0  0.64600  0.87000  0.77700  1.0000
  Cl  Cl7       1.0  0.12300  0.85700  0.88600  1.0000
  Cl  Cl8       1.0  0.65400  0.35000  0.94300  1.0000
  Hg  Hg1       1.0  0.39600  0.41300  0.04550  1.0000
  Hg  Hg2       1.0  0.00662  0.48100  0.15500  1.0000
  Hg  Hg3       1.0  0.47000  0.03950  0.47700  1.0000
  Hg  Hg4       1.0  0.60400  0.58700  0.54500  1.0000
  Hg  Hg5       1.0  0.99300  0.51900  0.65500  1.0000
  Hg  Hg6       1.0  0.53000  0.96100  0.97700  1.0000
  S   S1        1.0  0.00020  0.17100  0.07050  1.0000
  S   S2        1.0  0.42100  0.72700  0.14000  1.0000
  S   S3        1.0  0.00000  0.82900  0.57100  1.0000
  S   S4        1.0  0.57900  0.27300  0.64000  1.0000
  Zn  Zn1       1.0  0.00496  0.02220  0.24700  1.0000
  Zn  Zn2       1.0  0.99500  0.97800  0.74700  1.0000
