data_image0
_chemical_formula_structural       Cs4F12Na2Ni2
_chemical_formula_sum              "Cs4 F12 Na2 Ni2"
_cell_length_a       6.03647
_cell_length_b       6.03647
_cell_length_c       10.3789
_cell_angle_alpha    90
_cell_angle_beta     106.906
_cell_angle_gamma    60

_space_group_name_H-M_alt    "P 1"
_space_group_IT_number       1

loop_
  _space_group_symop_operation_xyz
  'x, y, z'

loop_
  _atom_site_type_symbol
  _atom_site_label
  _atom_site_symmetry_multiplicity
  _atom_site_fract_x
  _atom_site_fract_y
  _atom_site_fract_z
  _atom_site_occupancy
  Cs  Cs1       1.0  0.43400  0.28300  0.15000  1.0000
  Cs  Cs2       1.0  0.25500  0.87300  0.38200  1.0000
  Cs  Cs3       1.0  0.74500  0.12700  0.61800  1.0000
  Cs  Cs4       1.0  0.56600  0.71700  0.85000  1.0000
  F   F1        1.0  0.92400  0.81400  0.11000  1.0000
  F   F2        1.0  0.92400  0.26200  0.11000  1.0000
  F   F3        1.0  0.37100  0.81400  0.11000  1.0000
  F   F4        1.0  0.77800  0.83000  0.38500  1.0000
  F   F5        1.0  0.77800  0.39200  0.38500  1.0000
  F   F6        1.0  0.21500  0.39200  0.38500  1.0000
  F   F7        1.0  0.78500  0.60800  0.61500  1.0000
  F   F8        1.0  0.22200  0.60800  0.61500  1.0000
  F   F9        1.0  0.22200  0.17000  0.61500  1.0000
  F   F10       1.0  0.62900  0.18600  0.89000  1.0000
  F   F11       1.0  0.07600  0.73800  0.89000  1.0000
  F   F12       1.0  0.07600  0.18600  0.89000  1.0000
  Na  Na1       1.0  0.80800  0.59600  0.21200  1.0000
  Na  Na2       1.0  0.19200  0.40400  0.78800  1.0000
  Ni  Ni1       1.0  0.00000  0.00000  0.00000  1.0000
  Ni  Ni2       1.0  0.00000  0.50000  0.50000  1.0000
