data_image0
_chemical_formula_structural       Cl12Cu4K4
_chemical_formula_sum              "Cl12 Cu4 K4"
_cell_length_a       4.08398
_cell_length_b       13.7505
_cell_length_c       8.74398
_cell_angle_alpha    90
_cell_angle_beta     97.8984
_cell_angle_gamma    90

_space_group_name_H-M_alt    "P 1"
_space_group_IT_number       1

loop_
  _space_group_symop_operation_xyz
  'x, y, z'

loop_
  _atom_site_type_symbol
  _atom_site_label
  _atom_site_symmetry_multiplicity
  _atom_site_fract_x
  _atom_site_fract_y
  _atom_site_fract_z
  _atom_site_occupancy
  Cl  Cl1       1.0  0.17100  0.90300  0.03370  1.0000
  Cl  Cl2       1.0  0.32300  0.49000  0.17500  1.0000
  Cl  Cl3       1.0  0.72700  0.70100  0.23800  1.0000
  Cl  Cl4       1.0  0.27300  0.20100  0.26200  1.0000
  Cl  Cl5       1.0  0.67700  0.99000  0.32500  1.0000
  Cl  Cl6       1.0  0.82900  0.40300  0.46600  1.0000
  Cl  Cl7       1.0  0.17100  0.59700  0.53400  1.0000
  Cl  Cl8       1.0  0.32300  0.01010  0.67500  1.0000
  Cl  Cl9       1.0  0.72700  0.79900  0.73800  1.0000
  Cl  Cl10      1.0  0.27300  0.29900  0.76200  1.0000
  Cl  Cl11      1.0  0.67700  0.51000  0.82500  1.0000
  Cl  Cl12      1.0  0.82900  0.09700  0.96600  1.0000
  Cu  Cu1       1.0  0.25200  0.05080  0.16200  1.0000
  Cu  Cu2       1.0  0.74800  0.55100  0.33800  1.0000
  Cu  Cu3       1.0  0.25200  0.44900  0.66200  1.0000
  Cu  Cu4       1.0  0.74800  0.94900  0.83800  1.0000
  K   K1        1.0  0.77700  0.32900  0.05610  1.0000
  K   K2        1.0  0.22300  0.82900  0.44400  1.0000
  K   K3        1.0  0.77700  0.17100  0.55600  1.0000
  K   K4        1.0  0.22300  0.67100  0.94400  1.0000
