data_image0
_chemical_formula_structural       Eu8Se12
_chemical_formula_sum              "Eu8 Se12"
_cell_length_a       6.957
_cell_length_b       6.957
_cell_length_c       15.8352
_cell_angle_alpha    95.9186
_cell_angle_beta     95.9186
_cell_angle_gamma    122.045

_space_group_name_H-M_alt    "P 1"
_space_group_IT_number       1

loop_
  _space_group_symop_operation_xyz
  'x, y, z'

loop_
  _atom_site_type_symbol
  _atom_site_label
  _atom_site_symmetry_multiplicity
  _atom_site_fract_x
  _atom_site_fract_y
  _atom_site_fract_z
  _atom_site_occupancy
  Eu  Eu1       1.0  0.03340  0.78300  0.06680  1.0000
  Eu  Eu2       1.0  0.12300  0.37300  0.24700  1.0000
  Eu  Eu3       1.0  0.62700  0.87700  0.25300  1.0000
  Eu  Eu4       1.0  0.21700  0.96700  0.43300  1.0000
  Eu  Eu5       1.0  0.78300  0.03340  0.56700  1.0000
  Eu  Eu6       1.0  0.37300  0.12300  0.74700  1.0000
  Eu  Eu7       1.0  0.87700  0.62700  0.75300  1.0000
  Eu  Eu8       1.0  0.96700  0.21700  0.93300  1.0000
  Se  Se1       1.0  0.78200  0.03630  0.09060  1.0000
  Se  Se2       1.0  0.30900  0.55400  0.09060  1.0000
  Se  Se3       1.0  0.30500  0.05500  0.25000  1.0000
  Se  Se4       1.0  0.94500  0.69500  0.25000  1.0000
  Se  Se5       1.0  0.96400  0.21800  0.40900  1.0000
  Se  Se6       1.0  0.44600  0.69100  0.40900  1.0000
  Se  Se7       1.0  0.55400  0.30900  0.59100  1.0000
  Se  Se8       1.0  0.03630  0.78200  0.59100  1.0000
  Se  Se9       1.0  0.05500  0.30500  0.75000  1.0000
  Se  Se10      1.0  0.69500  0.94500  0.75000  1.0000
  Se  Se11      1.0  0.69100  0.44600  0.90900  1.0000
  Se  Se12      1.0  0.21800  0.96400  0.90900  1.0000
