data_image0
_chemical_formula_structural       Cs4Hg4Se10U2
_chemical_formula_sum              "Cs4 Hg4 Se10 U2"
_cell_length_a       10.4152
_cell_length_b       4.35091
_cell_length_c       15.7422
_cell_angle_alpha    90
_cell_angle_beta     102.402
_cell_angle_gamma    90

_space_group_name_H-M_alt    "P 1"
_space_group_IT_number       1

loop_
  _space_group_symop_operation_xyz
  'x, y, z'

loop_
  _atom_site_type_symbol
  _atom_site_label
  _atom_site_symmetry_multiplicity
  _atom_site_fract_x
  _atom_site_fract_y
  _atom_site_fract_z
  _atom_site_occupancy
  Cs  Cs1       1.0  0.28500  0.31400  0.05430  1.0000
  Cs  Cs2       1.0  0.21500  0.31400  0.44600  1.0000
  Cs  Cs3       1.0  0.78500  0.68600  0.55400  1.0000
  Cs  Cs4       1.0  0.71500  0.68600  0.94600  1.0000
  Hg  Hg1       1.0  0.03240  0.62700  0.20200  1.0000
  Hg  Hg2       1.0  0.46800  0.62700  0.29800  1.0000
  Hg  Hg3       1.0  0.53200  0.37300  0.70200  1.0000
  Hg  Hg4       1.0  0.96800  0.37300  0.79800  1.0000
  Se  Se1       1.0  0.90000  0.18100  0.11700  1.0000
  Se  Se2       1.0  0.60200  0.70300  0.15600  1.0000
  Se  Se3       1.0  0.25000  0.92100  0.25000  1.0000
  Se  Se4       1.0  0.89800  0.70300  0.34400  1.0000
  Se  Se5       1.0  0.60000  0.18100  0.38300  1.0000
  Se  Se6       1.0  0.40000  0.81900  0.61700  1.0000
  Se  Se7       1.0  0.10200  0.29700  0.65600  1.0000
  Se  Se8       1.0  0.75000  0.07920  0.75000  1.0000
  Se  Se9       1.0  0.39800  0.29700  0.84400  1.0000
  Se  Se10      1.0  0.10000  0.81900  0.88300  1.0000
  U   U1        1.0  0.75000  0.20500  0.25000  1.0000
  U   U2        1.0  0.25000  0.79500  0.75000  1.0000
