data_image0
_chemical_formula_structural       C3Ca3Cs3F3O9
_chemical_formula_sum              "C3 Ca3 Cs3 F3 O9"
_cell_length_a       9.23393
_cell_length_b       9.23393
_cell_length_c       4.48238
_cell_angle_alpha    90
_cell_angle_beta     90
_cell_angle_gamma    120

_space_group_name_H-M_alt    "P 1"
_space_group_IT_number       1

loop_
  _space_group_symop_operation_xyz
  'x, y, z'

loop_
  _atom_site_type_symbol
  _atom_site_label
  _atom_site_symmetry_multiplicity
  _atom_site_fract_x
  _atom_site_fract_y
  _atom_site_fract_z
  _atom_site_occupancy
  C   C1        1.0  0.99999  0.99999  0.00000  1.0000
  C   C2        1.0  0.66700  0.33300  0.00000  1.0000
  C   C3        1.0  0.33300  0.66700  0.00000  1.0000
  Ca  Ca1       1.0  0.61400  1.00000  0.00000  1.0000
  Ca  Ca2       1.0  0.38600  0.38600  0.00000  1.0000
  Ca  Ca3       1.0  1.00000  0.61400  0.00000  1.0000
  Cs  Cs1       1.0  0.28000  1.00000  0.50000  1.0000
  Cs  Cs2       1.0  1.00000  0.28000  0.50000  1.0000
  Cs  Cs3       1.0  0.72000  0.72000  0.50000  1.0000
  F   F1        1.0  0.61700  0.00000  0.50000  1.0000
  F   F2        1.0  0.38300  0.38300  0.50000  1.0000
  F   F3        1.0  0.00000  0.61700  0.50000  1.0000
  O   O1        1.0  0.86000  0.00000  0.00000  1.0000
  O   O2        1.0  0.14000  0.14000  0.00000  1.0000
  O   O3        1.0  0.51600  0.20500  0.00000  1.0000
  O   O4        1.0  0.79500  0.31200  0.00000  1.0000
  O   O5        1.0  0.68800  0.48400  0.00000  1.0000
  O   O6        1.0  0.20500  0.51600  0.00000  1.0000
  O   O7        1.0  0.48400  0.68800  0.00000  1.0000
  O   O8        1.0  0.31200  0.79500  0.00000  1.0000
  O   O9        1.0  0.00000  0.86000  0.00000  1.0000
