data_image0
_chemical_formula_structural       Nd2Ni12P7
_chemical_formula_sum              "Nd2 Ni12 P7"
_cell_length_a       9.0681
_cell_length_b       9.06688
_cell_length_c       3.73418
_cell_angle_alpha    90
_cell_angle_beta     90
_cell_angle_gamma    119.994

_space_group_name_H-M_alt    "P 1"
_space_group_IT_number       1

loop_
  _space_group_symop_operation_xyz
  'x, y, z'

loop_
  _atom_site_type_symbol
  _atom_site_label
  _atom_site_symmetry_multiplicity
  _atom_site_fract_x
  _atom_site_fract_y
  _atom_site_fract_z
  _atom_site_occupancy
  Nd  Nd1       1.0  0.33300  0.66700  0.00000  1.0000
  Nd  Nd2       1.0  0.66700  0.33300  0.50000  1.0000
  Ni  Ni1       1.0  0.43500  0.05840  0.00000  1.0000
  Ni  Ni2       1.0  0.14700  0.27200  0.00000  1.0000
  Ni  Ni3       1.0  0.94200  0.37600  0.00000  1.0000
  Ni  Ni4       1.0  0.62400  0.56500  0.00000  1.0000
  Ni  Ni5       1.0  0.12500  0.85300  0.00000  1.0000
  Ni  Ni6       1.0  0.72800  0.87500  0.00000  1.0000
  Ni  Ni7       1.0  0.21300  0.09480  0.50000  1.0000
  Ni  Ni8       1.0  0.90500  0.11900  0.50000  1.0000
  Ni  Ni9       1.0  0.37800  0.42600  0.50000  1.0000
  Ni  Ni10      1.0  0.04820  0.62200  0.50000  1.0000
  Ni  Ni11      1.0  0.88100  0.78700  0.50000  1.0000
  Ni  Ni12      1.0  0.57400  0.95200  0.50000  1.0000
  P   P1        1.0  0.99998  0.99999  0.00000  1.0000
  P   P2        1.0  0.70700  0.10800  0.00000  1.0000
  P   P3        1.0  0.40200  0.29300  0.00000  1.0000
  P   P4        1.0  0.89200  0.59800  0.00000  1.0000
  P   P5        1.0  0.10300  0.40000  0.50000  1.0000
  P   P6        1.0  0.60000  0.70300  0.50000  1.0000
  P   P7        1.0  0.29700  0.89700  0.50000  1.0000
