data_image0
_chemical_formula_structural       Mn12P7Sc2
_chemical_formula_sum              "Mn12 P7 Sc2"
_cell_length_a       9.29952
_cell_length_b       9.29944
_cell_length_c       3.42758
_cell_angle_alpha    90
_cell_angle_beta     90
_cell_angle_gamma    119.995

_space_group_name_H-M_alt    "P 1"
_space_group_IT_number       1

loop_
  _space_group_symop_operation_xyz
  'x, y, z'

loop_
  _atom_site_type_symbol
  _atom_site_label
  _atom_site_symmetry_multiplicity
  _atom_site_fract_x
  _atom_site_fract_y
  _atom_site_fract_z
  _atom_site_occupancy
  Mn  Mn1       1.0  0.43100  0.05340  0.00000  1.0000
  Mn  Mn2       1.0  0.16000  0.27600  0.00000  1.0000
  Mn  Mn3       1.0  0.94700  0.37800  0.00000  1.0000
  Mn  Mn4       1.0  0.62200  0.56900  0.00000  1.0000
  Mn  Mn5       1.0  0.11600  0.84000  0.00000  1.0000
  Mn  Mn6       1.0  0.72400  0.88400  0.00000  1.0000
  Mn  Mn7       1.0  0.23500  0.10100  0.50000  1.0000
  Mn  Mn8       1.0  0.89900  0.13400  0.50000  1.0000
  Mn  Mn9       1.0  0.38600  0.43500  0.50000  1.0000
  Mn  Mn10      1.0  0.04880  0.61400  0.50000  1.0000
  Mn  Mn11      1.0  0.86600  0.76500  0.50000  1.0000
  Mn  Mn12      1.0  0.56500  0.95100  0.50000  1.0000
  P   P1        1.0  0.00008  0.00004  0.00000  1.0000
  P   P2        1.0  0.71000  0.12800  0.00000  1.0000
  P   P3        1.0  0.41800  0.29000  0.00000  1.0000
  P   P4        1.0  0.87200  0.58200  0.00000  1.0000
  P   P5        1.0  0.12900  0.41900  0.50000  1.0000
  P   P6        1.0  0.58100  0.71000  0.50000  1.0000
  P   P7        1.0  0.29000  0.87100  0.50000  1.0000
  Sc  Sc1       1.0  0.33300  0.66700  0.00000  1.0000
  Sc  Sc2       1.0  0.66700  0.33300  0.50000  1.0000
