data_image0
_chemical_formula_structural       P7Pd9Zr5
_chemical_formula_sum              "P7 Pd9 Zr5"
_cell_length_a       3.85282
_cell_length_b       6.53747
_cell_length_c       13.6744
_cell_angle_alpha    76.1701
_cell_angle_beta     90
_cell_angle_gamma    90

_space_group_name_H-M_alt    "P 1"
_space_group_IT_number       1

loop_
  _space_group_symop_operation_xyz
  'x, y, z'

loop_
  _atom_site_type_symbol
  _atom_site_label
  _atom_site_symmetry_multiplicity
  _atom_site_fract_x
  _atom_site_fract_y
  _atom_site_fract_z
  _atom_site_occupancy
  P   P1        1.0  0.00000  0.11900  0.00000  1.0000
  P   P2        1.0  0.50000  0.55000  0.13700  1.0000
  P   P3        1.0  0.50000  0.97200  0.28700  1.0000
  P   P4        1.0  0.00000  0.39500  0.42800  1.0000
  P   P5        1.0  0.00000  0.82400  0.57200  1.0000
  P   P6        1.0  0.50000  0.25900  0.71300  1.0000
  P   P7        1.0  0.50000  0.68700  0.86300  1.0000
  Pd  Pd1       1.0  0.50000  0.87400  0.00000  1.0000
  Pd  Pd2       1.0  0.50000  0.19400  0.11600  1.0000
  Pd  Pd3       1.0  0.00000  0.23100  0.27500  1.0000
  Pd  Pd4       1.0  0.50000  0.54700  0.31800  1.0000
  Pd  Pd5       1.0  0.00000  0.79800  0.39300  1.0000
  Pd  Pd6       1.0  0.00000  0.19100  0.60700  1.0000
  Pd  Pd7       1.0  0.50000  0.86600  0.68200  1.0000
  Pd  Pd8       1.0  0.00000  0.50600  0.72500  1.0000
  Pd  Pd9       1.0  0.50000  0.31000  0.88400  1.0000
  Zr  Zr1       1.0  0.00000  0.52000  0.00000  1.0000
  Zr  Zr2       1.0  0.00000  0.81500  0.17700  1.0000
  Zr  Zr3       1.0  0.50000  0.09480  0.45700  1.0000
  Zr  Zr4       1.0  0.50000  0.55100  0.54300  1.0000
  Zr  Zr5       1.0  0.00000  0.99200  0.82300  1.0000
