data_image0
_chemical_formula_structural       Lu2Ni12P7
_chemical_formula_sum              "Lu2 Ni12 P7"
_cell_length_a       9.00111
_cell_length_b       9.00098
_cell_length_c       3.65525
_cell_angle_alpha    90
_cell_angle_beta     90
_cell_angle_gamma    119.999

_space_group_name_H-M_alt    "P 1"
_space_group_IT_number       1

loop_
  _space_group_symop_operation_xyz
  'x, y, z'

loop_
  _atom_site_type_symbol
  _atom_site_label
  _atom_site_symmetry_multiplicity
  _atom_site_fract_x
  _atom_site_fract_y
  _atom_site_fract_z
  _atom_site_occupancy
  Lu  Lu1       1.0  0.33300  0.66700  0.00000  1.0000
  Lu  Lu2       1.0  0.66700  0.33300  0.50000  1.0000
  Ni  Ni1       1.0  0.43600  0.06190  0.00000  1.0000
  Ni  Ni2       1.0  0.15400  0.27700  0.00000  1.0000
  Ni  Ni3       1.0  0.93800  0.37400  0.00000  1.0000
  Ni  Ni4       1.0  0.62600  0.56400  0.00000  1.0000
  Ni  Ni5       1.0  0.12300  0.84600  0.00000  1.0000
  Ni  Ni6       1.0  0.72300  0.87700  0.00000  1.0000
  Ni  Ni7       1.0  0.21200  0.09040  0.50000  1.0000
  Ni  Ni8       1.0  0.91000  0.12100  0.50000  1.0000
  Ni  Ni9       1.0  0.38300  0.43000  0.50000  1.0000
  Ni  Ni10      1.0  0.04730  0.61700  0.50000  1.0000
  Ni  Ni11      1.0  0.87900  0.78800  0.50000  1.0000
  Ni  Ni12      1.0  0.57000  0.95300  0.50000  1.0000
  P   P1        1.0  1.00000  0.00000  0.00000  1.0000
  P   P2        1.0  0.70800  0.11600  0.00000  1.0000
  P   P3        1.0  0.40800  0.29200  0.00000  1.0000
  P   P4        1.0  0.88400  0.59200  0.00000  1.0000
  P   P5        1.0  0.11400  0.40900  0.50000  1.0000
  P   P6        1.0  0.59100  0.70500  0.50000  1.0000
  P   P7        1.0  0.29500  0.88600  0.50000  1.0000
