data_image0
_chemical_formula_structural       As7Ce2Ni12
_chemical_formula_sum              "As7 Ce2 Ni12"
_cell_length_a       9.41168
_cell_length_b       9.41172
_cell_length_c       3.91396
_cell_angle_alpha    90
_cell_angle_beta     90
_cell_angle_gamma    120.002

_space_group_name_H-M_alt    "P 1"
_space_group_IT_number       1

loop_
  _space_group_symop_operation_xyz
  'x, y, z'

loop_
  _atom_site_type_symbol
  _atom_site_label
  _atom_site_symmetry_multiplicity
  _atom_site_fract_x
  _atom_site_fract_y
  _atom_site_fract_z
  _atom_site_occupancy
  As  As1       1.0  0.00002  0.99999  0.00000  1.0000
  As  As2       1.0  0.71100  0.10900  0.00000  1.0000
  As  As3       1.0  0.39800  0.28900  0.00000  1.0000
  As  As4       1.0  0.89100  0.60200  0.00000  1.0000
  As  As5       1.0  0.09920  0.39900  0.50000  1.0000
  As  As6       1.0  0.60100  0.70000  0.50000  1.0000
  As  As7       1.0  0.30000  0.90100  0.50000  1.0000
  Ce  Ce1       1.0  0.33300  0.66700  0.00000  1.0000
  Ce  Ce2       1.0  0.66700  0.33300  0.50000  1.0000
  Ni  Ni1       1.0  0.43600  0.05680  0.00000  1.0000
  Ni  Ni2       1.0  0.14600  0.27700  0.00000  1.0000
  Ni  Ni3       1.0  0.94300  0.37900  0.00000  1.0000
  Ni  Ni4       1.0  0.62100  0.56400  0.00000  1.0000
  Ni  Ni5       1.0  0.13100  0.85400  0.00000  1.0000
  Ni  Ni6       1.0  0.72300  0.86900  0.00000  1.0000
  Ni  Ni7       1.0  0.20500  0.09670  0.50000  1.0000
  Ni  Ni8       1.0  0.90300  0.10800  0.50000  1.0000
  Ni  Ni9       1.0  0.37300  0.42200  0.50000  1.0000
  Ni  Ni10      1.0  0.04900  0.62700  0.50000  1.0000
  Ni  Ni11      1.0  0.89200  0.79500  0.50000  1.0000
  Ni  Ni12      1.0  0.57800  0.95100  0.50000  1.0000
