data_image0
_chemical_formula_structural       Rh9S12
_chemical_formula_sum              "Rh9 S12"
_cell_length_a       6.31242
_cell_length_b       7.54992
_cell_length_c       7.54992
_cell_angle_alpha    92.1955
_cell_angle_beta     102.333
_cell_angle_gamma    102.333

_space_group_name_H-M_alt    "P 1"
_space_group_IT_number       1

loop_
  _space_group_symop_operation_xyz
  'x, y, z'

loop_
  _atom_site_type_symbol
  _atom_site_label
  _atom_site_symmetry_multiplicity
  _atom_site_fract_x
  _atom_site_fract_y
  _atom_site_fract_z
  _atom_site_occupancy
  Rh  Rh1       1.0  0.50000  1.00000  1.00000  1.0000
  Rh  Rh2       1.0  1.00000  0.83900  0.16100  1.0000
  Rh  Rh3       1.0  0.45100  0.50800  0.21600  1.0000
  Rh  Rh4       1.0  0.05260  0.35000  0.35000  1.0000
  Rh  Rh5       1.0  0.54900  0.78400  0.49200  1.0000
  Rh  Rh6       1.0  0.45100  0.21600  0.50800  1.0000
  Rh  Rh7       1.0  0.94700  0.65000  0.65000  1.0000
  Rh  Rh8       1.0  0.54900  0.49200  0.78400  1.0000
  Rh  Rh9       1.0  1.00000  0.16100  0.83900  1.0000
  S   S1        1.0  0.61400  0.71600  0.03270  1.0000
  S   S2        1.0  0.88800  0.11700  0.11700  1.0000
  S   S3        1.0  0.10100  0.56000  0.14100  1.0000
  S   S4        1.0  0.38600  0.96700  0.28400  1.0000
  S   S5        1.0  0.72700  0.41600  0.41600  1.0000
  S   S6        1.0  0.89900  0.85900  0.44000  1.0000
  S   S7        1.0  0.10100  0.14100  0.56000  1.0000
  S   S8        1.0  0.27300  0.58400  0.58400  1.0000
  S   S9        1.0  0.61400  0.03270  0.71600  1.0000
  S   S10       1.0  0.89900  0.44000  0.85900  1.0000
  S   S11       1.0  0.11200  0.88300  0.88300  1.0000
  S   S12       1.0  0.38600  0.28400  0.96700  1.0000
