data_image0
_chemical_formula_structural       Br2CaH12O6
_chemical_formula_sum              "Br2 Ca1 H12 O6"
_cell_length_a       7.9704
_cell_length_b       7.97036
_cell_length_c       3.8571
_cell_angle_alpha    90.0001
_cell_angle_beta     89.9995
_cell_angle_gamma    119.999

_space_group_name_H-M_alt    "P 1"
_space_group_IT_number       1

loop_
  _space_group_symop_operation_xyz
  'x, y, z'

loop_
  _atom_site_type_symbol
  _atom_site_label
  _atom_site_symmetry_multiplicity
  _atom_site_fract_x
  _atom_site_fract_y
  _atom_site_fract_z
  _atom_site_occupancy
  Br  Br1       1.0  0.33300  0.66700  0.43000  1.0000
  Br  Br2       1.0  0.66700  0.33300  0.57000  1.0000
  Ca  Ca1       1.0  0.00000  0.00000  1.00000  1.0000
  H   H1        1.0  0.10100  0.43000  0.09420  1.0000
  H   H2        1.0  0.57000  0.67100  0.09420  1.0000
  H   H3        1.0  0.32900  0.89900  0.09420  1.0000
  H   H4        1.0  0.34000  0.22700  0.47700  1.0000
  H   H5        1.0  0.88700  0.66000  0.47700  1.0000
  H   H6        1.0  0.77300  0.11300  0.47700  1.0000
  H   H7        1.0  0.66000  0.88700  0.52300  1.0000
  H   H8        1.0  0.22700  0.34000  0.52300  1.0000
  H   H9        1.0  0.11300  0.77300  0.52300  1.0000
  H   H10       1.0  0.67100  0.57000  0.90600  1.0000
  H   H11       1.0  0.43000  0.10100  0.90600  1.0000
  H   H12       1.0  0.89900  0.32900  0.90600  1.0000
  O   O1        1.0  0.69500  0.69500  0.99998  1.0000
  O   O2        1.0  1.00000  0.30500  0.00000  1.0000
  O   O3        1.0  0.30500  0.99998  0.00001  1.0000
  O   O4        1.0  0.79200  0.00001  0.50000  1.0000
  O   O5        1.0  1.00000  0.79200  0.50000  1.0000
  O   O6        1.0  0.20800  0.20800  0.50000  1.0000
