data_image0
_chemical_formula_structural       C3CeO13PSr3
_chemical_formula_sum              "C3 Ce1 O13 P1 Sr3"
_cell_length_a       6.55649
_cell_length_b       6.55649
_cell_length_c       6.55644
_cell_angle_alpha    99.981
_cell_angle_beta     99.9809
_cell_angle_gamma    99.9828

_space_group_name_H-M_alt    "P 1"
_space_group_IT_number       1

loop_
  _space_group_symop_operation_xyz
  'x, y, z'

loop_
  _atom_site_type_symbol
  _atom_site_label
  _atom_site_symmetry_multiplicity
  _atom_site_fract_x
  _atom_site_fract_y
  _atom_site_fract_z
  _atom_site_occupancy
  C   C1        1.0  0.06870  0.56800  0.06870  1.0000
  C   C2        1.0  0.56800  0.06870  0.06870  1.0000
  C   C3        1.0  0.06870  0.06870  0.56800  1.0000
  Ce  Ce1       1.0  0.00088  0.00088  0.00088  1.0000
  O   O1        1.0  0.39500  0.11400  0.11400  1.0000
  O   O2        1.0  0.11400  0.39500  0.11400  1.0000
  O   O3        1.0  0.66000  0.94000  0.16300  1.0000
  O   O4        1.0  0.94000  0.66000  0.16300  1.0000
  O   O5        1.0  0.11400  0.11400  0.39500  1.0000
  O   O6        1.0  0.43300  0.68300  0.43300  1.0000
  O   O7        1.0  0.68300  0.43300  0.43300  1.0000
  O   O8        1.0  0.16300  0.94000  0.66000  1.0000
  O   O9        1.0  0.94000  0.16300  0.66000  1.0000
  O   O10       1.0  0.43300  0.43300  0.68300  1.0000
  O   O11       1.0  0.74200  0.74200  0.74200  1.0000
  O   O12       1.0  0.16300  0.66000  0.94000  1.0000
  O   O13       1.0  0.66000  0.16300  0.94000  1.0000
  P   P1        1.0  0.57500  0.57500  0.57500  1.0000
  Sr  Sr1       1.0  0.52600  0.52600  0.07680  1.0000
  Sr  Sr2       1.0  0.07680  0.52600  0.52600  1.0000
  Sr  Sr3       1.0  0.52600  0.07680  0.52600  1.0000
