data_image0
_chemical_formula_structural       B6Ba2MnO12
_chemical_formula_sum              "B6 Ba2 Mn1 O12"
_cell_length_a       6.91332
_cell_length_b       6.91332
_cell_length_c       6.91332
_cell_angle_alpha    118.15
_cell_angle_beta     118.15
_cell_angle_gamma    61.8497

_space_group_name_H-M_alt    "P 1"
_space_group_IT_number       1

loop_
  _space_group_symop_operation_xyz
  'x, y, z'

loop_
  _atom_site_type_symbol
  _atom_site_label
  _atom_site_symmetry_multiplicity
  _atom_site_fract_x
  _atom_site_fract_y
  _atom_site_fract_z
  _atom_site_occupancy
  B   B1        1.0  0.63900  0.36400  0.24200  1.0000
  B   B2        1.0  0.36400  0.75800  0.36100  1.0000
  B   B3        1.0  0.24200  0.36100  0.36400  1.0000
  B   B4        1.0  0.75800  0.63900  0.63600  1.0000
  B   B5        1.0  0.63600  0.24200  0.63900  1.0000
  B   B6        1.0  0.36100  0.63600  0.75800  1.0000
  Ba  Ba1       1.0  0.78800  0.78800  0.21200  1.0000
  Ba  Ba2       1.0  0.21200  0.21200  0.78800  1.0000
  Mn  Mn1       1.0  0.00000  0.00000  0.00000  1.0000
  O   O1        1.0  0.67500  0.15800  0.08190  1.0000
  O   O2        1.0  0.08190  0.32500  0.15800  1.0000
  O   O3        1.0  0.42400  0.53900  0.19700  1.0000
  O   O4        1.0  0.15800  0.91800  0.32500  1.0000
  O   O5        1.0  0.46100  0.19700  0.42400  1.0000
  O   O6        1.0  0.80300  0.42400  0.46100  1.0000
  O   O7        1.0  0.19700  0.57600  0.53900  1.0000
  O   O8        1.0  0.53900  0.80300  0.57600  1.0000
  O   O9        1.0  0.84200  0.08190  0.67500  1.0000
  O   O10       1.0  0.57600  0.46100  0.80300  1.0000
  O   O11       1.0  0.91800  0.67500  0.84200  1.0000
  O   O12       1.0  0.32500  0.84200  0.91800  1.0000
