data_image0
_chemical_formula_structural       In13Pd6Yb2
_chemical_formula_sum              "In13 Pd6 Yb2"
_cell_length_a       4.42443
_cell_length_b       8.76269
_cell_length_c       12.2701
_cell_angle_alpha    96.5295
_cell_angle_beta     100.387
_cell_angle_gamma    104.623

_space_group_name_H-M_alt    "P 1"
_space_group_IT_number       1

loop_
  _space_group_symop_operation_xyz
  'x, y, z'

loop_
  _atom_site_type_symbol
  _atom_site_label
  _atom_site_symmetry_multiplicity
  _atom_site_fract_x
  _atom_site_fract_y
  _atom_site_fract_z
  _atom_site_occupancy
  In  In1       1.0  0.00000  0.00000  0.00000  1.0000
  In  In2       1.0  0.42400  0.77200  0.07670  1.0000
  In  In3       1.0  0.82500  0.52700  0.12400  1.0000
  In  In4       1.0  0.66100  0.14900  0.17300  1.0000
  In  In5       1.0  0.32900  0.33000  0.32800  1.0000
  In  In6       1.0  0.99400  0.58700  0.40100  1.0000
  In  In7       1.0  0.66200  0.86400  0.46000  1.0000
  In  In8       1.0  0.33800  0.13600  0.54000  1.0000
  In  In9       1.0  0.00598  0.41300  0.59900  1.0000
  In  In10      1.0  0.67100  0.67000  0.67200  1.0000
  In  In11      1.0  0.33900  0.85100  0.82700  1.0000
  In  In12      1.0  0.17500  0.47300  0.87600  1.0000
  In  In13      1.0  0.57600  0.22800  0.92300  1.0000
  Pd  Pd1       1.0  0.19900  0.31500  0.08230  1.0000
  Pd  Pd2       1.0  0.44600  0.62800  0.26400  1.0000
  Pd  Pd3       1.0  0.79100  0.17800  0.40400  1.0000
  Pd  Pd4       1.0  0.20900  0.82200  0.59600  1.0000
  Pd  Pd5       1.0  0.55400  0.37200  0.73600  1.0000
  Pd  Pd6       1.0  0.80100  0.68500  0.91800  1.0000
  Yb  Yb1       1.0  0.09520  0.91700  0.27400  1.0000
  Yb  Yb2       1.0  0.90500  0.08310  0.72600  1.0000
