data_image0
_chemical_formula_structural       Bi2Li8O10Pd
_chemical_formula_sum              "Bi2 Li8 O10 Pd1"
_cell_length_a       4.21058
_cell_length_b       5.2644
_cell_length_c       10.9916
_cell_angle_alpha    94.4795
_cell_angle_beta     101.042
_cell_angle_gamma    113.573

_space_group_name_H-M_alt    "P 1"
_space_group_IT_number       1

loop_
  _space_group_symop_operation_xyz
  'x, y, z'

loop_
  _atom_site_type_symbol
  _atom_site_label
  _atom_site_symmetry_multiplicity
  _atom_site_fract_x
  _atom_site_fract_y
  _atom_site_fract_z
  _atom_site_occupancy
  Bi  Bi1       1.0  0.09710  0.91300  0.28200  1.0000
  Bi  Bi2       1.0  0.90300  0.08740  0.71800  1.0000
  Li  Li1       1.0  0.34400  0.59700  0.09180  1.0000
  Li  Li2       1.0  0.74300  0.29300  0.19200  1.0000
  Li  Li3       1.0  0.46700  0.54900  0.38500  1.0000
  Li  Li4       1.0  0.84100  0.22000  0.46100  1.0000
  Li  Li5       1.0  0.15900  0.78000  0.53900  1.0000
  Li  Li6       1.0  0.53300  0.45100  0.61500  1.0000
  Li  Li7       1.0  0.25700  0.70700  0.80800  1.0000
  Li  Li8       1.0  0.65600  0.40300  0.90800  1.0000
  O   O1        1.0  0.87700  0.66200  0.09080  1.0000
  O   O2        1.0  0.20800  0.24600  0.17100  1.0000
  O   O3        1.0  0.58400  0.91100  0.25800  1.0000
  O   O4        1.0  0.95500  0.55200  0.35900  1.0000
  O   O5        1.0  0.31800  0.18600  0.45000  1.0000
  O   O6        1.0  0.68200  0.81400  0.55000  1.0000
  O   O7        1.0  0.04460  0.44800  0.64100  1.0000
  O   O8        1.0  0.41600  0.08950  0.74200  1.0000
  O   O9        1.0  0.79200  0.75400  0.82900  1.0000
  O   O10       1.0  0.12300  0.33800  0.90900  1.0000
  Pd  Pd1       1.0  0.00000  0.00000  0.00000  1.0000
