data_image0
_chemical_formula_structural       C4Ni13Yb4
_chemical_formula_sum              "C4 Ni13 Yb4"
_cell_length_a       3.86409
_cell_length_b       8.3391
_cell_length_c       8.3391
_cell_angle_alpha    89.2429
_cell_angle_beta     90
_cell_angle_gamma    90

_space_group_name_H-M_alt    "P 1"
_space_group_IT_number       1

loop_
  _space_group_symop_operation_xyz
  'x, y, z'

loop_
  _atom_site_type_symbol
  _atom_site_label
  _atom_site_symmetry_multiplicity
  _atom_site_fract_x
  _atom_site_fract_y
  _atom_site_fract_z
  _atom_site_occupancy
  C   C1        1.0  0.00000  0.50000  0.00000  1.0000
  C   C2        1.0  0.00000  0.44300  0.44300  1.0000
  C   C3        1.0  0.00000  0.00000  0.50000  1.0000
  C   C4        1.0  0.00000  0.55700  0.55700  1.0000
  Ni  Ni1       1.0  0.00000  0.00000  0.00000  1.0000
  Ni  Ni2       1.0  0.50000  0.50000  0.00000  1.0000
  Ni  Ni3       1.0  0.00000  0.71100  0.07340  1.0000
  Ni  Ni4       1.0  0.50000  0.87700  0.12300  1.0000
  Ni  Ni5       1.0  0.00000  0.42800  0.21600  1.0000
  Ni  Ni6       1.0  0.00000  0.92700  0.28900  1.0000
  Ni  Ni7       1.0  0.00000  0.21600  0.42800  1.0000
  Ni  Ni8       1.0  0.50000  0.00000  0.50000  1.0000
  Ni  Ni9       1.0  0.00000  0.78400  0.57200  1.0000
  Ni  Ni10      1.0  0.00000  0.07340  0.71100  1.0000
  Ni  Ni11      1.0  0.00000  0.57200  0.78400  1.0000
  Ni  Ni12      1.0  0.50000  0.12300  0.87700  1.0000
  Ni  Ni13      1.0  0.00000  0.28900  0.92700  1.0000
  Yb  Yb1       1.0  0.50000  0.19000  0.19000  1.0000
  Yb  Yb2       1.0  0.50000  0.64900  0.35100  1.0000
  Yb  Yb3       1.0  0.50000  0.35100  0.64900  1.0000
  Yb  Yb4       1.0  0.50000  0.81000  0.81000  1.0000
