data_image0
_chemical_formula_structural       HgO14P4V2
_chemical_formula_sum              "Hg1 O14 P4 V2"
_cell_length_a       4.82998
_cell_length_b       6.92124
_cell_length_c       8.01701
_cell_angle_alpha    92.2459
_cell_angle_beta     92.9457
_cell_angle_gamma    106.437

_space_group_name_H-M_alt    "P 1"
_space_group_IT_number       1

loop_
  _space_group_symop_operation_xyz
  'x, y, z'

loop_
  _atom_site_type_symbol
  _atom_site_label
  _atom_site_symmetry_multiplicity
  _atom_site_fract_x
  _atom_site_fract_y
  _atom_site_fract_z
  _atom_site_occupancy
  Hg  Hg1       1.0  0.00000  0.00000  0.50000  1.0000
  O   O1        1.0  0.38000  0.19500  0.05730  1.0000
  O   O2        1.0  0.79300  0.46800  0.15000  1.0000
  O   O3        1.0  0.13500  0.82000  0.15600  1.0000
  O   O4        1.0  0.82800  0.11000  0.19600  1.0000
  O   O5        1.0  0.27800  0.55200  0.30700  1.0000
  O   O6        1.0  0.52200  0.24900  0.37500  1.0000
  O   O7        1.0  0.87600  0.69100  0.41200  1.0000
  O   O8        1.0  0.12400  0.30900  0.58800  1.0000
  O   O9        1.0  0.47800  0.75100  0.62500  1.0000
  O   O10       1.0  0.72200  0.44800  0.69300  1.0000
  O   O11       1.0  0.17200  0.89000  0.80400  1.0000
  O   O12       1.0  0.86500  0.18000  0.84400  1.0000
  O   O13       1.0  0.20700  0.53200  0.85000  1.0000
  O   O14       1.0  0.62000  0.80500  0.94300  1.0000
  P   P1        1.0  0.61800  0.24000  0.19400  1.0000
  P   P2        1.0  0.03500  0.63800  0.25500  1.0000
  P   P3        1.0  0.96500  0.36200  0.74500  1.0000
  P   P4        1.0  0.38200  0.76000  0.80600  1.0000
  V   V1        1.0  0.00000  0.00000  0.00000  1.0000
  V   V2        1.0  0.50000  0.50000  0.50000  1.0000
