data_image0
_chemical_formula_structural       O15PrW5
_chemical_formula_sum              "O15 Pr1 W5"
_cell_length_a       10.1165
_cell_length_b       7.26136
_cell_length_c       3.79419
_cell_angle_alpha    90
_cell_angle_beta     90
_cell_angle_gamma    90

_space_group_name_H-M_alt    "P 1"
_space_group_IT_number       1

loop_
  _space_group_symop_operation_xyz
  'x, y, z'

loop_
  _atom_site_type_symbol
  _atom_site_label
  _atom_site_symmetry_multiplicity
  _atom_site_fract_x
  _atom_site_fract_y
  _atom_site_fract_z
  _atom_site_occupancy
  O   O1        1.0  0.15300  0.00000  0.00000  1.0000
  O   O2        1.0  0.84700  0.00000  0.00000  1.0000
  O   O3        1.0  0.37500  0.19700  0.00000  1.0000
  O   O4        1.0  0.62500  0.19700  0.00000  1.0000
  O   O5        1.0  0.00000  0.31000  0.00000  1.0000
  O   O6        1.0  0.27900  0.50000  0.00000  1.0000
  O   O7        1.0  0.72100  0.50000  0.00000  1.0000
  O   O8        1.0  0.00000  0.69000  0.00000  1.0000
  O   O9        1.0  0.37500  0.80300  0.00000  1.0000
  O   O10       1.0  0.62500  0.80300  0.00000  1.0000
  O   O11       1.0  0.50000  0.00000  0.50000  1.0000
  O   O12       1.0  0.18600  0.26700  0.50000  1.0000
  O   O13       1.0  0.81400  0.26700  0.50000  1.0000
  O   O14       1.0  0.18600  0.73300  0.50000  1.0000
  O   O15       1.0  0.81400  0.73300  0.50000  1.0000
  Pr  Pr1       1.0  0.50000  0.50000  0.50000  1.0000
  W   W1        1.0  0.50000  0.00000  0.00000  1.0000
  W   W2        1.0  0.18300  0.25900  0.00000  1.0000
  W   W3        1.0  0.81700  0.25900  0.00000  1.0000
  W   W4        1.0  0.18300  0.74100  0.00000  1.0000
  W   W5        1.0  0.81700  0.74100  0.00000  1.0000
