data_image0
_chemical_formula_structural       Li2Ni12P7
_chemical_formula_sum              "Li2 Ni12 P7"
_cell_length_a       8.98445
_cell_length_b       8.98431
_cell_length_c       3.53454
_cell_angle_alpha    90
_cell_angle_beta     90
_cell_angle_gamma    120.003

_space_group_name_H-M_alt    "P 1"
_space_group_IT_number       1

loop_
  _space_group_symop_operation_xyz
  'x, y, z'

loop_
  _atom_site_type_symbol
  _atom_site_label
  _atom_site_symmetry_multiplicity
  _atom_site_fract_x
  _atom_site_fract_y
  _atom_site_fract_z
  _atom_site_occupancy
  Li  Li1       1.0  0.33300  0.66700  0.00000  1.0000
  Li  Li2       1.0  0.66700  0.33300  0.50000  1.0000
  Ni  Ni1       1.0  0.43500  0.06070  0.00000  1.0000
  Ni  Ni2       1.0  0.15900  0.27800  0.00000  1.0000
  Ni  Ni3       1.0  0.93900  0.37400  0.00000  1.0000
  Ni  Ni4       1.0  0.62600  0.56500  0.00000  1.0000
  Ni  Ni5       1.0  0.11900  0.84100  0.00000  1.0000
  Ni  Ni6       1.0  0.72200  0.88100  0.00000  1.0000
  Ni  Ni7       1.0  0.21900  0.09320  0.50000  1.0000
  Ni  Ni8       1.0  0.90700  0.12600  0.50000  1.0000
  Ni  Ni9       1.0  0.38400  0.43500  0.50000  1.0000
  Ni  Ni10      1.0  0.05080  0.61600  0.50000  1.0000
  Ni  Ni11      1.0  0.87400  0.78100  0.50000  1.0000
  Ni  Ni12      1.0  0.56500  0.94900  0.50000  1.0000
  P   P1        1.0  0.00003  1.00000  0.00000  1.0000
  P   P2        1.0  0.70500  0.12300  0.00000  1.0000
  P   P3        1.0  0.41800  0.29500  0.00000  1.0000
  P   P4        1.0  0.87700  0.58200  0.00000  1.0000
  P   P5        1.0  0.12000  0.41300  0.50000  1.0000
  P   P6        1.0  0.58700  0.70700  0.50000  1.0000
  P   P7        1.0  0.29300  0.88000  0.50000  1.0000
