data_image0
_chemical_formula_structural       Dy2Fe12P7
_chemical_formula_sum              "Dy2 Fe12 P7"
_cell_length_a       8.91158
_cell_length_b       8.91249
_cell_length_c       3.63037
_cell_angle_alpha    90
_cell_angle_beta     90
_cell_angle_gamma    120.008

_space_group_name_H-M_alt    "P 1"
_space_group_IT_number       1

loop_
  _space_group_symop_operation_xyz
  'x, y, z'

loop_
  _atom_site_type_symbol
  _atom_site_label
  _atom_site_symmetry_multiplicity
  _atom_site_fract_x
  _atom_site_fract_y
  _atom_site_fract_z
  _atom_site_occupancy
  Dy  Dy1       1.0  0.33300  0.66700  0.00000  1.0000
  Dy  Dy2       1.0  0.66700  0.33300  0.50000  1.0000
  Fe  Fe1       1.0  0.42500  0.05670  0.00000  1.0000
  Fe  Fe2       1.0  0.15400  0.27300  0.00000  1.0000
  Fe  Fe3       1.0  0.94300  0.36800  0.00000  1.0000
  Fe  Fe4       1.0  0.63200  0.57500  0.00000  1.0000
  Fe  Fe5       1.0  0.11900  0.84600  0.00000  1.0000
  Fe  Fe6       1.0  0.72700  0.88100  0.00000  1.0000
  Fe  Fe7       1.0  0.21000  0.09470  0.50000  1.0000
  Fe  Fe8       1.0  0.90500  0.11500  0.50000  1.0000
  Fe  Fe9       1.0  0.38400  0.43300  0.50000  1.0000
  Fe  Fe10      1.0  0.04890  0.61600  0.50000  1.0000
  Fe  Fe11      1.0  0.88500  0.79000  0.50000  1.0000
  Fe  Fe12      1.0  0.56700  0.95100  0.50000  1.0000
  P   P1        1.0  0.00006  0.00005  0.00000  1.0000
  P   P2        1.0  0.70100  0.11100  0.00000  1.0000
  P   P3        1.0  0.41100  0.29900  0.00000  1.0000
  P   P4        1.0  0.88900  0.58900  0.00000  1.0000
  P   P5        1.0  0.11000  0.39900  0.50000  1.0000
  P   P6        1.0  0.60000  0.71100  0.50000  1.0000
  P   P7        1.0  0.28900  0.89000  0.50000  1.0000
