data_image0
_chemical_formula_structural       Pt9Sc5Si7
_chemical_formula_sum              "Pt9 Sc5 Si7"
_cell_length_a       10.012
_cell_length_b       10.0119
_cell_length_c       3.91204
_cell_angle_alpha    90
_cell_angle_beta     90
_cell_angle_gamma    120

_space_group_name_H-M_alt    "P 1"
_space_group_IT_number       1

loop_
  _space_group_symop_operation_xyz
  'x, y, z'

loop_
  _atom_site_type_symbol
  _atom_site_label
  _atom_site_symmetry_multiplicity
  _atom_site_fract_x
  _atom_site_fract_y
  _atom_site_fract_z
  _atom_site_occupancy
  Pt  Pt1       1.0  0.64800  0.08170  0.00000  1.0000
  Pt  Pt2       1.0  0.12300  0.28400  0.00000  1.0000
  Pt  Pt3       1.0  0.43400  0.35200  0.00000  1.0000
  Pt  Pt4       1.0  0.91800  0.56600  0.00000  1.0000
  Pt  Pt5       1.0  0.71600  0.83800  0.00000  1.0000
  Pt  Pt6       1.0  0.16200  0.87700  0.00000  1.0000
  Pt  Pt7       1.0  0.05130  0.44900  0.50000  1.0000
  Pt  Pt8       1.0  0.55100  0.60300  0.50000  1.0000
  Pt  Pt9       1.0  0.39700  0.94900  0.50000  1.0000
  Sc  Sc1       1.0  0.33300  0.66700  0.00000  1.0000
  Sc  Sc2       1.0  0.87500  0.10400  0.50000  1.0000
  Sc  Sc3       1.0  0.22900  0.12500  0.50000  1.0000
  Sc  Sc4       1.0  0.66700  0.33300  0.50000  1.0000
  Sc  Sc5       1.0  0.89600  0.77100  0.50000  1.0000
  Si  Si1       1.0  0.00000  1.00000  0.00000  1.0000
  Si  Si2       1.0  0.42800  0.11400  0.00000  1.0000
  Si  Si3       1.0  0.88600  0.31400  0.00000  1.0000
  Si  Si4       1.0  0.68600  0.57200  0.00000  1.0000
  Si  Si5       1.0  0.28300  0.42700  0.50000  1.0000
  Si  Si6       1.0  0.14300  0.71600  0.50000  1.0000
  Si  Si7       1.0  0.57300  0.85700  0.50000  1.0000
