data_image0
_chemical_formula_structural       Dy2Ni12P7
_chemical_formula_sum              "Dy2 Ni12 P7"
_cell_length_a       9.03211
_cell_length_b       9.03129
_cell_length_c       3.6809
_cell_angle_alpha    90
_cell_angle_beta     90
_cell_angle_gamma    119.997

_space_group_name_H-M_alt    "P 1"
_space_group_IT_number       1

loop_
  _space_group_symop_operation_xyz
  'x, y, z'

loop_
  _atom_site_type_symbol
  _atom_site_label
  _atom_site_symmetry_multiplicity
  _atom_site_fract_x
  _atom_site_fract_y
  _atom_site_fract_z
  _atom_site_occupancy
  Dy  Dy1       1.0  0.33300  0.66700  0.00000  1.0000
  Dy  Dy2       1.0  0.66700  0.33300  0.50000  1.0000
  Ni  Ni1       1.0  0.43400  0.06020  0.00000  1.0000
  Ni  Ni2       1.0  0.15200  0.27400  0.00000  1.0000
  Ni  Ni3       1.0  0.94000  0.37400  0.00000  1.0000
  Ni  Ni4       1.0  0.62600  0.56600  0.00000  1.0000
  Ni  Ni5       1.0  0.12200  0.84800  0.00000  1.0000
  Ni  Ni6       1.0  0.72600  0.87800  0.00000  1.0000
  Ni  Ni7       1.0  0.21700  0.09470  0.50000  1.0000
  Ni  Ni8       1.0  0.90500  0.12200  0.50000  1.0000
  Ni  Ni9       1.0  0.38200  0.43100  0.50000  1.0000
  Ni  Ni10      1.0  0.04890  0.61800  0.50000  1.0000
  Ni  Ni11      1.0  0.87800  0.78300  0.50000  1.0000
  Ni  Ni12      1.0  0.56900  0.95100  0.50000  1.0000
  P   P1        1.0  0.00000  0.00002  0.00000  1.0000
  P   P2        1.0  0.70600  0.11300  0.00000  1.0000
  P   P3        1.0  0.40700  0.29400  0.00000  1.0000
  P   P4        1.0  0.88700  0.59300  0.00000  1.0000
  P   P5        1.0  0.11100  0.40500  0.50000  1.0000
  P   P6        1.0  0.59500  0.70500  0.50000  1.0000
  P   P7        1.0  0.29500  0.88900  0.50000  1.0000
