data_image0
_chemical_formula_structural       As7Ni12Yb2
_chemical_formula_sum              "As7 Ni12 Yb2"
_cell_length_a       9.36816
_cell_length_b       9.37008
_cell_length_c       3.81325
_cell_angle_alpha    90
_cell_angle_beta     90
_cell_angle_gamma    120.01

_space_group_name_H-M_alt    "P 1"
_space_group_IT_number       1

loop_
  _space_group_symop_operation_xyz
  'x, y, z'

loop_
  _atom_site_type_symbol
  _atom_site_label
  _atom_site_symmetry_multiplicity
  _atom_site_fract_x
  _atom_site_fract_y
  _atom_site_fract_z
  _atom_site_occupancy
  As  As1       1.0  0.00006  0.00002  0.00000  1.0000
  As  As2       1.0  0.71300  0.11800  0.00000  1.0000
  As  As3       1.0  0.40500  0.28800  0.00000  1.0000
  As  As4       1.0  0.88200  0.59500  0.00000  1.0000
  As  As5       1.0  0.10800  0.40700  0.50000  1.0000
  As  As6       1.0  0.59300  0.70200  0.50000  1.0000
  As  As7       1.0  0.29800  0.89200  0.50000  1.0000
  Ni  Ni1       1.0  0.43700  0.05550  0.00000  1.0000
  Ni  Ni2       1.0  0.15300  0.28000  0.00000  1.0000
  Ni  Ni3       1.0  0.94500  0.38200  0.00000  1.0000
  Ni  Ni4       1.0  0.61800  0.56300  0.00000  1.0000
  Ni  Ni5       1.0  0.12700  0.84700  0.00000  1.0000
  Ni  Ni6       1.0  0.72000  0.87300  0.00000  1.0000
  Ni  Ni7       1.0  0.21000  0.09550  0.50000  1.0000
  Ni  Ni8       1.0  0.90400  0.11400  0.50000  1.0000
  Ni  Ni9       1.0  0.37600  0.42500  0.50000  1.0000
  Ni  Ni10      1.0  0.04920  0.62400  0.50000  1.0000
  Ni  Ni11      1.0  0.88500  0.79000  0.50000  1.0000
  Ni  Ni12      1.0  0.57500  0.95100  0.50000  1.0000
  Yb  Yb1       1.0  0.33300  0.66700  0.00000  1.0000
  Yb  Yb2       1.0  0.66700  0.33300  0.50000  1.0000
