data_image0
_chemical_formula_structural       Br2F12Pb7
_chemical_formula_sum              "Br2 F12 Pb7"
_cell_length_a       10.2355
_cell_length_b       10.2355
_cell_length_c       3.9591
_cell_angle_alpha    90
_cell_angle_beta     90
_cell_angle_gamma    120

_space_group_name_H-M_alt    "P 1"
_space_group_IT_number       1

loop_
  _space_group_symop_operation_xyz
  'x, y, z'

loop_
  _atom_site_type_symbol
  _atom_site_label
  _atom_site_symmetry_multiplicity
  _atom_site_fract_x
  _atom_site_fract_y
  _atom_site_fract_z
  _atom_site_occupancy
  Br  Br1       1.0  0.66700  0.33300  0.00000  1.0000
  Br  Br2       1.0  0.33300  0.66700  0.50000  1.0000
  F   F1        1.0  0.27700  0.11800  0.00000  1.0000
  F   F2        1.0  0.88200  0.15900  0.00000  1.0000
  F   F3        1.0  0.38100  0.43300  0.00000  1.0000
  F   F4        1.0  0.05270  0.61900  0.00000  1.0000
  F   F5        1.0  0.84100  0.72300  0.00000  1.0000
  F   F6        1.0  0.56700  0.94700  0.00000  1.0000
  F   F7        1.0  0.42800  0.04230  0.50000  1.0000
  F   F8        1.0  0.12500  0.21000  0.50000  1.0000
  F   F9        1.0  0.95800  0.38500  0.50000  1.0000
  F   F10       1.0  0.61500  0.57200  0.50000  1.0000
  F   F11       1.0  0.08540  0.87500  0.50000  1.0000
  F   F12       1.0  0.79000  0.91500  0.50000  1.0000
  Pb  Pb1       1.0  1.00000  1.00000  0.00000  1.0000
  Pb  Pb2       1.0  0.10700  0.40900  0.00000  1.0000
  Pb  Pb3       1.0  0.59100  0.69800  0.00000  1.0000
  Pb  Pb4       1.0  0.30200  0.89300  0.00000  1.0000
  Pb  Pb5       1.0  0.71100  0.11000  0.50000  1.0000
  Pb  Pb6       1.0  0.39900  0.28900  0.50000  1.0000
  Pb  Pb7       1.0  0.89000  0.60100  0.50000  1.0000
