data_image0
_chemical_formula_structural       Na6O12Os3
_chemical_formula_sum              "Na6 O12 Os3"
_cell_length_a       9.37312
_cell_length_b       9.37312
_cell_length_c       3.17363
_cell_angle_alpha    90
_cell_angle_beta     90
_cell_angle_gamma    120

_space_group_name_H-M_alt    "P 1"
_space_group_IT_number       1

loop_
  _space_group_symop_operation_xyz
  'x, y, z'

loop_
  _atom_site_type_symbol
  _atom_site_label
  _atom_site_symmetry_multiplicity
  _atom_site_fract_x
  _atom_site_fract_y
  _atom_site_fract_z
  _atom_site_occupancy
  Na  Na1       1.0  0.00000  0.00000  0.00000  1.0000
  Na  Na2       1.0  0.69900  0.00001  0.50000  1.0000
  Na  Na3       1.0  0.30100  0.30100  0.50000  1.0000
  Na  Na4       1.0  0.66700  0.33300  0.50000  1.0000
  Na  Na5       1.0  0.33300  0.66700  0.50000  1.0000
  Na  Na6       1.0  0.00001  0.69900  0.50000  1.0000
  O   O1        1.0  0.77800  0.21400  0.00000  1.0000
  O   O2        1.0  0.43600  0.22200  0.00000  1.0000
  O   O3        1.0  0.22200  0.43600  0.00000  1.0000
  O   O4        1.0  0.78600  0.56400  0.00000  1.0000
  O   O5        1.0  0.21400  0.77800  0.00000  1.0000
  O   O6        1.0  0.56400  0.78600  0.00000  1.0000
  O   O7        1.0  0.46000  1.00000  0.50000  1.0000
  O   O8        1.0  0.19100  0.00000  0.50000  1.0000
  O   O9        1.0  0.00000  0.19100  0.50000  1.0000
  O   O10       1.0  1.00000  0.46000  0.50000  1.0000
  O   O11       1.0  0.54000  0.54000  0.50000  1.0000
  O   O12       1.0  0.80900  0.80900  0.50000  1.0000
  Os  Os1       1.0  0.33000  0.00001  0.00000  1.0000
  Os  Os2       1.0  0.00001  0.33000  0.00000  1.0000
  Os  Os3       1.0  0.67000  0.67000  0.00000  1.0000
