data_image0
_chemical_formula_structural       Cu6La4MnS10
_chemical_formula_sum              "Cu6 La4 Mn1 S10"
_cell_length_a       6.59875
_cell_length_b       7.29538
_cell_length_c       8.79067
_cell_angle_alpha    83.3826
_cell_angle_beta     74.3968
_cell_angle_gamma    89.8439

_space_group_name_H-M_alt    "P 1"
_space_group_IT_number       1

loop_
  _space_group_symop_operation_xyz
  'x, y, z'

loop_
  _atom_site_type_symbol
  _atom_site_label
  _atom_site_symmetry_multiplicity
  _atom_site_fract_x
  _atom_site_fract_y
  _atom_site_fract_z
  _atom_site_occupancy
  Cu  Cu1       1.0  0.55900  0.33900  0.05170  1.0000
  Cu  Cu2       1.0  0.22200  0.79700  0.34400  1.0000
  Cu  Cu3       1.0  0.33600  0.09860  0.42700  1.0000
  Cu  Cu4       1.0  0.66400  0.90100  0.57300  1.0000
  Cu  Cu5       1.0  0.77800  0.20300  0.65600  1.0000
  Cu  Cu6       1.0  0.44100  0.66100  0.94800  1.0000
  La  La1       1.0  0.72300  0.92600  0.17300  1.0000
  La  La2       1.0  0.05990  0.41000  0.24700  1.0000
  La  La3       1.0  0.94000  0.59000  0.75300  1.0000
  La  La4       1.0  0.27700  0.07400  0.82700  1.0000
  Mn  Mn1       1.0  0.50000  0.50000  0.50000  1.0000
  S   S1        1.0  0.08720  0.73000  0.00092  1.0000
  S   S2        1.0  0.31900  0.09240  0.16700  1.0000
  S   S3        1.0  0.47100  0.58500  0.21900  1.0000
  S   S4        1.0  0.68300  0.19300  0.41700  1.0000
  S   S5        1.0  0.87000  0.70200  0.42600  1.0000
  S   S6        1.0  0.13000  0.29800  0.57400  1.0000
  S   S7        1.0  0.31700  0.80700  0.58300  1.0000
  S   S8        1.0  0.52900  0.41500  0.78100  1.0000
  S   S9        1.0  0.68100  0.90800  0.83300  1.0000
  S   S10       1.0  0.91300  0.27000  0.99900  1.0000
