data_image0
_chemical_formula_structural       As4Cu3K2O12
_chemical_formula_sum              "As4 Cu3 K2 O12"
_cell_length_a       5.40132
_cell_length_b       5.83125
_cell_length_c       10.7915
_cell_angle_alpha    102.65
_cell_angle_beta     104.493
_cell_angle_gamma    62.4103

_space_group_name_H-M_alt    "P 1"
_space_group_IT_number       1

loop_
  _space_group_symop_operation_xyz
  'x, y, z'

loop_
  _atom_site_type_symbol
  _atom_site_label
  _atom_site_symmetry_multiplicity
  _atom_site_fract_x
  _atom_site_fract_y
  _atom_site_fract_z
  _atom_site_occupancy
  As  As1       1.0  0.67000  0.69700  0.03660  1.0000
  As  As2       1.0  0.92100  0.46600  0.30800  1.0000
  As  As3       1.0  0.07870  0.53400  0.69200  1.0000
  As  As4       1.0  0.33000  0.30300  0.96300  1.0000
  Cu  Cu1       1.0  0.00000  0.00000  0.00000  1.0000
  Cu  Cu2       1.0  0.23700  0.76800  0.24200  1.0000
  Cu  Cu3       1.0  0.76300  0.23200  0.75800  1.0000
  K   K1        1.0  0.63900  0.14400  0.42200  1.0000
  K   K2        1.0  0.36100  0.85600  0.57800  1.0000
  O   O1        1.0  0.36200  0.87800  0.11600  1.0000
  O   O2        1.0  0.87600  0.87800  0.11600  1.0000
  O   O3        1.0  0.85700  0.42100  0.13600  1.0000
  O   O4        1.0  0.11200  0.64700  0.35600  1.0000
  O   O5        1.0  0.59800  0.64700  0.35600  1.0000
  O   O6        1.0  0.09500  0.17000  0.36000  1.0000
  O   O7        1.0  0.90500  0.83000  0.64000  1.0000
  O   O8        1.0  0.40200  0.35300  0.64400  1.0000
  O   O9        1.0  0.88800  0.35300  0.64400  1.0000
  O   O10       1.0  0.14300  0.57900  0.86400  1.0000
  O   O11       1.0  0.12400  0.12200  0.88400  1.0000
  O   O12       1.0  0.63800  0.12200  0.88400  1.0000
