data_image0
_chemical_formula_structural       B4CuLi6O10
_chemical_formula_sum              "B4 Cu1 Li6 O10"
_cell_length_a       4.73088
_cell_length_b       6.21924
_cell_length_c       7.0919
_cell_angle_alpha    82.8654
_cell_angle_beta     72.0674
_cell_angle_gamma    76.0794

_space_group_name_H-M_alt    "P 1"
_space_group_IT_number       1

loop_
  _space_group_symop_operation_xyz
  'x, y, z'

loop_
  _atom_site_type_symbol
  _atom_site_label
  _atom_site_symmetry_multiplicity
  _atom_site_fract_x
  _atom_site_fract_y
  _atom_site_fract_z
  _atom_site_occupancy
  B   B1        1.0  0.13100  0.53800  0.05900  1.0000
  B   B2        1.0  0.39200  0.11400  0.61700  1.0000
  B   B3        1.0  0.28400  0.60700  0.67700  1.0000
  B   B4        1.0  0.21600  0.01780  0.99100  1.0000
  Cu  Cu1       1.0  0.75500  0.33300  0.84200  1.0000
  Li  Li1       1.0  0.51800  0.15000  0.22100  1.0000
  Li  Li2       1.0  0.45300  0.63200  0.27800  1.0000
  Li  Li3       1.0  0.94300  0.83500  0.34400  1.0000
  Li  Li4       1.0  0.87000  0.36500  0.43400  1.0000
  Li  Li5       1.0  0.89700  0.97300  0.63700  1.0000
  Li  Li6       1.0  0.73400  0.83200  0.99900  1.0000
  O   O1        1.0  0.91200  0.08550  0.00705  1.0000
  O   O2        1.0  0.41000  0.43100  0.07840  1.0000
  O   O3        1.0  0.31900  0.93000  0.14800  1.0000
  O   O4        1.0  0.88400  0.59600  0.21800  1.0000
  O   O5        1.0  0.64500  0.09280  0.45800  1.0000
  O   O6        1.0  0.17100  0.71300  0.53000  1.0000
  O   O7        1.0  0.10600  0.21100  0.60700  1.0000
  O   O8        1.0  0.57900  0.50800  0.65200  1.0000
  O   O9        1.0  0.44400  0.02460  0.80400  1.0000
  O   O10       1.0  0.07540  0.60900  0.87400  1.0000
