data_image0
_chemical_formula_structural       Ba2O13Ti6
_chemical_formula_sum              "Ba2 O13 Ti6"
_cell_length_a       3.97057
_cell_length_b       7.70312
_cell_length_c       9.09371
_cell_angle_alpha    97.6491
_cell_angle_beta     90
_cell_angle_gamma    104.935

_space_group_name_H-M_alt    "P 1"
_space_group_IT_number       1

loop_
  _space_group_symop_operation_xyz
  'x, y, z'

loop_
  _atom_site_type_symbol
  _atom_site_label
  _atom_site_symmetry_multiplicity
  _atom_site_fract_x
  _atom_site_fract_y
  _atom_site_fract_z
  _atom_site_occupancy
  Ba  Ba1       1.0  0.94700  0.89400  0.21900  1.0000
  Ba  Ba2       1.0  0.05310  0.10600  0.78100  1.0000
  O   O1        1.0  0.50000  0.00000  0.00000  1.0000
  O   O2        1.0  0.32500  0.64900  0.07800  1.0000
  O   O3        1.0  0.12500  0.24900  0.11400  1.0000
  O   O4        1.0  0.74300  0.48700  0.24800  1.0000
  O   O5        1.0  0.56900  0.13800  0.30200  1.0000
  O   O6        1.0  0.37100  0.74100  0.37600  1.0000
  O   O7        1.0  0.19700  0.39400  0.43300  1.0000
  O   O8        1.0  0.80300  0.60600  0.56700  1.0000
  O   O9        1.0  0.62900  0.25900  0.62400  1.0000
  O   O10       1.0  0.43100  0.86200  0.69800  1.0000
  O   O11       1.0  0.25700  0.51300  0.75200  1.0000
  O   O12       1.0  0.87500  0.75100  0.88600  1.0000
  O   O13       1.0  0.67500  0.35100  0.92200  1.0000
  Ti  Ti1       1.0  0.62200  0.24500  0.10200  1.0000
  Ti  Ti2       1.0  0.25100  0.50300  0.22700  1.0000
  Ti  Ti3       1.0  0.66900  0.33800  0.44300  1.0000
  Ti  Ti4       1.0  0.33100  0.66200  0.55700  1.0000
  Ti  Ti5       1.0  0.74900  0.49700  0.77300  1.0000
  Ti  Ti6       1.0  0.37800  0.75500  0.89800  1.0000
