data_image0
_chemical_formula_structural       Cs12O3Tl6
_chemical_formula_sum              "Cs12 O3 Tl6"
_cell_length_a       9.82318
_cell_length_b       9.82318
_cell_length_c       9.82319
_cell_angle_alpha    103.409
_cell_angle_beta     76.5905
_cell_angle_gamma    103.409

_space_group_name_H-M_alt    "P 1"
_space_group_IT_number       1

loop_
  _space_group_symop_operation_xyz
  'x, y, z'

loop_
  _atom_site_type_symbol
  _atom_site_label
  _atom_site_symmetry_multiplicity
  _atom_site_fract_x
  _atom_site_fract_y
  _atom_site_fract_z
  _atom_site_occupancy
  Cs  Cs1       1.0  0.70800  0.98300  0.01680  1.0000
  Cs  Cs2       1.0  0.01680  0.29200  0.01680  1.0000
  Cs  Cs3       1.0  0.36900  0.63100  0.03740  1.0000
  Cs  Cs4       1.0  0.98300  0.01680  0.29200  1.0000
  Cs  Cs5       1.0  0.36900  0.96300  0.36900  1.0000
  Cs  Cs6       1.0  0.03740  0.63100  0.36900  1.0000
  Cs  Cs7       1.0  0.63100  0.03740  0.63100  1.0000
  Cs  Cs8       1.0  0.96300  0.36900  0.63100  1.0000
  Cs  Cs9       1.0  0.01680  0.98300  0.70800  1.0000
  Cs  Cs10      1.0  0.63100  0.36900  0.96300  1.0000
  Cs  Cs11      1.0  0.29200  0.01680  0.98300  1.0000
  Cs  Cs12      1.0  0.98300  0.70800  0.98300  1.0000
  O   O1        1.0  0.00000  0.00000  0.00000  1.0000
  O   O2        1.0  0.17900  0.82100  0.17900  1.0000
  O   O3        1.0  0.82100  0.17900  0.82100  1.0000
  Tl  Tl1       1.0  0.34500  0.38300  0.34500  1.0000
  Tl  Tl2       1.0  0.61700  0.65500  0.34500  1.0000
  Tl  Tl3       1.0  0.65500  0.34500  0.38300  1.0000
  Tl  Tl4       1.0  0.34500  0.65500  0.61700  1.0000
  Tl  Tl5       1.0  0.38300  0.34500  0.65500  1.0000
  Tl  Tl6       1.0  0.65500  0.61700  0.65500  1.0000
