data_image0
_chemical_formula_structural       Hf5P7Pd9
_chemical_formula_sum              "Hf5 P7 Pd9"
_cell_length_a       3.79089
_cell_length_b       6.54031
_cell_length_c       13.7012
_cell_angle_alpha    76.1916
_cell_angle_beta     90
_cell_angle_gamma    90

_space_group_name_H-M_alt    "P 1"
_space_group_IT_number       1

loop_
  _space_group_symop_operation_xyz
  'x, y, z'

loop_
  _atom_site_type_symbol
  _atom_site_label
  _atom_site_symmetry_multiplicity
  _atom_site_fract_x
  _atom_site_fract_y
  _atom_site_fract_z
  _atom_site_occupancy
  Hf  Hf1       1.0  0.00000  0.53000  0.00000  1.0000
  Hf  Hf2       1.0  0.00000  0.82200  0.17600  1.0000
  Hf  Hf3       1.0  0.50000  0.07700  0.45800  1.0000
  Hf  Hf4       1.0  0.50000  0.53500  0.54200  1.0000
  Hf  Hf5       1.0  0.00000  0.99800  0.82400  1.0000
  P   P1        1.0  0.00000  0.13200  0.00000  1.0000
  P   P2        1.0  0.50000  0.55800  0.13500  1.0000
  P   P3        1.0  0.50000  0.96400  0.28700  1.0000
  P   P4        1.0  0.00000  0.37700  0.43100  1.0000
  P   P5        1.0  0.00000  0.80800  0.56900  1.0000
  P   P6        1.0  0.50000  0.25100  0.71300  1.0000
  P   P7        1.0  0.50000  0.69400  0.86500  1.0000
  Pd  Pd1       1.0  0.50000  0.88300  0.00000  1.0000
  Pd  Pd2       1.0  0.50000  0.20200  0.11700  1.0000
  Pd  Pd3       1.0  0.00000  0.21400  0.28000  1.0000
  Pd  Pd4       1.0  0.50000  0.53500  0.31400  1.0000
  Pd  Pd5       1.0  0.00000  0.77900  0.39300  1.0000
  Pd  Pd6       1.0  0.00000  0.17200  0.60700  1.0000
  Pd  Pd7       1.0  0.50000  0.85000  0.68600  1.0000
  Pd  Pd8       1.0  0.00000  0.49400  0.72000  1.0000
  Pd  Pd9       1.0  0.50000  0.31800  0.88300  1.0000
