data_image0
_chemical_formula_structural       Cu3Ge4Na2O12
_chemical_formula_sum              "Cu3 Ge4 Na2 O12"
_cell_length_a       6.1868
_cell_length_b       7.61224
_cell_length_c       5.48257
_cell_angle_alpha    102.153
_cell_angle_beta     93.3577
_cell_angle_gamma    86.9457

_space_group_name_H-M_alt    "P 1"
_space_group_IT_number       1

loop_
  _space_group_symop_operation_xyz
  'x, y, z'

loop_
  _atom_site_type_symbol
  _atom_site_label
  _atom_site_symmetry_multiplicity
  _atom_site_fract_x
  _atom_site_fract_y
  _atom_site_fract_z
  _atom_site_occupancy
  Cu  Cu1       1.0  0.00000  0.00000  0.00000  1.0000
  Cu  Cu2       1.0  0.15900  0.82100  0.48600  1.0000
  Cu  Cu3       1.0  0.84100  0.17900  0.51400  1.0000
  Ge  Ge1       1.0  0.60000  0.82200  0.24400  1.0000
  Ge  Ge2       1.0  0.22200  0.37200  0.30900  1.0000
  Ge  Ge3       1.0  0.77800  0.62800  0.69100  1.0000
  Ge  Ge4       1.0  0.40000  0.17800  0.75600  1.0000
  Na  Na1       1.0  0.75500  0.40900  0.09080  1.0000
  Na  Na2       1.0  0.24500  0.59100  0.90900  1.0000
  O   O1        1.0  0.41000  0.31600  0.06640  1.0000
  O   O2        1.0  0.00468  0.22400  0.24100  1.0000
  O   O3        1.0  0.82900  0.95300  0.26900  1.0000
  O   O4        1.0  0.33900  0.91800  0.27600  1.0000
  O   O5        1.0  0.11000  0.58500  0.29100  1.0000
  O   O6        1.0  0.62600  0.64200  0.41200  1.0000
  O   O7        1.0  0.37400  0.35800  0.58800  1.0000
  O   O8        1.0  0.89000  0.41500  0.70900  1.0000
  O   O9        1.0  0.66100  0.08170  0.72400  1.0000
  O   O10       1.0  0.17100  0.04690  0.73100  1.0000
  O   O11       1.0  0.99500  0.77600  0.75900  1.0000
  O   O12       1.0  0.59000  0.68400  0.93400  1.0000
