data_image0
_chemical_formula_structural       As7Dy2Ni12
_chemical_formula_sum              "As7 Dy2 Ni12"
_cell_length_a       9.34245
_cell_length_b       9.34359
_cell_length_c       3.82586
_cell_angle_alpha    90
_cell_angle_beta     90
_cell_angle_gamma    119.996

_space_group_name_H-M_alt    "P 1"
_space_group_IT_number       1

loop_
  _space_group_symop_operation_xyz
  'x, y, z'

loop_
  _atom_site_type_symbol
  _atom_site_label
  _atom_site_symmetry_multiplicity
  _atom_site_fract_x
  _atom_site_fract_y
  _atom_site_fract_z
  _atom_site_occupancy
  As  As1       1.0  0.00001  0.00001  0.00000  1.0000
  As  As2       1.0  0.71300  0.11700  0.00000  1.0000
  As  As3       1.0  0.40400  0.28700  0.00000  1.0000
  As  As4       1.0  0.88300  0.59600  0.00000  1.0000
  As  As5       1.0  0.11000  0.40700  0.50000  1.0000
  As  As6       1.0  0.59300  0.70300  0.50000  1.0000
  As  As7       1.0  0.29700  0.89000  0.50000  1.0000
  Dy  Dy1       1.0  0.33300  0.66700  0.00000  1.0000
  Dy  Dy2       1.0  0.66700  0.33300  0.50000  1.0000
  Ni  Ni1       1.0  0.43800  0.05670  0.00000  1.0000
  Ni  Ni2       1.0  0.15100  0.28000  0.00000  1.0000
  Ni  Ni3       1.0  0.94300  0.38100  0.00000  1.0000
  Ni  Ni4       1.0  0.61900  0.56200  0.00000  1.0000
  Ni  Ni5       1.0  0.12800  0.84900  0.00000  1.0000
  Ni  Ni6       1.0  0.72000  0.87200  0.00000  1.0000
  Ni  Ni7       1.0  0.21000  0.09550  0.50000  1.0000
  Ni  Ni8       1.0  0.90400  0.11500  0.50000  1.0000
  Ni  Ni9       1.0  0.37800  0.42600  0.50000  1.0000
  Ni  Ni10      1.0  0.04790  0.62200  0.50000  1.0000
  Ni  Ni11      1.0  0.88500  0.79000  0.50000  1.0000
  Ni  Ni12      1.0  0.57400  0.95200  0.50000  1.0000
