data_image0
_chemical_formula_structural       BaO14P4V2
_chemical_formula_sum              "Ba1 O14 P4 V2"
_cell_length_a       6.25934
_cell_length_b       7.77901
_cell_length_c       6.1359
_cell_angle_alpha    101.054
_cell_angle_beta     106.007
_cell_angle_gamma    96.4524

_space_group_name_H-M_alt    "P 1"
_space_group_IT_number       1

loop_
  _space_group_symop_operation_xyz
  'x, y, z'

loop_
  _atom_site_type_symbol
  _atom_site_label
  _atom_site_symmetry_multiplicity
  _atom_site_fract_x
  _atom_site_fract_y
  _atom_site_fract_z
  _atom_site_occupancy
  Ba  Ba1       1.0  0.00000  0.00000  0.00000  1.0000
  O   O1        1.0  0.68800  0.27500  0.07100  1.0000
  O   O2        1.0  0.64800  0.96000  0.20500  1.0000
  O   O3        1.0  0.59300  0.64700  0.25900  1.0000
  O   O4        1.0  0.36300  0.24000  0.30800  1.0000
  O   O5        1.0  0.31100  0.85100  0.32900  1.0000
  O   O6        1.0  0.02700  0.20800  0.44000  1.0000
  O   O7        1.0  0.21700  0.51900  0.45100  1.0000
  O   O8        1.0  0.78300  0.48100  0.54900  1.0000
  O   O9        1.0  0.97300  0.79200  0.56000  1.0000
  O   O10       1.0  0.68900  0.14900  0.67100  1.0000
  O   O11       1.0  0.63700  0.76000  0.69200  1.0000
  O   O12       1.0  0.40700  0.35300  0.74100  1.0000
  O   O13       1.0  0.35200  0.04030  0.79500  1.0000
  O   O14       1.0  0.31200  0.72500  0.92900  1.0000
  P   P1        1.0  0.46500  0.80200  0.17700  1.0000
  P   P2        1.0  0.24700  0.33400  0.47700  1.0000
  P   P3        1.0  0.75300  0.66600  0.52300  1.0000
  P   P4        1.0  0.53500  0.19800  0.82300  1.0000
  V   V1        1.0  0.69800  0.22600  0.38200  1.0000
  V   V2        1.0  0.30200  0.77400  0.61800  1.0000
