data_image0
_chemical_formula_structural       Au2O8V4
_chemical_formula_sum              "Au2 O8 V4"
_cell_length_a       6.20311
_cell_length_b       6.20311
_cell_length_c       6.20311
_cell_angle_alpha    120.372
_cell_angle_beta     89.3573
_cell_angle_gamma    120.372

_space_group_name_H-M_alt    "P 1"
_space_group_IT_number       1

loop_
  _space_group_symop_operation_xyz
  'x, y, z'

loop_
  _atom_site_type_symbol
  _atom_site_label
  _atom_site_symmetry_multiplicity
  _atom_site_fract_x
  _atom_site_fract_y
  _atom_site_fract_z
  _atom_site_occupancy
  Au  Au1       1.0  0.00000  0.00000  0.00000  1.0000
  Au  Au2       1.0  0.75000  0.50000  0.25000  1.0000
  O   O1        1.0  0.60100  0.20700  0.39500  1.0000
  O   O2        1.0  0.18800  0.79300  0.39500  1.0000
  O   O3        1.0  0.60500  0.79300  0.39900  1.0000
  O   O4        1.0  0.14500  0.29300  0.43800  1.0000
  O   O5        1.0  0.60500  0.20700  0.81200  1.0000
  O   O6        1.0  0.14500  0.70700  0.85100  1.0000
  O   O7        1.0  0.14900  0.29300  0.85500  1.0000
  O   O8        1.0  0.56200  0.70700  0.85500  1.0000
  V   V1        1.0  0.37500  0.75000  0.12500  1.0000
  V   V2        1.0  0.87500  0.25000  0.62500  1.0000
  V   V3        1.0  0.37500  0.25000  0.62500  1.0000
  V   V4        1.0  0.37500  0.75000  0.62500  1.0000
