data_image0
_chemical_formula_structural       BaC8N8Pt2Rb2
_chemical_formula_sum              "Ba1 C8 N8 Pt2 Rb2"
_cell_length_a       7.79156
_cell_length_b       7.79156
_cell_length_c       6.85242
_cell_angle_alpha    90
_cell_angle_beta     90
_cell_angle_gamma    90

_space_group_name_H-M_alt    "P 1"
_space_group_IT_number       1

loop_
  _space_group_symop_operation_xyz
  'x, y, z'

loop_
  _atom_site_type_symbol
  _atom_site_label
  _atom_site_symmetry_multiplicity
  _atom_site_fract_x
  _atom_site_fract_y
  _atom_site_fract_z
  _atom_site_occupancy
  Ba  Ba1       1.0  0.50000  0.50000  0.00000  1.0000
  C   C1        1.0  0.18000  0.18000  0.24000  1.0000
  C   C2        1.0  0.82000  0.18000  0.24000  1.0000
  C   C3        1.0  0.18000  0.82000  0.24000  1.0000
  C   C4        1.0  0.82000  0.82000  0.24000  1.0000
  C   C5        1.0  0.18000  0.18000  0.76000  1.0000
  C   C6        1.0  0.82000  0.18000  0.76000  1.0000
  C   C7        1.0  0.18000  0.82000  0.76000  1.0000
  C   C8        1.0  0.82000  0.82000  0.76000  1.0000
  N   N1        1.0  0.28700  0.28700  0.23800  1.0000
  N   N2        1.0  0.71300  0.28700  0.23800  1.0000
  N   N3        1.0  0.28700  0.71300  0.23800  1.0000
  N   N4        1.0  0.71300  0.71300  0.23800  1.0000
  N   N5        1.0  0.28700  0.28700  0.76200  1.0000
  N   N6        1.0  0.71300  0.28700  0.76200  1.0000
  N   N7        1.0  0.28700  0.71300  0.76200  1.0000
  N   N8        1.0  0.71300  0.71300  0.76200  1.0000
  Pt  Pt1       1.0  0.00000  0.00000  0.24300  1.0000
  Pt  Pt2       1.0  0.00000  0.00000  0.75700  1.0000
  Rb  Rb1       1.0  0.50000  0.00000  0.50000  1.0000
  Rb  Rb2       1.0  0.00000  0.50000  0.50000  1.0000
