data_image0
_chemical_formula_structural       P7Ru12Sc2
_chemical_formula_sum              "P7 Ru12 Sc2"
_cell_length_a       9.3659
_cell_length_b       9.36594
_cell_length_c       3.90104
_cell_angle_alpha    90
_cell_angle_beta     90
_cell_angle_gamma    119.999

_space_group_name_H-M_alt    "P 1"
_space_group_IT_number       1

loop_
  _space_group_symop_operation_xyz
  'x, y, z'

loop_
  _atom_site_type_symbol
  _atom_site_label
  _atom_site_symmetry_multiplicity
  _atom_site_fract_x
  _atom_site_fract_y
  _atom_site_fract_z
  _atom_site_occupancy
  P   P1        1.0  0.00000  1.00000  0.00000  1.0000
  P   P2        1.0  0.69200  0.11800  0.00000  1.0000
  P   P3        1.0  0.42600  0.30800  0.00000  1.0000
  P   P4        1.0  0.88200  0.57400  0.00000  1.0000
  P   P5        1.0  0.12000  0.40300  0.50000  1.0000
  P   P6        1.0  0.59700  0.71700  0.50000  1.0000
  P   P7        1.0  0.28300  0.88000  0.50000  1.0000
  Ru  Ru1       1.0  0.42800  0.06760  0.00000  1.0000
  Ru  Ru2       1.0  0.16400  0.27400  0.00000  1.0000
  Ru  Ru3       1.0  0.93200  0.36000  0.00000  1.0000
  Ru  Ru4       1.0  0.64000  0.57200  0.00000  1.0000
  Ru  Ru5       1.0  0.11000  0.83600  0.00000  1.0000
  Ru  Ru6       1.0  0.72600  0.89000  0.00000  1.0000
  Ru  Ru7       1.0  0.20900  0.08740  0.50000  1.0000
  Ru  Ru8       1.0  0.91300  0.12200  0.50000  1.0000
  Ru  Ru9       1.0  0.39200  0.44500  0.50000  1.0000
  Ru  Ru10      1.0  0.05360  0.60800  0.50000  1.0000
  Ru  Ru11      1.0  0.87800  0.79100  0.50000  1.0000
  Ru  Ru12      1.0  0.55500  0.94600  0.50000  1.0000
  Sc  Sc1       1.0  0.33300  0.66700  0.00000  1.0000
  Sc  Sc2       1.0  0.66700  0.33300  0.50000  1.0000
