data_image0
_chemical_formula_structural       Fe2O14P4Sr
_chemical_formula_sum              "Fe2 O14 P4 Sr1"
_cell_length_a       4.77318
_cell_length_b       7.09678
_cell_length_c       7.76367
_cell_angle_alpha    89.7024
_cell_angle_beta     87.9552
_cell_angle_gamma    72.8597

_space_group_name_H-M_alt    "P 1"
_space_group_IT_number       1

loop_
  _space_group_symop_operation_xyz
  'x, y, z'

loop_
  _atom_site_type_symbol
  _atom_site_label
  _atom_site_symmetry_multiplicity
  _atom_site_fract_x
  _atom_site_fract_y
  _atom_site_fract_z
  _atom_site_occupancy
  Fe  Fe1       1.0  0.00000  0.50000  0.00000  1.0000
  Fe  Fe2       1.0  0.50000  1.00000  0.50000  1.0000
  O   O1        1.0  0.39500  0.35400  0.07740  1.0000
  O   O2        1.0  0.00591  0.76300  0.11400  1.0000
  O   O3        1.0  0.82200  0.43700  0.21400  1.0000
  O   O4        1.0  0.31900  0.90300  0.29200  1.0000
  O   O5        1.0  0.60300  0.18900  0.34500  1.0000
  O   O6        1.0  0.31200  0.55100  0.35300  1.0000
  O   O7        1.0  0.88000  0.81600  0.43900  1.0000
  O   O8        1.0  0.12000  0.18400  0.56100  1.0000
  O   O9        1.0  0.68800  0.44900  0.64700  1.0000
  O   O10       1.0  0.39700  0.81100  0.65500  1.0000
  O   O11       1.0  0.68100  0.09740  0.70800  1.0000
  O   O12       1.0  0.17800  0.56300  0.78600  1.0000
  O   O13       1.0  0.99400  0.23700  0.88600  1.0000
  O   O14       1.0  0.60500  0.64600  0.92300  1.0000
  P   P1        1.0  0.54300  0.38000  0.24600  1.0000
  P   P2        1.0  0.11600  0.77000  0.29900  1.0000
  P   P3        1.0  0.88400  0.23000  0.70100  1.0000
  P   P4        1.0  0.45700  0.62000  0.75400  1.0000
  Sr  Sr1       1.0  0.50000  0.00000  1.00000  1.0000
