data_image0
_chemical_formula_structural       Er2Fe12P7
_chemical_formula_sum              "Er2 Fe12 P7"
_cell_length_a       8.89151
_cell_length_b       8.89242
_cell_length_c       3.6182
_cell_angle_alpha    90
_cell_angle_beta     90
_cell_angle_gamma    119.99

_space_group_name_H-M_alt    "P 1"
_space_group_IT_number       1

loop_
  _space_group_symop_operation_xyz
  'x, y, z'

loop_
  _atom_site_type_symbol
  _atom_site_label
  _atom_site_symmetry_multiplicity
  _atom_site_fract_x
  _atom_site_fract_y
  _atom_site_fract_z
  _atom_site_occupancy
  Er  Er1       1.0  0.33300  0.66700  0.00000  1.0000
  Er  Er2       1.0  0.66700  0.33300  0.50000  1.0000
  Fe  Fe1       1.0  0.42600  0.05660  0.00000  1.0000
  Fe  Fe2       1.0  0.15400  0.27400  0.00000  1.0000
  Fe  Fe3       1.0  0.94300  0.37000  0.00000  1.0000
  Fe  Fe4       1.0  0.63000  0.57400  0.00000  1.0000
  Fe  Fe5       1.0  0.12000  0.84600  0.00000  1.0000
  Fe  Fe6       1.0  0.72600  0.88000  0.00000  1.0000
  Fe  Fe7       1.0  0.21200  0.09530  0.50000  1.0000
  Fe  Fe8       1.0  0.90500  0.11600  0.50000  1.0000
  Fe  Fe9       1.0  0.38300  0.43300  0.50000  1.0000
  Fe  Fe10      1.0  0.04940  0.61700  0.50000  1.0000
  Fe  Fe11      1.0  0.88400  0.78800  0.50000  1.0000
  Fe  Fe12      1.0  0.56700  0.95100  0.50000  1.0000
  P   P1        1.0  0.70200  0.11300  0.00000  1.0000
  P   P2        1.0  0.41100  0.29800  0.00000  1.0000
  P   P3        1.0  0.88700  0.58900  0.00000  1.0000
  P   P4        1.0  0.99994  0.00000  0.00000  1.0000
  P   P5        1.0  0.11100  0.40100  0.50000  1.0000
  P   P6        1.0  0.59900  0.71000  0.50000  1.0000
  P   P7        1.0  0.29000  0.88900  0.50000  1.0000
