data_image0
_chemical_formula_structural       Eu2Ni12P7
_chemical_formula_sum              "Eu2 Ni12 P7"
_cell_length_a       9.07538
_cell_length_b       9.07537
_cell_length_c       3.70433
_cell_angle_alpha    90
_cell_angle_beta     90
_cell_angle_gamma    120.001

_space_group_name_H-M_alt    "P 1"
_space_group_IT_number       1

loop_
  _space_group_symop_operation_xyz
  'x, y, z'

loop_
  _atom_site_type_symbol
  _atom_site_label
  _atom_site_symmetry_multiplicity
  _atom_site_fract_x
  _atom_site_fract_y
  _atom_site_fract_z
  _atom_site_occupancy
  Eu  Eu1       1.0  0.33300  0.66700  0.00000  1.0000
  Eu  Eu2       1.0  0.66700  0.33300  0.50000  1.0000
  Ni  Ni1       1.0  0.43500  0.05880  0.00000  1.0000
  Ni  Ni2       1.0  0.14900  0.27400  0.00000  1.0000
  Ni  Ni3       1.0  0.94100  0.37700  0.00000  1.0000
  Ni  Ni4       1.0  0.62300  0.56500  0.00000  1.0000
  Ni  Ni5       1.0  0.12500  0.85100  0.00000  1.0000
  Ni  Ni6       1.0  0.72600  0.87500  0.00000  1.0000
  Ni  Ni7       1.0  0.21400  0.09550  0.50000  1.0000
  Ni  Ni8       1.0  0.90400  0.11900  0.50000  1.0000
  Ni  Ni9       1.0  0.37800  0.42800  0.50000  1.0000
  Ni  Ni10      1.0  0.05020  0.62200  0.50000  1.0000
  Ni  Ni11      1.0  0.88100  0.78600  0.50000  1.0000
  Ni  Ni12      1.0  0.57200  0.95000  0.50000  1.0000
  P   P1        1.0  0.00000  0.00000  0.00000  1.0000
  P   P2        1.0  0.70700  0.11000  0.00000  1.0000
  P   P3        1.0  0.40300  0.29300  0.00000  1.0000
  P   P4        1.0  0.89000  0.59700  0.00000  1.0000
  P   P5        1.0  0.10300  0.40100  0.50000  1.0000
  P   P6        1.0  0.59900  0.70200  0.50000  1.0000
  P   P7        1.0  0.29800  0.89700  0.50000  1.0000
