data_image0
_chemical_formula_structural       B6Ba2CaO12
_chemical_formula_sum              "B6 Ba2 Ca1 O12"
_cell_length_a       7.15209
_cell_length_b       7.15209
_cell_length_c       7.10701
_cell_angle_alpha    59.7899
_cell_angle_beta     120.21
_cell_angle_gamma    120

_space_group_name_H-M_alt    "P 1"
_space_group_IT_number       1

loop_
  _space_group_symop_operation_xyz
  'x, y, z'

loop_
  _atom_site_type_symbol
  _atom_site_label
  _atom_site_symmetry_multiplicity
  _atom_site_fract_x
  _atom_site_fract_y
  _atom_site_fract_z
  _atom_site_occupancy
  B   B1        1.0  0.24300  0.36500  0.24700  1.0000
  B   B2        1.0  0.63500  0.63000  0.24700  1.0000
  B   B3        1.0  0.37000  0.75700  0.24700  1.0000
  B   B4        1.0  0.63000  0.24300  0.75300  1.0000
  B   B5        1.0  0.36500  0.37000  0.75300  1.0000
  B   B6        1.0  0.75700  0.63500  0.75300  1.0000
  Ba  Ba1       1.0  0.79000  0.21000  0.37000  1.0000
  Ba  Ba2       1.0  0.21000  0.79000  0.63000  1.0000
  Ca  Ca1       1.0  0.00000  0.00000  0.00000  1.0000
  O   O1        1.0  0.45800  0.41800  0.24100  1.0000
  O   O2        1.0  0.20200  0.54200  0.24100  1.0000
  O   O3        1.0  0.58200  0.79800  0.24100  1.0000
  O   O4        1.0  0.08260  0.16000  0.26000  1.0000
  O   O5        1.0  0.84000  0.66200  0.26000  1.0000
  O   O6        1.0  0.33800  0.91700  0.26000  1.0000
  O   O7        1.0  0.66200  0.08260  0.74000  1.0000
  O   O8        1.0  0.16000  0.33800  0.74000  1.0000
  O   O9        1.0  0.91700  0.84000  0.74000  1.0000
  O   O10       1.0  0.41800  0.20200  0.75900  1.0000
  O   O11       1.0  0.79800  0.45800  0.75900  1.0000
  O   O12       1.0  0.54200  0.58200  0.75900  1.0000
