data_image0
_chemical_formula_structural       Hf5K4O12
_chemical_formula_sum              "Hf5 K4 O12"
_cell_length_a       5.7727
_cell_length_b       5.77271
_cell_length_c       10.3466
_cell_angle_alpha    90
_cell_angle_beta     89.9994
_cell_angle_gamma    120

_space_group_name_H-M_alt    "P 1"
_space_group_IT_number       1

loop_
  _space_group_symop_operation_xyz
  'x, y, z'

loop_
  _atom_site_type_symbol
  _atom_site_label
  _atom_site_symmetry_multiplicity
  _atom_site_fract_x
  _atom_site_fract_y
  _atom_site_fract_z
  _atom_site_occupancy
  Hf  Hf1       1.0  0.00000  0.00000  0.00000  1.0000
  Hf  Hf2       1.0  0.66700  0.33300  0.21700  1.0000
  Hf  Hf3       1.0  0.33300  0.66700  0.47600  1.0000
  Hf  Hf4       1.0  0.66700  0.33300  0.52400  1.0000
  Hf  Hf5       1.0  0.33300  0.66700  0.78300  1.0000
  K   K1        1.0  0.33300  0.66700  0.11300  1.0000
  K   K2        1.0  1.00000  1.00000  0.32300  1.0000
  K   K3        1.0  0.00000  0.00000  0.67700  1.0000
  K   K4        1.0  0.66700  0.33300  0.88700  1.0000
  O   O1        1.0  0.83500  0.67000  0.12100  1.0000
  O   O2        1.0  0.83500  0.16500  0.12100  1.0000
  O   O3        1.0  0.33000  0.16500  0.12100  1.0000
  O   O4        1.0  0.98100  0.49000  0.37700  1.0000
  O   O5        1.0  0.51000  0.01910  0.37700  1.0000
  O   O6        1.0  0.51000  0.49000  0.37700  1.0000
  O   O7        1.0  0.49000  0.51000  0.62300  1.0000
  O   O8        1.0  0.49000  0.98100  0.62300  1.0000
  O   O9        1.0  0.01910  0.51000  0.62300  1.0000
  O   O10       1.0  0.67000  0.83500  0.87900  1.0000
  O   O11       1.0  0.16500  0.33000  0.87900  1.0000
  O   O12       1.0  0.16500  0.83500  0.87900  1.0000
