data_image0
_chemical_formula_structural       CdO14P4V2
_chemical_formula_sum              "Cd1 O14 P4 V2"
_cell_length_a       4.77535
_cell_length_b       6.99533
_cell_length_c       7.73968
_cell_angle_alpha    89.3712
_cell_angle_beta     88.2851
_cell_angle_gamma    72.9267

_space_group_name_H-M_alt    "P 1"
_space_group_IT_number       1

loop_
  _space_group_symop_operation_xyz
  'x, y, z'

loop_
  _atom_site_type_symbol
  _atom_site_label
  _atom_site_symmetry_multiplicity
  _atom_site_fract_x
  _atom_site_fract_y
  _atom_site_fract_z
  _atom_site_occupancy
  Cd  Cd1       1.0  0.00000  0.00000  0.00000  1.0000
  O   O1        1.0  0.90700  0.33100  0.08170  1.0000
  O   O2        1.0  0.48800  0.78000  0.09880  1.0000
  O   O3        1.0  0.31900  0.44300  0.21500  1.0000
  O   O4        1.0  0.81900  0.92500  0.26800  1.0000
  O   O5        1.0  0.80200  0.56900  0.33200  1.0000
  O   O6        1.0  0.08920  0.22100  0.38000  1.0000
  O   O7        1.0  0.39100  0.83800  0.42600  1.0000
  O   O8        1.0  0.60900  0.16200  0.57400  1.0000
  O   O9        1.0  0.91100  0.77900  0.62000  1.0000
  O   O10       1.0  0.19800  0.43100  0.66800  1.0000
  O   O11       1.0  0.18100  0.07530  0.73200  1.0000
  O   O12       1.0  0.68100  0.55700  0.78500  1.0000
  O   O13       1.0  0.51200  0.22000  0.90100  1.0000
  O   O14       1.0  0.09330  0.66900  0.91800  1.0000
  P   P1        1.0  0.04080  0.38400  0.24900  1.0000
  P   P2        1.0  0.61300  0.79100  0.28000  1.0000
  P   P3        1.0  0.38700  0.20900  0.72000  1.0000
  P   P4        1.0  0.95900  0.61600  0.75100  1.0000
  V   V1        1.0  0.50000  0.50000  0.00000  1.0000
  V   V2        1.0  1.00000  0.00000  0.50000  1.0000
