data_image0
_chemical_formula_structural       O14P4PbV2
_chemical_formula_sum              "O14 P4 Pb1 V2"
_cell_length_a       4.79097
_cell_length_b       7.12236
_cell_length_c       7.85866
_cell_angle_alpha    89.6523
_cell_angle_beta     92.1775
_cell_angle_gamma    106.454

_space_group_name_H-M_alt    "P 1"
_space_group_IT_number       1

loop_
  _space_group_symop_operation_xyz
  'x, y, z'

loop_
  _atom_site_type_symbol
  _atom_site_label
  _atom_site_symmetry_multiplicity
  _atom_site_fract_x
  _atom_site_fract_y
  _atom_site_fract_z
  _atom_site_occupancy
  O   O1        1.0  0.38100  0.18000  0.06480  1.0000
  O   O2        1.0  0.10500  0.79900  0.14700  1.0000
  O   O3        1.0  0.80300  0.44500  0.14800  1.0000
  O   O4        1.0  0.82000  0.09460  0.20700  1.0000
  O   O5        1.0  0.30800  0.54900  0.28600  1.0000
  O   O6        1.0  0.51400  0.23500  0.38700  1.0000
  O   O7        1.0  0.89000  0.64800  0.41600  1.0000
  O   O8        1.0  0.11000  0.35200  0.58400  1.0000
  O   O9        1.0  0.48600  0.76500  0.61300  1.0000
  O   O10       1.0  0.69200  0.45100  0.71400  1.0000
  O   O11       1.0  0.18000  0.90500  0.79300  1.0000
  O   O12       1.0  0.19700  0.55500  0.85200  1.0000
  O   O13       1.0  0.89500  0.20100  0.85300  1.0000
  O   O14       1.0  0.61900  0.82000  0.93500  1.0000
  P   P1        1.0  0.61700  0.22800  0.20300  1.0000
  P   P2        1.0  0.03740  0.61500  0.25000  1.0000
  P   P3        1.0  0.96300  0.38500  0.75000  1.0000
  P   P4        1.0  0.38300  0.77200  0.79700  1.0000
  Pb  Pb1       1.0  0.00000  1.00000  0.50000  1.0000
  V   V1        1.0  0.00000  0.00000  0.00000  1.0000
  V   V2        1.0  0.50000  0.50000  0.50000  1.0000
