data_image0
_chemical_formula_structural       O13Rb2Ti6
_chemical_formula_sum              "O13 Rb2 Ti6"
_cell_length_a       3.8341
_cell_length_b       8.13667
_cell_length_c       9.13324
_cell_angle_alpha    100.014
_cell_angle_beta     90
_cell_angle_gamma    103.627

_space_group_name_H-M_alt    "P 1"
_space_group_IT_number       1

loop_
  _space_group_symop_operation_xyz
  'x, y, z'

loop_
  _atom_site_type_symbol
  _atom_site_label
  _atom_site_symmetry_multiplicity
  _atom_site_fract_x
  _atom_site_fract_y
  _atom_site_fract_z
  _atom_site_occupancy
  O   O1        1.0  0.00000  0.00000  0.00000  1.0000
  O   O2        1.0  0.83100  0.66200  0.08200  1.0000
  O   O3        1.0  0.64100  0.28300  0.11200  1.0000
  O   O4        1.0  0.23900  0.47800  0.24200  1.0000
  O   O5        1.0  0.07900  0.15800  0.29000  1.0000
  O   O6        1.0  0.86500  0.72900  0.38500  1.0000
  O   O7        1.0  0.70300  0.40700  0.42700  1.0000
  O   O8        1.0  0.29700  0.59300  0.57300  1.0000
  O   O9        1.0  0.13500  0.27100  0.61500  1.0000
  O   O10       1.0  0.92100  0.84200  0.71000  1.0000
  O   O11       1.0  0.76100  0.52200  0.75800  1.0000
  O   O12       1.0  0.35900  0.71700  0.88800  1.0000
  O   O13       1.0  0.16900  0.33800  0.91800  1.0000
  Rb  Rb1       1.0  0.45500  0.91100  0.25200  1.0000
  Rb  Rb2       1.0  0.54500  0.08950  0.74800  1.0000
  Ti  Ti1       1.0  0.11500  0.23100  0.09530  1.0000
  Ti  Ti2       1.0  0.76600  0.53200  0.22400  1.0000
  Ti  Ti3       1.0  0.17300  0.34700  0.43600  1.0000
  Ti  Ti4       1.0  0.82700  0.65300  0.56400  1.0000
  Ti  Ti5       1.0  0.23400  0.46800  0.77600  1.0000
  Ti  Ti6       1.0  0.88500  0.76900  0.90500  1.0000
