data_image0
_chemical_formula_structural       As7Ni12Pr2
_chemical_formula_sum              "As7 Ni12 Pr2"
_cell_length_a       9.39282
_cell_length_b       9.39189
_cell_length_c       3.89831
_cell_angle_alpha    90
_cell_angle_beta     90
_cell_angle_gamma    120

_space_group_name_H-M_alt    "P 1"
_space_group_IT_number       1

loop_
  _space_group_symop_operation_xyz
  'x, y, z'

loop_
  _atom_site_type_symbol
  _atom_site_label
  _atom_site_symmetry_multiplicity
  _atom_site_fract_x
  _atom_site_fract_y
  _atom_site_fract_z
  _atom_site_occupancy
  As  As1       1.0  0.99997  0.99999  0.00000  1.0000
  As  As2       1.0  0.71100  0.11000  0.00000  1.0000
  As  As3       1.0  0.39900  0.28900  0.00000  1.0000
  As  As4       1.0  0.89000  0.60100  0.00000  1.0000
  As  As5       1.0  0.10100  0.40000  0.50000  1.0000
  As  As6       1.0  0.60000  0.70000  0.50000  1.0000
  As  As7       1.0  0.30000  0.89900  0.50000  1.0000
  Ni  Ni1       1.0  0.43700  0.05740  0.00000  1.0000
  Ni  Ni2       1.0  0.14700  0.27800  0.00000  1.0000
  Ni  Ni3       1.0  0.94300  0.37900  0.00000  1.0000
  Ni  Ni4       1.0  0.62100  0.56300  0.00000  1.0000
  Ni  Ni5       1.0  0.13100  0.85300  0.00000  1.0000
  Ni  Ni6       1.0  0.72200  0.86900  0.00000  1.0000
  Ni  Ni7       1.0  0.20600  0.09680  0.50000  1.0000
  Ni  Ni8       1.0  0.90300  0.10900  0.50000  1.0000
  Ni  Ni9       1.0  0.37400  0.42300  0.50000  1.0000
  Ni  Ni10      1.0  0.04870  0.62600  0.50000  1.0000
  Ni  Ni11      1.0  0.89100  0.79400  0.50000  1.0000
  Ni  Ni12      1.0  0.57700  0.95100  0.50000  1.0000
  Pr  Pr1       1.0  0.33300  0.66700  0.00000  1.0000
  Pr  Pr2       1.0  0.66700  0.33300  0.50000  1.0000
