data_image0
_chemical_formula_structural       Ce10O3Si8
_chemical_formula_sum              "Ce10 O3 Si8"
_cell_length_a       10.8701
_cell_length_b       10.8701
_cell_length_c       4.68439
_cell_angle_alpha    90
_cell_angle_beta     90
_cell_angle_gamma    120.001

_space_group_name_H-M_alt    "P 1"
_space_group_IT_number       1

loop_
  _space_group_symop_operation_xyz
  'x, y, z'

loop_
  _atom_site_type_symbol
  _atom_site_label
  _atom_site_symmetry_multiplicity
  _atom_site_fract_x
  _atom_site_fract_y
  _atom_site_fract_z
  _atom_site_occupancy
  Ce  Ce1       1.0  0.00000  0.00000  0.00000  1.0000
  Ce  Ce2       1.0  0.79000  0.21000  0.00000  1.0000
  Ce  Ce3       1.0  0.42100  0.21000  0.00000  1.0000
  Ce  Ce4       1.0  0.21000  0.42100  0.00000  1.0000
  Ce  Ce5       1.0  0.79000  0.57900  0.00000  1.0000
  Ce  Ce6       1.0  0.21000  0.79000  0.00000  1.0000
  Ce  Ce7       1.0  0.57900  0.79000  0.00000  1.0000
  Ce  Ce8       1.0  0.50000  0.99999  0.50000  1.0000
  Ce  Ce9       1.0  0.99999  0.50000  0.50000  1.0000
  Ce  Ce10      1.0  0.50000  0.50000  0.50000  1.0000
  O   O1        1.0  0.50000  1.00000  0.00000  1.0000
  O   O2        1.0  1.00000  0.50000  0.00000  1.0000
  O   O3        1.0  0.50000  0.50000  0.00000  1.0000
  Si  Si1       1.0  0.21900  1.00000  0.50000  1.0000
  Si  Si2       1.0  0.78100  0.00000  0.50000  1.0000
  Si  Si3       1.0  1.00000  0.21900  0.50000  1.0000
  Si  Si4       1.0  0.21900  0.21900  0.50000  1.0000
  Si  Si5       1.0  0.66700  0.33300  0.50000  1.0000
  Si  Si6       1.0  0.33300  0.66700  0.50000  1.0000
  Si  Si7       1.0  0.00000  0.78100  0.50000  1.0000
  Si  Si8       1.0  0.78100  0.78100  0.50000  1.0000
