data_image0
_chemical_formula_structural       CaCl2H12O6
_chemical_formula_sum              "Ca1 Cl2 H12 O6"
_cell_length_a       7.75304
_cell_length_b       7.7531
_cell_length_c       3.77742
_cell_angle_alpha    90
_cell_angle_beta     89.9991
_cell_angle_gamma    120

_space_group_name_H-M_alt    "P 1"
_space_group_IT_number       1

loop_
  _space_group_symop_operation_xyz
  'x, y, z'

loop_
  _atom_site_type_symbol
  _atom_site_label
  _atom_site_symmetry_multiplicity
  _atom_site_fract_x
  _atom_site_fract_y
  _atom_site_fract_z
  _atom_site_occupancy
  Ca  Ca1       1.0  1.00000  0.00000  0.00000  1.0000
  Cl  Cl1       1.0  0.66700  0.33300  0.42100  1.0000
  Cl  Cl2       1.0  0.33300  0.66700  0.57900  1.0000
  H   H1        1.0  0.89600  0.33900  0.09920  1.0000
  H   H2        1.0  0.44300  0.10400  0.09920  1.0000
  H   H3        1.0  0.66100  0.55700  0.09920  1.0000
  H   H4        1.0  0.23500  0.35200  0.47900  1.0000
  H   H5        1.0  0.11700  0.76500  0.47900  1.0000
  H   H6        1.0  0.64800  0.88300  0.47900  1.0000
  H   H7        1.0  0.35200  0.23500  0.52100  1.0000
  H   H8        1.0  0.88300  0.64800  0.52100  1.0000
  H   H9        1.0  0.76500  0.11700  0.52100  1.0000
  H   H10       1.0  0.33900  0.89600  0.90100  1.0000
  H   H11       1.0  0.55700  0.66100  0.90100  1.0000
  H   H12       1.0  0.10400  0.44300  0.90100  1.0000
  O   O1        1.0  0.31500  0.99998  1.00000  1.0000
  O   O2        1.0  1.00000  0.31500  0.00000  1.0000
  O   O3        1.0  0.68500  0.68500  0.00000  1.0000
  O   O4        1.0  0.78400  0.99993  0.50000  1.0000
  O   O5        1.0  0.00000  0.78400  0.50000  1.0000
  O   O6        1.0  0.21600  0.21600  0.50000  1.0000
