data_image0
_chemical_formula_structural       F14Sr4Zn3
_chemical_formula_sum              "F14 Sr4 Zn3"
_cell_length_a       6.6652
_cell_length_b       6.66614
_cell_length_c       7.08001
_cell_angle_alpha    90.001
_cell_angle_beta     90.002
_cell_angle_gamma    60.0047

_space_group_name_H-M_alt    "P 1"
_space_group_IT_number       1

loop_
  _space_group_symop_operation_xyz
  'x, y, z'

loop_
  _atom_site_type_symbol
  _atom_site_label
  _atom_site_symmetry_multiplicity
  _atom_site_fract_x
  _atom_site_fract_y
  _atom_site_fract_z
  _atom_site_occupancy
  F   F1        1.0  0.38100  0.00000  0.00503  1.0000
  F   F2        1.0  0.99500  0.61400  0.00509  1.0000
  F   F3        1.0  0.60800  0.38600  0.00509  1.0000
  F   F4        1.0  0.26200  0.73300  0.23100  1.0000
  F   F5        1.0  0.99500  0.26700  0.23100  1.0000
  F   F6        1.0  0.72700  0.00000  0.23100  1.0000
  F   F7        1.0  0.60500  0.38900  0.45900  1.0000
  F   F8        1.0  0.99400  0.61100  0.45900  1.0000
  F   F9        1.0  0.38400  0.00000  0.45900  1.0000
  F   F10       1.0  0.75200  0.00000  0.73000  1.0000
  F   F11       1.0  0.99400  0.24200  0.73000  1.0000
  F   F12       1.0  0.23600  0.75800  0.73000  1.0000
  F   F13       1.0  0.66100  0.66700  0.73900  1.0000
  F   F14       1.0  0.32800  0.33300  0.73900  1.0000
  Sr  Sr1       1.0  0.32800  0.33300  0.23000  1.0000
  Sr  Sr2       1.0  0.66100  0.66700  0.23000  1.0000
  Sr  Sr3       1.0  0.99500  0.00000  0.46600  1.0000
  Sr  Sr4       1.0  0.99400  0.00000  0.99400  1.0000
  Zn  Zn1       1.0  0.55200  0.44200  0.73100  1.0000
  Zn  Zn2       1.0  0.99400  0.55800  0.73100  1.0000
  Zn  Zn3       1.0  0.43700  0.00000  0.73200  1.0000
