data_image0
_chemical_formula_structural       B6S12Sr3
_chemical_formula_sum              "B6 S12 Sr3"
_cell_length_a       8.69087
_cell_length_b       8.69087
_cell_length_c       8.87154
_cell_angle_alpha    60.6714
_cell_angle_beta     119.329
_cell_angle_gamma    120

_space_group_name_H-M_alt    "P 1"
_space_group_IT_number       1

loop_
  _space_group_symop_operation_xyz
  'x, y, z'

loop_
  _atom_site_type_symbol
  _atom_site_label
  _atom_site_symmetry_multiplicity
  _atom_site_fract_x
  _atom_site_fract_y
  _atom_site_fract_z
  _atom_site_occupancy
  B   B1        1.0  0.23400  0.61500  0.25300  1.0000
  B   B2        1.0  0.38500  0.36700  0.25300  1.0000
  B   B3        1.0  0.63300  0.76600  0.25300  1.0000
  B   B4        1.0  0.36700  0.23400  0.74700  1.0000
  B   B5        1.0  0.61500  0.63300  0.74700  1.0000
  B   B6        1.0  0.76600  0.38500  0.74700  1.0000
  S   S1        1.0  0.18300  0.39100  0.24000  1.0000
  S   S2        1.0  0.44700  0.81700  0.24000  1.0000
  S   S3        1.0  0.60900  0.55300  0.24000  1.0000
  S   S4        1.0  0.04820  0.62600  0.27800  1.0000
  S   S5        1.0  0.37400  0.14400  0.27800  1.0000
  S   S6        1.0  0.85600  0.95200  0.27800  1.0000
  S   S7        1.0  0.14400  0.04820  0.72200  1.0000
  S   S8        1.0  0.62600  0.85600  0.72200  1.0000
  S   S9        1.0  0.95200  0.37400  0.72200  1.0000
  S   S10       1.0  0.39100  0.44700  0.76000  1.0000
  S   S11       1.0  0.55300  0.18300  0.76000  1.0000
  S   S12       1.0  0.81700  0.60900  0.76000  1.0000
  Sr  Sr1       1.0  0.00000  0.00000  0.00000  1.0000
  Sr  Sr2       1.0  0.80700  0.19300  0.42000  1.0000
  Sr  Sr3       1.0  0.19300  0.80700  0.58000  1.0000
