data_image0
_chemical_formula_structural       Al4OSi6Sr10
_chemical_formula_sum              "Al4 O1 Si6 Sr10"
_cell_length_a       4.82772
_cell_length_b       11.6316
_cell_length_c       11.6316
_cell_angle_alpha    104.875
_cell_angle_beta     101.977
_cell_angle_gamma    101.977

_space_group_name_H-M_alt    "P 1"
_space_group_IT_number       1

loop_
  _space_group_symop_operation_xyz
  'x, y, z'

loop_
  _atom_site_type_symbol
  _atom_site_label
  _atom_site_symmetry_multiplicity
  _atom_site_fract_x
  _atom_site_fract_y
  _atom_site_fract_z
  _atom_site_occupancy
  Al  Al1       1.0  0.84300  0.41400  0.27200  1.0000
  Al  Al2       1.0  0.84300  0.27200  0.41400  1.0000
  Al  Al3       1.0  0.15700  0.72800  0.58600  1.0000
  Al  Al4       1.0  0.15700  0.58600  0.72800  1.0000
  O   O1        1.0  0.00000  0.00000  0.00000  1.0000
  Si  Si1       1.0  0.67800  0.31000  0.04630  1.0000
  Si  Si2       1.0  0.67800  0.04630  0.31000  1.0000
  Si  Si3       1.0  0.00000  0.64600  0.35400  1.0000
  Si  Si4       1.0  0.00000  0.35400  0.64600  1.0000
  Si  Si5       1.0  0.32200  0.95400  0.69000  1.0000
  Si  Si6       1.0  0.32200  0.69000  0.95400  1.0000
  Sr  Sr1       1.0  0.50000  0.00000  0.00000  1.0000
  Sr  Sr2       1.0  0.33800  0.53100  0.14400  1.0000
  Sr  Sr3       1.0  0.00000  0.84400  0.15600  1.0000
  Sr  Sr4       1.0  0.18700  0.18700  0.18700  1.0000
  Sr  Sr5       1.0  0.66200  0.85600  0.46900  1.0000
  Sr  Sr6       1.0  0.50000  0.50000  0.50000  1.0000
  Sr  Sr7       1.0  0.33800  0.14400  0.53100  1.0000
  Sr  Sr8       1.0  0.81300  0.81300  0.81300  1.0000
  Sr  Sr9       1.0  0.00000  0.15600  0.84400  1.0000
  Sr  Sr10      1.0  0.66200  0.46900  0.85600  1.0000
