data_image0
_chemical_formula_structural       Ce2Ni12P7
_chemical_formula_sum              "Ce2 Ni12 P7"
_cell_length_a       9.11054
_cell_length_b       9.11051
_cell_length_c       3.75967
_cell_angle_alpha    90
_cell_angle_beta     90
_cell_angle_gamma    119.999

_space_group_name_H-M_alt    "P 1"
_space_group_IT_number       1

loop_
  _space_group_symop_operation_xyz
  'x, y, z'

loop_
  _atom_site_type_symbol
  _atom_site_label
  _atom_site_symmetry_multiplicity
  _atom_site_fract_x
  _atom_site_fract_y
  _atom_site_fract_z
  _atom_site_occupancy
  Ce  Ce1       1.0  0.33300  0.66700  0.00000  1.0000
  Ce  Ce2       1.0  0.66700  0.33300  0.50000  1.0000
  Ni  Ni1       1.0  0.43200  0.05840  0.00000  1.0000
  Ni  Ni2       1.0  0.14700  0.27100  0.00000  1.0000
  Ni  Ni3       1.0  0.94200  0.37400  0.00000  1.0000
  Ni  Ni4       1.0  0.62600  0.56800  0.00000  1.0000
  Ni  Ni5       1.0  0.12400  0.85300  0.00000  1.0000
  Ni  Ni6       1.0  0.72900  0.87600  0.00000  1.0000
  Ni  Ni7       1.0  0.21100  0.09430  0.50000  1.0000
  Ni  Ni8       1.0  0.90600  0.11600  0.50000  1.0000
  Ni  Ni9       1.0  0.37800  0.42500  0.50000  1.0000
  Ni  Ni10      1.0  0.04760  0.62200  0.50000  1.0000
  Ni  Ni11      1.0  0.88400  0.78900  0.50000  1.0000
  Ni  Ni12      1.0  0.57500  0.95200  0.50000  1.0000
  P   P1        1.0  0.00001  1.00000  0.00000  1.0000
  P   P2        1.0  0.70500  0.10500  0.00000  1.0000
  P   P3        1.0  0.40000  0.29500  0.00000  1.0000
  P   P4        1.0  0.89500  0.60000  0.00000  1.0000
  P   P5        1.0  0.10000  0.39700  0.50000  1.0000
  P   P6        1.0  0.60300  0.70300  0.50000  1.0000
  P   P7        1.0  0.29700  0.90000  0.50000  1.0000
