data_image0
_chemical_formula_structural       Fe2O14P4Pb
_chemical_formula_sum              "Fe2 O14 P4 Pb1"
_cell_length_a       4.77341
_cell_length_b       7.09799
_cell_length_c       7.7968
_cell_angle_alpha    89.5452
_cell_angle_beta     87.9681
_cell_angle_gamma    73.2545

_space_group_name_H-M_alt    "P 1"
_space_group_IT_number       1

loop_
  _space_group_symop_operation_xyz
  'x, y, z'

loop_
  _atom_site_type_symbol
  _atom_site_label
  _atom_site_symmetry_multiplicity
  _atom_site_fract_x
  _atom_site_fract_y
  _atom_site_fract_z
  _atom_site_occupancy
  Fe  Fe1       1.0  0.50000  0.50000  0.00000  1.0000
  Fe  Fe2       1.0  0.00000  1.00000  0.50000  1.0000
  O   O1        1.0  0.89100  0.35500  0.08130  1.0000
  O   O2        1.0  0.51200  0.76000  0.11300  1.0000
  O   O3        1.0  0.31900  0.44100  0.21300  1.0000
  O   O4        1.0  0.81500  0.90600  0.29400  1.0000
  O   O5        1.0  0.10300  0.19300  0.35000  1.0000
  O   O6        1.0  0.81100  0.55300  0.35400  1.0000
  O   O7        1.0  0.37600  0.81500  0.43600  1.0000
  O   O8        1.0  0.62400  0.18500  0.56400  1.0000
  O   O9        1.0  0.18900  0.44700  0.64600  1.0000
  O   O10       1.0  0.89700  0.80700  0.65000  1.0000
  O   O11       1.0  0.18500  0.09410  0.70600  1.0000
  O   O12       1.0  0.68100  0.55900  0.78700  1.0000
  O   O13       1.0  0.48800  0.24000  0.88700  1.0000
  O   O14       1.0  0.10900  0.64500  0.91900  1.0000
  P   P1        1.0  0.04200  0.38200  0.24900  1.0000
  P   P2        1.0  0.61500  0.77000  0.29900  1.0000
  P   P3        1.0  0.38500  0.23000  0.70100  1.0000
  P   P4        1.0  0.95800  0.61800  0.75100  1.0000
  Pb  Pb1       1.0  0.00000  0.00000  0.00000  1.0000
