data_image0
_chemical_formula_structural       As7Nd2Ni12
_chemical_formula_sum              "As7 Nd2 Ni12"
_cell_length_a       9.39963
_cell_length_b       9.39965
_cell_length_c       3.88953
_cell_angle_alpha    90
_cell_angle_beta     90
_cell_angle_gamma    120

_space_group_name_H-M_alt    "P 1"
_space_group_IT_number       1

loop_
  _space_group_symop_operation_xyz
  'x, y, z'

loop_
  _atom_site_type_symbol
  _atom_site_label
  _atom_site_symmetry_multiplicity
  _atom_site_fract_x
  _atom_site_fract_y
  _atom_site_fract_z
  _atom_site_occupancy
  As  As1       1.0  0.99999  0.99999  0.00000  1.0000
  As  As2       1.0  0.71200  0.11300  0.00000  1.0000
  As  As3       1.0  0.40100  0.28800  0.00000  1.0000
  As  As4       1.0  0.88700  0.59900  0.00000  1.0000
  As  As5       1.0  0.10400  0.40100  0.50000  1.0000
  As  As6       1.0  0.59900  0.70300  0.50000  1.0000
  As  As7       1.0  0.29700  0.89600  0.50000  1.0000
  Nd  Nd1       1.0  0.33300  0.66700  0.00000  1.0000
  Nd  Nd2       1.0  0.66700  0.33300  0.50000  1.0000
  Ni  Ni1       1.0  0.43600  0.05570  0.00000  1.0000
  Ni  Ni2       1.0  0.14900  0.27800  0.00000  1.0000
  Ni  Ni3       1.0  0.94400  0.38100  0.00000  1.0000
  Ni  Ni4       1.0  0.61900  0.56400  0.00000  1.0000
  Ni  Ni5       1.0  0.12900  0.85100  0.00000  1.0000
  Ni  Ni6       1.0  0.72200  0.87100  0.00000  1.0000
  Ni  Ni7       1.0  0.20900  0.09660  0.50000  1.0000
  Ni  Ni8       1.0  0.90300  0.11200  0.50000  1.0000
  Ni  Ni9       1.0  0.37700  0.42400  0.50000  1.0000
  Ni  Ni10      1.0  0.04700  0.62300  0.50000  1.0000
  Ni  Ni11      1.0  0.88800  0.79100  0.50000  1.0000
  Ni  Ni12      1.0  0.57600  0.95300  0.50000  1.0000
