data_image0
_chemical_formula_structural       F15Nb6
_chemical_formula_sum              "F15 Nb6"
_cell_length_a       7.01154
_cell_length_b       7.01154
_cell_length_c       7.01154
_cell_angle_alpha    109.471
_cell_angle_beta     109.471
_cell_angle_gamma    109.471

_space_group_name_H-M_alt    "P 1"
_space_group_IT_number       1

loop_
  _space_group_symop_operation_xyz
  'x, y, z'

loop_
  _atom_site_type_symbol
  _atom_site_label
  _atom_site_symmetry_multiplicity
  _atom_site_fract_x
  _atom_site_fract_y
  _atom_site_fract_z
  _atom_site_occupancy
  F   F1        1.0  0.74300  0.25700  0.00000  1.0000
  F   F2        1.0  0.50000  0.50000  0.00000  1.0000
  F   F3        1.0  0.25700  0.74300  0.00000  1.0000
  F   F4        1.0  0.74300  0.00000  0.25700  1.0000
  F   F5        1.0  0.51400  0.25700  0.25700  1.0000
  F   F6        1.0  0.25700  0.51400  0.25700  1.0000
  F   F7        1.0  0.00000  0.74300  0.25700  1.0000
  F   F8        1.0  0.74300  0.74300  0.48600  1.0000
  F   F9        1.0  0.50000  0.00000  0.50000  1.0000
  F   F10       1.0  0.00000  0.50000  0.50000  1.0000
  F   F11       1.0  0.25700  0.25700  0.51400  1.0000
  F   F12       1.0  0.25700  0.00000  0.74300  1.0000
  F   F13       1.0  0.00000  0.25700  0.74300  1.0000
  F   F14       1.0  0.74300  0.48600  0.74300  1.0000
  F   F15       1.0  0.48600  0.74300  0.74300  1.0000
  Nb  Nb1       1.0  0.24300  0.24300  0.00000  1.0000
  Nb  Nb2       1.0  0.75700  0.75700  0.00000  1.0000
  Nb  Nb3       1.0  0.24300  0.00000  0.24300  1.0000
  Nb  Nb4       1.0  0.00000  0.24300  0.24300  1.0000
  Nb  Nb5       1.0  0.75700  0.00000  0.75700  1.0000
  Nb  Nb6       1.0  0.00000  0.75700  0.75700  1.0000
