data_image0
_chemical_formula_structural       La10O3Si8
_chemical_formula_sum              "La10 O3 Si8"
_cell_length_a       10.9395
_cell_length_b       10.9395
_cell_length_c       4.66871
_cell_angle_alpha    90
_cell_angle_beta     90
_cell_angle_gamma    120.001

_space_group_name_H-M_alt    "P 1"
_space_group_IT_number       1

loop_
  _space_group_symop_operation_xyz
  'x, y, z'

loop_
  _atom_site_type_symbol
  _atom_site_label
  _atom_site_symmetry_multiplicity
  _atom_site_fract_x
  _atom_site_fract_y
  _atom_site_fract_z
  _atom_site_occupancy
  La  La1       1.0  1.00000  1.00000  0.00000  1.0000
  La  La2       1.0  0.79000  0.21000  0.00000  1.0000
  La  La3       1.0  0.42000  0.21000  0.00000  1.0000
  La  La4       1.0  0.21000  0.42000  0.00000  1.0000
  La  La5       1.0  0.79000  0.58000  0.00000  1.0000
  La  La6       1.0  0.58000  0.79000  0.00000  1.0000
  La  La7       1.0  0.21000  0.79000  0.00000  1.0000
  La  La8       1.0  0.50000  0.99999  0.50000  1.0000
  La  La9       1.0  0.99999  0.50000  0.50000  1.0000
  La  La10      1.0  0.50000  0.50000  0.50000  1.0000
  O   O1        1.0  0.50000  0.99999  0.00000  1.0000
  O   O2        1.0  0.99999  0.50000  0.00000  1.0000
  O   O3        1.0  0.50000  0.50000  0.00000  1.0000
  Si  Si1       1.0  0.21800  1.00000  0.50000  1.0000
  Si  Si2       1.0  0.78200  0.00000  0.50000  1.0000
  Si  Si3       1.0  0.21800  0.21800  0.50000  1.0000
  Si  Si4       1.0  1.00000  0.21800  0.50000  1.0000
  Si  Si5       1.0  0.66700  0.33300  0.50000  1.0000
  Si  Si6       1.0  0.33300  0.66700  0.50000  1.0000
  Si  Si7       1.0  1.00000  0.78200  0.50000  1.0000
  Si  Si8       1.0  0.78200  0.78200  0.50000  1.0000
