data_image0
_chemical_formula_structural       Ce2Cr4O8
_chemical_formula_sum              "Ce2 Cr4 O8"
_cell_length_a       6.46919
_cell_length_b       6.46919
_cell_length_c       6.46919
_cell_angle_alpha    121.114
_cell_angle_beta     88.0817
_cell_angle_gamma    121.114

_space_group_name_H-M_alt    "P 1"
_space_group_IT_number       1

loop_
  _space_group_symop_operation_xyz
  'x, y, z'

loop_
  _atom_site_type_symbol
  _atom_site_label
  _atom_site_symmetry_multiplicity
  _atom_site_fract_x
  _atom_site_fract_y
  _atom_site_fract_z
  _atom_site_occupancy
  Ce  Ce1       1.0  0.00000  0.00000  0.00000  1.0000
  Ce  Ce2       1.0  0.75000  0.50000  0.25000  1.0000
  Cr  Cr1       1.0  0.37500  0.75000  0.12500  1.0000
  Cr  Cr2       1.0  0.37500  0.75000  0.62500  1.0000
  Cr  Cr3       1.0  0.87500  0.25000  0.62500  1.0000
  Cr  Cr4       1.0  0.37500  0.25000  0.62500  1.0000
  O   O1        1.0  0.18100  0.78900  0.39200  1.0000
  O   O2        1.0  0.60300  0.21100  0.39200  1.0000
  O   O3        1.0  0.60800  0.78900  0.39700  1.0000
  O   O4        1.0  0.14200  0.28900  0.43100  1.0000
  O   O5        1.0  0.60800  0.21100  0.81900  1.0000
  O   O6        1.0  0.14200  0.71100  0.85300  1.0000
  O   O7        1.0  0.14700  0.28900  0.85800  1.0000
  O   O8        1.0  0.56900  0.71100  0.85800  1.0000
