data_image0
_chemical_formula_structural       Fe12Ho2P7
_chemical_formula_sum              "Fe12 Ho2 P7"
_cell_length_a       8.94436
_cell_length_b       8.94466
_cell_length_c       3.62264
_cell_angle_alpha    90
_cell_angle_beta     90
_cell_angle_gamma    120.003

_space_group_name_H-M_alt    "P 1"
_space_group_IT_number       1

loop_
  _space_group_symop_operation_xyz
  'x, y, z'

loop_
  _atom_site_type_symbol
  _atom_site_label
  _atom_site_symmetry_multiplicity
  _atom_site_fract_x
  _atom_site_fract_y
  _atom_site_fract_z
  _atom_site_occupancy
  Fe  Fe1       1.0  0.42800  0.05530  0.00000  1.0000
  Fe  Fe2       1.0  0.15600  0.27500  0.00000  1.0000
  Fe  Fe3       1.0  0.94500  0.37300  0.00000  1.0000
  Fe  Fe4       1.0  0.62700  0.57200  0.00000  1.0000
  Fe  Fe5       1.0  0.11900  0.84400  0.00000  1.0000
  Fe  Fe6       1.0  0.72500  0.88100  0.00000  1.0000
  Fe  Fe7       1.0  0.21600  0.09560  0.50000  1.0000
  Fe  Fe8       1.0  0.90400  0.12000  0.50000  1.0000
  Fe  Fe9       1.0  0.38400  0.43200  0.50000  1.0000
  Fe  Fe10      1.0  0.04830  0.61600  0.50000  1.0000
  Fe  Fe11      1.0  0.88000  0.78400  0.50000  1.0000
  Fe  Fe12      1.0  0.56800  0.95200  0.50000  1.0000
  Ho  Ho1       1.0  0.33300  0.66700  0.00000  1.0000
  Ho  Ho2       1.0  0.66700  0.33300  0.50000  1.0000
  P   P1        1.0  0.00000  0.99994  0.00000  1.0000
  P   P2        1.0  0.70500  0.11500  0.00000  1.0000
  P   P3        1.0  0.41000  0.29500  0.00000  1.0000
  P   P4        1.0  0.88500  0.59000  0.00000  1.0000
  P   P5        1.0  0.11200  0.40200  0.50000  1.0000
  P   P6        1.0  0.59800  0.71000  0.50000  1.0000
  P   P7        1.0  0.29000  0.88800  0.50000  1.0000
