data_image0
_chemical_formula_structural       Li2O13V6
_chemical_formula_sum              "Li2 O13 V6"
_cell_length_a       3.68771
_cell_length_b       6.25213
_cell_length_c       10.8208
_cell_angle_alpha    100.178
_cell_angle_beta     90
_cell_angle_gamma    107.153

_space_group_name_H-M_alt    "P 1"
_space_group_IT_number       1

loop_
  _space_group_symop_operation_xyz
  'x, y, z'

loop_
  _atom_site_type_symbol
  _atom_site_label
  _atom_site_symmetry_multiplicity
  _atom_site_fract_x
  _atom_site_fract_y
  _atom_site_fract_z
  _atom_site_occupancy
  Li  Li1       1.0  0.08610  0.17200  0.14100  1.0000
  Li  Li2       1.0  0.91400  0.82800  0.85900  1.0000
  O   O1        1.0  0.50000  0.00000  0.00000  1.0000
  O   O2        1.0  0.18100  0.36200  0.00846  1.0000
  O   O3        1.0  0.39000  0.78100  0.20200  1.0000
  O   O4        1.0  0.65500  0.31000  0.20600  1.0000
  O   O5        1.0  0.87800  0.75600  0.37700  1.0000
  O   O6        1.0  0.24100  0.48100  0.40600  1.0000
  O   O7        1.0  0.56700  0.13500  0.42500  1.0000
  O   O8        1.0  0.43300  0.86500  0.57500  1.0000
  O   O9        1.0  0.75900  0.51900  0.59400  1.0000
  O   O10       1.0  0.12200  0.24400  0.62300  1.0000
  O   O11       1.0  0.34500  0.69000  0.79400  1.0000
  O   O12       1.0  0.61000  0.21900  0.79800  1.0000
  O   O13       1.0  0.81900  0.63800  0.99200  1.0000
  V   V1        1.0  0.35400  0.70700  0.04460  1.0000
  V   V2        1.0  0.70700  0.41300  0.36200  1.0000
  V   V3        1.0  0.40700  0.81500  0.39200  1.0000
  V   V4        1.0  0.59300  0.18500  0.60800  1.0000
  V   V5        1.0  0.29300  0.58700  0.63800  1.0000
  V   V6        1.0  0.64600  0.29300  0.95500  1.0000
