data_image0
_chemical_formula_structural       Ni12P7Sm2
_chemical_formula_sum              "Ni12 P7 Sm2"
_cell_length_a       9.0745
_cell_length_b       9.07424
_cell_length_c       3.7171
_cell_angle_alpha    90
_cell_angle_beta     90
_cell_angle_gamma    119.998

_space_group_name_H-M_alt    "P 1"
_space_group_IT_number       1

loop_
  _space_group_symop_operation_xyz
  'x, y, z'

loop_
  _atom_site_type_symbol
  _atom_site_label
  _atom_site_symmetry_multiplicity
  _atom_site_fract_x
  _atom_site_fract_y
  _atom_site_fract_z
  _atom_site_occupancy
  Ni  Ni1       1.0  0.43300  0.05880  0.00000  1.0000
  Ni  Ni2       1.0  0.15100  0.27300  0.00000  1.0000
  Ni  Ni3       1.0  0.94100  0.37400  0.00000  1.0000
  Ni  Ni4       1.0  0.62600  0.56700  0.00000  1.0000
  Ni  Ni5       1.0  0.12200  0.84900  0.00000  1.0000
  Ni  Ni6       1.0  0.72700  0.87800  0.00000  1.0000
  Ni  Ni7       1.0  0.21600  0.09490  0.50000  1.0000
  Ni  Ni8       1.0  0.90500  0.12100  0.50000  1.0000
  Ni  Ni9       1.0  0.38100  0.42900  0.50000  1.0000
  Ni  Ni10      1.0  0.04780  0.61900  0.50000  1.0000
  Ni  Ni11      1.0  0.87900  0.78400  0.50000  1.0000
  Ni  Ni12      1.0  0.57100  0.95200  0.50000  1.0000
  P   P1        1.0  0.00000  0.00001  0.00000  1.0000
  P   P2        1.0  0.70600  0.11100  0.00000  1.0000
  P   P3        1.0  0.40500  0.29400  0.00000  1.0000
  P   P4        1.0  0.88900  0.59500  0.00000  1.0000
  P   P5        1.0  0.10800  0.40200  0.50000  1.0000
  P   P6        1.0  0.59800  0.70500  0.50000  1.0000
  P   P7        1.0  0.29500  0.89200  0.50000  1.0000
  Sm  Sm1       1.0  0.33300  0.66700  0.00000  1.0000
  Sm  Sm2       1.0  0.66700  0.33300  0.50000  1.0000
