data_image0
_chemical_formula_structural       Fe2K2Nb4O13
_chemical_formula_sum              "Fe2 K2 Nb4 O13"
_cell_length_a       3.92509
_cell_length_b       8.22435
_cell_length_c       9.50217
_cell_angle_alpha    99.5379
_cell_angle_beta     90
_cell_angle_gamma    103.805

_space_group_name_H-M_alt    "P 1"
_space_group_IT_number       1

loop_
  _space_group_symop_operation_xyz
  'x, y, z'

loop_
  _atom_site_type_symbol
  _atom_site_label
  _atom_site_symmetry_multiplicity
  _atom_site_fract_x
  _atom_site_fract_y
  _atom_site_fract_z
  _atom_site_occupancy
  Fe  Fe1       1.0  0.76400  0.52800  0.22800  1.0000
  Fe  Fe2       1.0  0.23600  0.47200  0.77200  1.0000
  K   K1        1.0  0.44900  0.89800  0.24700  1.0000
  K   K2        1.0  0.55100  0.10200  0.75300  1.0000
  Nb  Nb1       1.0  0.12000  0.24100  0.08580  1.0000
  Nb  Nb2       1.0  0.16200  0.32400  0.43600  1.0000
  Nb  Nb3       1.0  0.83800  0.67600  0.56400  1.0000
  Nb  Nb4       1.0  0.88000  0.75900  0.91400  1.0000
  O   O1        1.0  0.00000  0.00000  0.00000  1.0000
  O   O2        1.0  0.83600  0.67200  0.08040  1.0000
  O   O3        1.0  0.62500  0.24900  0.11600  1.0000
  O   O4        1.0  0.22600  0.45100  0.24600  1.0000
  O   O5        1.0  0.06500  0.13000  0.30100  1.0000
  O   O6        1.0  0.87300  0.74700  0.38900  1.0000
  O   O7        1.0  0.69900  0.39800  0.43800  1.0000
  O   O8        1.0  0.30100  0.60200  0.56200  1.0000
  O   O9        1.0  0.12700  0.25300  0.61100  1.0000
  O   O10       1.0  0.93500  0.87000  0.69900  1.0000
  O   O11       1.0  0.77400  0.54900  0.75400  1.0000
  O   O12       1.0  0.37500  0.75100  0.88400  1.0000
  O   O13       1.0  0.16400  0.32800  0.92000  1.0000
