data_image0
_chemical_formula_structural       Cr9Ga12
_chemical_formula_sum              "Cr9 Ga12"
_cell_length_a       6.35916
_cell_length_b       6.35916
_cell_length_c       7.88458
_cell_angle_alpha    101.708
_cell_angle_beta     78.2922
_cell_angle_gamma    104.472

_space_group_name_H-M_alt    "P 1"
_space_group_IT_number       1

loop_
  _space_group_symop_operation_xyz
  'x, y, z'

loop_
  _atom_site_type_symbol
  _atom_site_label
  _atom_site_symmetry_multiplicity
  _atom_site_fract_x
  _atom_site_fract_y
  _atom_site_fract_z
  _atom_site_occupancy
  Cr  Cr1       1.0  0.00000  0.00000  0.00000  1.0000
  Cr  Cr2       1.0  0.32800  0.04550  0.14900  1.0000
  Cr  Cr3       1.0  0.95400  0.67200  0.14900  1.0000
  Cr  Cr4       1.0  0.49600  0.50400  0.32900  1.0000
  Cr  Cr5       1.0  0.22700  0.77300  0.33600  1.0000
  Cr  Cr6       1.0  0.77300  0.22700  0.66400  1.0000
  Cr  Cr7       1.0  0.50400  0.49600  0.67100  1.0000
  Cr  Cr8       1.0  0.04550  0.32800  0.85100  1.0000
  Cr  Cr9       1.0  0.67200  0.95400  0.85100  1.0000
  Ga  Ga1       1.0  0.71700  0.28300  0.09280  1.0000
  Ga  Ga2       1.0  0.18700  0.39100  0.15200  1.0000
  Ga  Ga3       1.0  0.60900  0.81300  0.15200  1.0000
  Ga  Ga4       1.0  0.95000  0.05040  0.35300  1.0000
  Ga  Ga5       1.0  0.45900  0.15700  0.44400  1.0000
  Ga  Ga6       1.0  0.84300  0.54100  0.44400  1.0000
  Ga  Ga7       1.0  0.15700  0.45900  0.55600  1.0000
  Ga  Ga8       1.0  0.54100  0.84300  0.55600  1.0000
  Ga  Ga9       1.0  0.05040  0.95000  0.64700  1.0000
  Ga  Ga10      1.0  0.39100  0.18700  0.84800  1.0000
  Ga  Ga11      1.0  0.81300  0.60900  0.84800  1.0000
  Ga  Ga12      1.0  0.28300  0.71700  0.90700  1.0000
