data_image0
_chemical_formula_structural       Ce5Ge8Mg8
_chemical_formula_sum              "Ce5 Ge8 Mg8"
_cell_length_a       4.54347
_cell_length_b       8.65881
_cell_length_c       13.3485
_cell_angle_alpha    92.2197
_cell_angle_beta     90
_cell_angle_gamma    105.21

_space_group_name_H-M_alt    "P 1"
_space_group_IT_number       1

loop_
  _space_group_symop_operation_xyz
  'x, y, z'

loop_
  _atom_site_type_symbol
  _atom_site_label
  _atom_site_symmetry_multiplicity
  _atom_site_fract_x
  _atom_site_fract_y
  _atom_site_fract_z
  _atom_site_occupancy
  Ce  Ce1       1.0  0.50000  0.00000  0.00000  1.0000
  Ce  Ce2       1.0  0.89500  0.79100  0.25000  1.0000
  Ce  Ce3       1.0  0.09580  0.19200  0.43500  1.0000
  Ce  Ce4       1.0  0.90400  0.80800  0.56500  1.0000
  Ce  Ce5       1.0  0.10500  0.20900  0.75000  1.0000
  Ge  Ge1       1.0  0.33800  0.67600  0.10800  1.0000
  Ge  Ge2       1.0  0.06170  0.12300  0.15000  1.0000
  Ge  Ge3       1.0  0.72400  0.44800  0.36200  1.0000
  Ge  Ge4       1.0  0.46400  0.92800  0.41100  1.0000
  Ge  Ge5       1.0  0.53600  0.07220  0.58900  1.0000
  Ge  Ge6       1.0  0.27600  0.55200  0.63800  1.0000
  Ge  Ge7       1.0  0.93800  0.87700  0.85000  1.0000
  Ge  Ge8       1.0  0.66200  0.32400  0.89200  1.0000
  Mg  Mg1       1.0  0.18000  0.36000  0.00354  1.0000
  Mg  Mg2       1.0  0.21600  0.43100  0.22800  1.0000
  Mg  Mg3       1.0  0.57300  0.14600  0.25000  1.0000
  Mg  Mg4       1.0  0.30000  0.60100  0.43200  1.0000
  Mg  Mg5       1.0  0.70000  0.39900  0.56800  1.0000
  Mg  Mg6       1.0  0.42700  0.85400  0.75000  1.0000
  Mg  Mg7       1.0  0.78400  0.56900  0.77200  1.0000
  Mg  Mg8       1.0  0.82000  0.64000  0.99600  1.0000
