data_image0
_chemical_formula_structural       Na2O13Ti6
_chemical_formula_sum              "Na2 O13 Ti6"
_cell_length_a       3.74822
_cell_length_b       7.7166
_cell_length_c       9.19925
_cell_angle_alpha    98.4342
_cell_angle_beta     90
_cell_angle_gamma    104.056

_space_group_name_H-M_alt    "P 1"
_space_group_IT_number       1

loop_
  _space_group_symop_operation_xyz
  'x, y, z'

loop_
  _atom_site_type_symbol
  _atom_site_label
  _atom_site_symmetry_multiplicity
  _atom_site_fract_x
  _atom_site_fract_y
  _atom_site_fract_z
  _atom_site_occupancy
  Na  Na1       1.0  0.46000  0.92000  0.26100  1.0000
  Na  Na2       1.0  0.54000  0.08030  0.73900  1.0000
  O   O1        1.0  0.00000  0.00000  0.00000  1.0000
  O   O2        1.0  0.83700  0.67400  0.08460  1.0000
  O   O3        1.0  0.64400  0.28800  0.12200  1.0000
  O   O4        1.0  0.24100  0.48300  0.25000  1.0000
  O   O5        1.0  0.06590  0.13200  0.29300  1.0000
  O   O6        1.0  0.87800  0.75600  0.38400  1.0000
  O   O7        1.0  0.70200  0.40500  0.43000  1.0000
  O   O8        1.0  0.29800  0.59500  0.57000  1.0000
  O   O9        1.0  0.12200  0.24400  0.61600  1.0000
  O   O10       1.0  0.93400  0.86800  0.70700  1.0000
  O   O11       1.0  0.75900  0.51700  0.75000  1.0000
  O   O12       1.0  0.35600  0.71200  0.87800  1.0000
  O   O13       1.0  0.16300  0.32600  0.91500  1.0000
  Ti  Ti1       1.0  0.11600  0.23100  0.09990  1.0000
  Ti  Ti2       1.0  0.77300  0.54600  0.23300  1.0000
  Ti  Ti3       1.0  0.16400  0.32800  0.43700  1.0000
  Ti  Ti4       1.0  0.83600  0.67200  0.56300  1.0000
  Ti  Ti5       1.0  0.22700  0.45400  0.76700  1.0000
  Ti  Ti6       1.0  0.88400  0.76900  0.90000  1.0000
