data_image0
_chemical_formula_structural       Cs2O14Te2U3
_chemical_formula_sum              "Cs2 O14 Te2 U3"
_cell_length_a       7.02215
_cell_length_b       7.35829
_cell_length_c       8.31371
_cell_angle_alpha    107.529
_cell_angle_beta     100.644
_cell_angle_gamma    99.533

_space_group_name_H-M_alt    "P 1"
_space_group_IT_number       1

loop_
  _space_group_symop_operation_xyz
  'x, y, z'

loop_
  _atom_site_type_symbol
  _atom_site_label
  _atom_site_symmetry_multiplicity
  _atom_site_fract_x
  _atom_site_fract_y
  _atom_site_fract_z
  _atom_site_occupancy
  Cs  Cs1       1.0  0.29300  0.62700  0.17800  1.0000
  Cs  Cs2       1.0  0.70700  0.37300  0.82200  1.0000
  O   O1        1.0  0.31900  0.98400  0.03010  1.0000
  O   O2        1.0  0.95300  0.80100  0.08730  1.0000
  O   O3        1.0  0.59300  0.38600  0.16000  1.0000
  O   O4        1.0  0.96700  0.22700  0.25500  1.0000
  O   O5        1.0  0.63200  0.98100  0.32100  1.0000
  O   O6        1.0  0.35800  0.24900  0.38100  1.0000
  O   O7        1.0  0.19800  0.58400  0.49700  1.0000
  O   O8        1.0  0.80200  0.41600  0.50300  1.0000
  O   O9        1.0  0.64200  0.75100  0.61900  1.0000
  O   O10       1.0  0.36800  0.01930  0.67900  1.0000
  O   O11       1.0  0.03320  0.77300  0.74500  1.0000
  O   O12       1.0  0.40700  0.61400  0.84000  1.0000
  O   O13       1.0  0.04720  0.19900  0.91300  1.0000
  O   O14       1.0  0.68100  0.01630  0.97000  1.0000
  Te  Te1       1.0  0.14900  0.31600  0.47900  1.0000
  Te  Te2       1.0  0.85100  0.68400  0.52100  1.0000
  U   U1        1.0  0.00000  0.00000  0.00000  1.0000
  U   U2        1.0  0.60500  0.17700  0.23400  1.0000
  U   U3        1.0  0.39500  0.82300  0.76600  1.0000
