data_image0
_chemical_formula_structural       Ce2Fe4O8
_chemical_formula_sum              "Ce2 Fe4 O8"
_cell_length_a       6.43321
_cell_length_b       6.43321
_cell_length_c       6.43321
_cell_angle_alpha    120.653
_cell_angle_beta     88.8722
_cell_angle_gamma    120.653

_space_group_name_H-M_alt    "P 1"
_space_group_IT_number       1

loop_
  _space_group_symop_operation_xyz
  'x, y, z'

loop_
  _atom_site_type_symbol
  _atom_site_label
  _atom_site_symmetry_multiplicity
  _atom_site_fract_x
  _atom_site_fract_y
  _atom_site_fract_z
  _atom_site_occupancy
  Ce  Ce1       1.0  0.00000  0.00000  0.00000  1.0000
  Ce  Ce2       1.0  0.75000  0.50000  0.25000  1.0000
  Fe  Fe1       1.0  0.37500  0.75000  0.12500  1.0000
  Fe  Fe2       1.0  0.37500  0.25000  0.62500  1.0000
  Fe  Fe3       1.0  0.37500  0.75000  0.62500  1.0000
  Fe  Fe4       1.0  0.87500  0.25000  0.62500  1.0000
  O   O1        1.0  0.60200  0.78100  0.38300  1.0000
  O   O2        1.0  0.61700  0.21900  0.39800  1.0000
  O   O3        1.0  0.18000  0.78100  0.39800  1.0000
  O   O4        1.0  0.14800  0.28100  0.43000  1.0000
  O   O5        1.0  0.60200  0.21900  0.82000  1.0000
  O   O6        1.0  0.13300  0.28100  0.85200  1.0000
  O   O7        1.0  0.57000  0.71900  0.85200  1.0000
  O   O8        1.0  0.14800  0.71900  0.86700  1.0000
