data_image0
_chemical_formula_structural       Ni12P7Pr2
_chemical_formula_sum              "Ni12 P7 Pr2"
_cell_length_a       9.10219
_cell_length_b       9.10212
_cell_length_c       3.75188
_cell_angle_alpha    90
_cell_angle_beta     90
_cell_angle_gamma    119.994

_space_group_name_H-M_alt    "P 1"
_space_group_IT_number       1

loop_
  _space_group_symop_operation_xyz
  'x, y, z'

loop_
  _atom_site_type_symbol
  _atom_site_label
  _atom_site_symmetry_multiplicity
  _atom_site_fract_x
  _atom_site_fract_y
  _atom_site_fract_z
  _atom_site_occupancy
  Ni  Ni1       1.0  0.43200  0.05950  0.00000  1.0000
  Ni  Ni2       1.0  0.14800  0.27200  0.00000  1.0000
  Ni  Ni3       1.0  0.94000  0.37200  0.00000  1.0000
  Ni  Ni4       1.0  0.62800  0.56900  0.00000  1.0000
  Ni  Ni5       1.0  0.12400  0.85200  0.00000  1.0000
  Ni  Ni6       1.0  0.72800  0.87600  0.00000  1.0000
  Ni  Ni7       1.0  0.21000  0.09350  0.50000  1.0000
  Ni  Ni8       1.0  0.90700  0.11700  0.50000  1.0000
  Ni  Ni9       1.0  0.37900  0.42600  0.50000  1.0000
  Ni  Ni10      1.0  0.04790  0.62100  0.50000  1.0000
  Ni  Ni11      1.0  0.88400  0.79000  0.50000  1.0000
  Ni  Ni12      1.0  0.57400  0.95200  0.50000  1.0000
  P   P1        1.0  0.99999  0.00003  0.00000  1.0000
  P   P2        1.0  0.70400  0.10600  0.00000  1.0000
  P   P3        1.0  0.40200  0.29600  0.00000  1.0000
  P   P4        1.0  0.89400  0.59800  0.00000  1.0000
  P   P5        1.0  0.10200  0.39800  0.50000  1.0000
  P   P6        1.0  0.60200  0.70300  0.50000  1.0000
  P   P7        1.0  0.29700  0.89800  0.50000  1.0000
  Pr  Pr1       1.0  0.33300  0.66700  0.00000  1.0000
  Pr  Pr2       1.0  0.66700  0.33300  0.50000  1.0000
