data_image0
_chemical_formula_structural       Ba6Cl2EuF12
_chemical_formula_sum              "Ba6 Cl2 Eu1 F12"
_cell_length_a       10.3845
_cell_length_b       10.3845
_cell_length_c       4.06831
_cell_angle_alpha    90
_cell_angle_beta     90
_cell_angle_gamma    120

_space_group_name_H-M_alt    "P 1"
_space_group_IT_number       1

loop_
  _space_group_symop_operation_xyz
  'x, y, z'

loop_
  _atom_site_type_symbol
  _atom_site_label
  _atom_site_symmetry_multiplicity
  _atom_site_fract_x
  _atom_site_fract_y
  _atom_site_fract_z
  _atom_site_occupancy
  Ba  Ba1       1.0  0.11100  0.40400  0.00000  1.0000
  Ba  Ba2       1.0  0.59600  0.70700  0.00000  1.0000
  Ba  Ba3       1.0  0.29300  0.88900  0.00000  1.0000
  Ba  Ba4       1.0  0.71700  0.11200  0.50000  1.0000
  Ba  Ba5       1.0  0.39500  0.28300  0.50000  1.0000
  Ba  Ba6       1.0  0.88800  0.60500  0.50000  1.0000
  Cl  Cl1       1.0  0.66700  0.33300  0.00000  1.0000
  Cl  Cl2       1.0  0.33300  0.66700  0.50000  1.0000
  Eu  Eu1       1.0  1.00000  1.00000  0.00000  1.0000
  F   F1        1.0  0.25400  0.11500  0.00000  1.0000
  F   F2        1.0  0.88500  0.13900  0.00000  1.0000
  F   F3        1.0  0.37200  0.43200  0.00000  1.0000
  F   F4        1.0  0.06000  0.62800  0.00000  1.0000
  F   F5        1.0  0.86100  0.74600  0.00000  1.0000
  F   F6        1.0  0.56800  0.94000  0.00000  1.0000
  F   F7        1.0  0.43800  0.05260  0.50000  1.0000
  F   F8        1.0  0.10600  0.20000  0.50000  1.0000
  F   F9        1.0  0.94700  0.38500  0.50000  1.0000
  F   F10       1.0  0.61500  0.56200  0.50000  1.0000
  F   F11       1.0  0.09480  0.89400  0.50000  1.0000
  F   F12       1.0  0.80000  0.90500  0.50000  1.0000
