data_image0
_chemical_formula_structural       Cr2Nb4O8
_chemical_formula_sum              "Cr2 Nb4 O8"
_cell_length_a       6.23322
_cell_length_b       6.23322
_cell_length_c       6.23322
_cell_angle_alpha    119.983
_cell_angle_beta     90.0299
_cell_angle_gamma    119.983

_space_group_name_H-M_alt    "P 1"
_space_group_IT_number       1

loop_
  _space_group_symop_operation_xyz
  'x, y, z'

loop_
  _atom_site_type_symbol
  _atom_site_label
  _atom_site_symmetry_multiplicity
  _atom_site_fract_x
  _atom_site_fract_y
  _atom_site_fract_z
  _atom_site_occupancy
  Cr  Cr1       1.0  0.00000  0.00000  0.00000  1.0000
  Cr  Cr2       1.0  0.75000  0.50000  0.25000  1.0000
  Nb  Nb1       1.0  0.37500  0.75000  0.12500  1.0000
  Nb  Nb2       1.0  0.87500  0.25000  0.62500  1.0000
  Nb  Nb3       1.0  0.37500  0.75000  0.62500  1.0000
  Nb  Nb4       1.0  0.37500  0.25000  0.62500  1.0000
  O   O1        1.0  0.14500  0.76300  0.38100  1.0000
  O   O2        1.0  0.61800  0.23700  0.38100  1.0000
  O   O3        1.0  0.61900  0.76300  0.38200  1.0000
  O   O4        1.0  0.13100  0.26300  0.39500  1.0000
  O   O5        1.0  0.61900  0.23700  0.85500  1.0000
  O   O6        1.0  0.13100  0.73700  0.86800  1.0000
  O   O7        1.0  0.13200  0.26300  0.86900  1.0000
  O   O8        1.0  0.60500  0.73700  0.86900  1.0000
