data_image0
_chemical_formula_structural       Br8S9Ta4
_chemical_formula_sum              "Br8 S9 Ta4"
_cell_length_a       7.24057
_cell_length_b       9.96278
_cell_length_c       9.96278
_cell_angle_alpha    97.5878
_cell_angle_beta     111.308
_cell_angle_gamma    68.692

_space_group_name_H-M_alt    "P 1"
_space_group_IT_number       1

loop_
  _space_group_symop_operation_xyz
  'x, y, z'

loop_
  _atom_site_type_symbol
  _atom_site_label
  _atom_site_symmetry_multiplicity
  _atom_site_fract_x
  _atom_site_fract_y
  _atom_site_fract_z
  _atom_site_occupancy
  Br  Br1       1.0  0.60000  0.23000  0.23000  1.0000
  Br  Br2       1.0  0.83000  0.77000  0.23000  1.0000
  Br  Br3       1.0  0.07200  0.35400  0.35400  1.0000
  Br  Br4       1.0  0.42600  0.64600  0.35400  1.0000
  Br  Br5       1.0  0.07200  0.64600  0.64600  1.0000
  Br  Br6       1.0  0.71800  0.35400  0.64600  1.0000
  Br  Br7       1.0  0.37000  0.23000  0.77000  1.0000
  Br  Br8       1.0  0.60000  0.77000  0.77000  1.0000
  S   S1        1.0  0.82600  0.00000  0.00000  1.0000
  S   S2        1.0  0.03740  0.26600  0.00000  1.0000
  S   S3        1.0  0.73700  0.38600  0.00000  1.0000
  S   S4        1.0  0.12300  0.61400  0.00000  1.0000
  S   S5        1.0  0.30300  0.73400  0.00000  1.0000
  S   S6        1.0  0.30300  0.00000  0.26600  1.0000
  S   S7        1.0  0.12300  0.00000  0.38600  1.0000
  S   S8        1.0  0.73700  0.00000  0.61400  1.0000
  S   S9        1.0  0.03740  0.00000  0.73400  1.0000
  Ta  Ta1       1.0  0.11300  0.82100  0.17900  1.0000
  Ta  Ta2       1.0  0.93400  0.17900  0.17900  1.0000
  Ta  Ta3       1.0  0.75400  0.17900  0.82100  1.0000
  Ta  Ta4       1.0  0.93400  0.82100  0.82100  1.0000
