data_image0
_chemical_formula_structural       Cr2O8Os4
_chemical_formula_sum              "Cr2 O8 Os4"
_cell_length_a       5.80527
_cell_length_b       5.80527
_cell_length_c       5.80527
_cell_angle_alpha    112.48
_cell_angle_beta     103.607
_cell_angle_gamma    112.48

_space_group_name_H-M_alt    "P 1"
_space_group_IT_number       1

loop_
  _space_group_symop_operation_xyz
  'x, y, z'

loop_
  _atom_site_type_symbol
  _atom_site_label
  _atom_site_symmetry_multiplicity
  _atom_site_fract_x
  _atom_site_fract_y
  _atom_site_fract_z
  _atom_site_occupancy
  Cr  Cr1       1.0  0.00000  0.00000  0.00000  1.0000
  Cr  Cr2       1.0  0.75000  0.50000  0.25000  1.0000
  O   O1        1.0  0.53100  0.19800  0.33300  1.0000
  O   O2        1.0  0.13500  0.80200  0.33300  1.0000
  O   O3        1.0  0.08320  0.30200  0.38500  1.0000
  O   O4        1.0  0.66700  0.80200  0.46900  1.0000
  O   O5        1.0  0.08320  0.69800  0.78100  1.0000
  O   O6        1.0  0.66700  0.19800  0.86500  1.0000
  O   O7        1.0  0.21900  0.30200  0.91700  1.0000
  O   O8        1.0  0.61500  0.69800  0.91700  1.0000
  Os  Os1       1.0  0.37500  0.75000  0.12500  1.0000
  Os  Os2       1.0  0.37500  0.75000  0.62500  1.0000
  Os  Os3       1.0  0.37500  0.25000  0.62500  1.0000
  Os  Os4       1.0  0.87500  0.25000  0.62500  1.0000
