data_image0
_chemical_formula_structural       Cr2O8Ru4
_chemical_formula_sum              "Cr2 O8 Ru4"
_cell_length_a       6.17002
_cell_length_b       6.17002
_cell_length_c       6.17002
_cell_angle_alpha    124.158
_cell_angle_beta     82.937
_cell_angle_gamma    124.158

_space_group_name_H-M_alt    "P 1"
_space_group_IT_number       1

loop_
  _space_group_symop_operation_xyz
  'x, y, z'

loop_
  _atom_site_type_symbol
  _atom_site_label
  _atom_site_symmetry_multiplicity
  _atom_site_fract_x
  _atom_site_fract_y
  _atom_site_fract_z
  _atom_site_occupancy
  Cr  Cr1       1.0  0.00000  0.00000  0.00000  1.0000
  Cr  Cr2       1.0  0.75000  0.50000  0.25000  1.0000
  O   O1        1.0  0.59800  0.74500  0.34300  1.0000
  O   O2        1.0  0.15200  0.24500  0.39700  1.0000
  O   O3        1.0  0.14700  0.74500  0.40200  1.0000
  O   O4        1.0  0.65700  0.25500  0.40200  1.0000
  O   O5        1.0  0.09310  0.24500  0.84800  1.0000
  O   O6        1.0  0.60300  0.75500  0.84800  1.0000
  O   O7        1.0  0.59800  0.25500  0.85300  1.0000
  O   O8        1.0  0.15200  0.75500  0.90700  1.0000
  Ru  Ru1       1.0  0.37500  0.75000  0.12500  1.0000
  Ru  Ru2       1.0  0.37500  0.25000  0.62500  1.0000
  Ru  Ru3       1.0  0.37500  0.75000  0.62500  1.0000
  Ru  Ru4       1.0  0.87500  0.25000  0.62500  1.0000
