data_image0
_chemical_formula_structural       Lu2Mn12P7
_chemical_formula_sum              "Lu2 Mn12 P7"
_cell_length_a       9.23368
_cell_length_b       9.23352
_cell_length_c       3.55532
_cell_angle_alpha    90
_cell_angle_beta     90
_cell_angle_gamma    120.001

_space_group_name_H-M_alt    "P 1"
_space_group_IT_number       1

loop_
  _space_group_symop_operation_xyz
  'x, y, z'

loop_
  _atom_site_type_symbol
  _atom_site_label
  _atom_site_symmetry_multiplicity
  _atom_site_fract_x
  _atom_site_fract_y
  _atom_site_fract_z
  _atom_site_occupancy
  Lu  Lu1       1.0  0.33300  0.66700  0.00000  1.0000
  Lu  Lu2       1.0  0.66700  0.33300  0.50000  1.0000
  Mn  Mn1       1.0  0.42600  0.04920  0.00000  1.0000
  Mn  Mn2       1.0  0.15800  0.27700  0.00000  1.0000
  Mn  Mn3       1.0  0.95100  0.37700  0.00000  1.0000
  Mn  Mn4       1.0  0.62300  0.57400  0.00000  1.0000
  Mn  Mn5       1.0  0.11900  0.84200  0.00000  1.0000
  Mn  Mn6       1.0  0.72300  0.88100  0.00000  1.0000
  Mn  Mn7       1.0  0.23000  0.10300  0.50000  1.0000
  Mn  Mn8       1.0  0.89700  0.12600  0.50000  1.0000
  Mn  Mn9       1.0  0.39200  0.43700  0.50000  1.0000
  Mn  Mn10      1.0  0.04490  0.60800  0.50000  1.0000
  Mn  Mn11      1.0  0.87400  0.77000  0.50000  1.0000
  Mn  Mn12      1.0  0.56300  0.95500  0.50000  1.0000
  P   P1        1.0  0.99999  0.99998  0.00000  1.0000
  P   P2        1.0  0.71000  0.12300  0.00000  1.0000
  P   P3        1.0  0.41300  0.29000  0.00000  1.0000
  P   P4        1.0  0.87700  0.58700  0.00000  1.0000
  P   P5        1.0  0.12900  0.41100  0.50000  1.0000
  P   P6        1.0  0.58900  0.71900  0.50000  1.0000
  P   P7        1.0  0.28200  0.87100  0.50000  1.0000
