data_image0
_chemical_formula_structural       Mn12P7Tb2
_chemical_formula_sum              "Mn12 P7 Tb2"
_cell_length_a       9.27907
_cell_length_b       9.27943
_cell_length_c       3.59495
_cell_angle_alpha    90
_cell_angle_beta     90
_cell_angle_gamma    120.002

_space_group_name_H-M_alt    "P 1"
_space_group_IT_number       1

loop_
  _space_group_symop_operation_xyz
  'x, y, z'

loop_
  _atom_site_type_symbol
  _atom_site_label
  _atom_site_symmetry_multiplicity
  _atom_site_fract_x
  _atom_site_fract_y
  _atom_site_fract_z
  _atom_site_occupancy
  Mn  Mn1       1.0  0.42400  0.04840  0.00000  1.0000
  Mn  Mn2       1.0  0.15700  0.27500  0.00000  1.0000
  Mn  Mn3       1.0  0.95200  0.37500  0.00000  1.0000
  Mn  Mn4       1.0  0.62500  0.57600  0.00000  1.0000
  Mn  Mn5       1.0  0.11900  0.84300  0.00000  1.0000
  Mn  Mn6       1.0  0.72500  0.88100  0.00000  1.0000
  Mn  Mn7       1.0  0.22700  0.10400  0.50000  1.0000
  Mn  Mn8       1.0  0.89600  0.12400  0.50000  1.0000
  Mn  Mn9       1.0  0.39400  0.43800  0.50000  1.0000
  Mn  Mn10      1.0  0.04420  0.60600  0.50000  1.0000
  Mn  Mn11      1.0  0.87600  0.77300  0.50000  1.0000
  Mn  Mn12      1.0  0.56200  0.95600  0.50000  1.0000
  P   P1        1.0  0.00002  0.99999  0.00000  1.0000
  P   P2        1.0  0.70800  0.11900  0.00000  1.0000
  P   P3        1.0  0.41100  0.29200  0.00000  1.0000
  P   P4        1.0  0.88100  0.58900  0.00000  1.0000
  P   P5        1.0  0.12800  0.40700  0.50000  1.0000
  P   P6        1.0  0.59300  0.72100  0.50000  1.0000
  P   P7        1.0  0.27900  0.87200  0.50000  1.0000
  Tb  Tb1       1.0  0.33300  0.66700  0.00000  1.0000
  Tb  Tb2       1.0  0.66700  0.33300  0.50000  1.0000
