data_image0
_chemical_formula_structural       Cr2Ir4O8
_chemical_formula_sum              "Cr2 Ir4 O8"
_cell_length_a       6.04504
_cell_length_b       6.04504
_cell_length_c       6.04504
_cell_angle_alpha    116.469
_cell_angle_beta     96.2324
_cell_angle_gamma    116.469

_space_group_name_H-M_alt    "P 1"
_space_group_IT_number       1

loop_
  _space_group_symop_operation_xyz
  'x, y, z'

loop_
  _atom_site_type_symbol
  _atom_site_label
  _atom_site_symmetry_multiplicity
  _atom_site_fract_x
  _atom_site_fract_y
  _atom_site_fract_z
  _atom_site_occupancy
  Cr  Cr1       1.0  0.00000  0.00000  0.00000  1.0000
  Cr  Cr2       1.0  0.75000  0.50000  0.25000  1.0000
  Ir  Ir1       1.0  0.37500  0.75000  0.12500  1.0000
  Ir  Ir2       1.0  0.37500  0.25000  0.62500  1.0000
  Ir  Ir3       1.0  0.37500  0.75000  0.62500  1.0000
  Ir  Ir4       1.0  0.87500  0.25000  0.62500  1.0000
  O   O1        1.0  0.57600  0.20800  0.36800  1.0000
  O   O2        1.0  0.16000  0.79200  0.36800  1.0000
  O   O3        1.0  0.11800  0.29200  0.41000  1.0000
  O   O4        1.0  0.63200  0.79200  0.42400  1.0000
  O   O5        1.0  0.11800  0.70800  0.82600  1.0000
  O   O6        1.0  0.63200  0.20800  0.84000  1.0000
  O   O7        1.0  0.59000  0.70800  0.88200  1.0000
  O   O8        1.0  0.17400  0.29200  0.88200  1.0000
