data_image0
_chemical_formula_structural       O13Sr2Ti6
_chemical_formula_sum              "O13 Sr2 Ti6"
_cell_length_a       3.88202
_cell_length_b       7.58534
_cell_length_c       9.10682
_cell_angle_alpha    97.657
_cell_angle_beta     90
_cell_angle_gamma    104.826

_space_group_name_H-M_alt    "P 1"
_space_group_IT_number       1

loop_
  _space_group_symop_operation_xyz
  'x, y, z'

loop_
  _atom_site_type_symbol
  _atom_site_label
  _atom_site_symmetry_multiplicity
  _atom_site_fract_x
  _atom_site_fract_y
  _atom_site_fract_z
  _atom_site_occupancy
  O   O1        1.0  0.00000  0.00000  0.00000  1.0000
  O   O2        1.0  0.82900  0.65900  0.08080  1.0000
  O   O3        1.0  0.62300  0.24600  0.12000  1.0000
  O   O4        1.0  0.24300  0.48700  0.25200  1.0000
  O   O5        1.0  0.06300  0.12600  0.30300  1.0000
  O   O6        1.0  0.87600  0.75300  0.37400  1.0000
  O   O7        1.0  0.69800  0.39600  0.43300  1.0000
  O   O8        1.0  0.30200  0.60400  0.56700  1.0000
  O   O9        1.0  0.12400  0.24700  0.62600  1.0000
  O   O10       1.0  0.93700  0.87400  0.69700  1.0000
  O   O11       1.0  0.75700  0.51300  0.74800  1.0000
  O   O12       1.0  0.37700  0.75400  0.88000  1.0000
  O   O13       1.0  0.17100  0.34100  0.91900  1.0000
  Sr  Sr1       1.0  0.44900  0.89800  0.21400  1.0000
  Sr  Sr2       1.0  0.55100  0.10200  0.78600  1.0000
  Ti  Ti1       1.0  0.12200  0.24400  0.10300  1.0000
  Ti  Ti2       1.0  0.75400  0.50900  0.22800  1.0000
  Ti  Ti3       1.0  0.16400  0.32800  0.44500  1.0000
  Ti  Ti4       1.0  0.83600  0.67200  0.55500  1.0000
  Ti  Ti5       1.0  0.24600  0.49100  0.77200  1.0000
  Ti  Ti6       1.0  0.87800  0.75600  0.89700  1.0000
