data_image0
_chemical_formula_structural       F14K4Sb2Sn
_chemical_formula_sum              "F14 K4 Sb2 Sn1"
_cell_length_a       6.50663
_cell_length_b       7.21757
_cell_length_c       7.34812
_cell_angle_alpha    93.3653
_cell_angle_beta     91.4215
_cell_angle_gamma    115.66

_space_group_name_H-M_alt    "P 1"
_space_group_IT_number       1

loop_
  _space_group_symop_operation_xyz
  'x, y, z'

loop_
  _atom_site_type_symbol
  _atom_site_label
  _atom_site_symmetry_multiplicity
  _atom_site_fract_x
  _atom_site_fract_y
  _atom_site_fract_z
  _atom_site_occupancy
  F   F1        1.0  0.05780  0.76100  0.06190  1.0000
  F   F2        1.0  0.70600  0.87900  0.12500  1.0000
  F   F3        1.0  0.59200  0.42600  0.17600  1.0000
  F   F4        1.0  0.15700  0.14400  0.23800  1.0000
  F   F5        1.0  0.92100  0.37200  0.32600  1.0000
  F   F6        1.0  0.43300  0.65700  0.48100  1.0000
  F   F7        1.0  0.28000  0.94600  0.48800  1.0000
  F   F8        1.0  0.72000  0.05400  0.51200  1.0000
  F   F9        1.0  0.56700  0.34300  0.51900  1.0000
  F   F10       1.0  0.07930  0.62800  0.67400  1.0000
  F   F11       1.0  0.84300  0.85600  0.76200  1.0000
  F   F12       1.0  0.40800  0.57400  0.82400  1.0000
  F   F13       1.0  0.29400  0.12100  0.87500  1.0000
  F   F14       1.0  0.94200  0.23900  0.93800  1.0000
  K   K1        1.0  0.28200  0.55600  0.14800  1.0000
  K   K2        1.0  0.85500  0.72800  0.41100  1.0000
  K   K3        1.0  0.14500  0.27200  0.58900  1.0000
  K   K4        1.0  0.71800  0.44400  0.85200  1.0000
  Sb  Sb1       1.0  0.58800  0.17500  0.30500  1.0000
  Sb  Sb2       1.0  0.41200  0.82500  0.69500  1.0000
  Sn  Sn1       1.0  0.00000  0.00000  0.00000  1.0000
