data_image0
_chemical_formula_structural       Ho2Mn12P7
_chemical_formula_sum              "Ho2 Mn12 P7"
_cell_length_a       9.25874
_cell_length_b       9.25877
_cell_length_c       3.58401
_cell_angle_alpha    90
_cell_angle_beta     90
_cell_angle_gamma    119.996

_space_group_name_H-M_alt    "P 1"
_space_group_IT_number       1

loop_
  _space_group_symop_operation_xyz
  'x, y, z'

loop_
  _atom_site_type_symbol
  _atom_site_label
  _atom_site_symmetry_multiplicity
  _atom_site_fract_x
  _atom_site_fract_y
  _atom_site_fract_z
  _atom_site_occupancy
  Ho  Ho1       1.0  0.33300  0.66700  0.00000  1.0000
  Ho  Ho2       1.0  0.66700  0.33300  0.50000  1.0000
  Mn  Mn1       1.0  0.42500  0.04850  0.00000  1.0000
  Mn  Mn2       1.0  0.15700  0.27600  0.00000  1.0000
  Mn  Mn3       1.0  0.95200  0.37600  0.00000  1.0000
  Mn  Mn4       1.0  0.62400  0.57500  0.00000  1.0000
  Mn  Mn5       1.0  0.11900  0.84300  0.00000  1.0000
  Mn  Mn6       1.0  0.72400  0.88100  0.00000  1.0000
  Mn  Mn7       1.0  0.22700  0.10300  0.50000  1.0000
  Mn  Mn8       1.0  0.89700  0.12400  0.50000  1.0000
  Mn  Mn9       1.0  0.39400  0.43800  0.50000  1.0000
  Mn  Mn10      1.0  0.04420  0.60600  0.50000  1.0000
  Mn  Mn11      1.0  0.87600  0.77300  0.50000  1.0000
  Mn  Mn12      1.0  0.56200  0.95600  0.50000  1.0000
  P   P1        1.0  0.00002  0.00001  0.00000  1.0000
  P   P2        1.0  0.70900  0.12000  0.00000  1.0000
  P   P3        1.0  0.41100  0.29100  0.00000  1.0000
  P   P4        1.0  0.88000  0.58900  0.00000  1.0000
  P   P5        1.0  0.12800  0.40800  0.50000  1.0000
  P   P6        1.0  0.59200  0.72000  0.50000  1.0000
  P   P7        1.0  0.28000  0.87200  0.50000  1.0000
