data_image0
_chemical_formula_structural       AlCaF14Mg3Na3
_chemical_formula_sum              "Al1 Ca1 F14 Mg3 Na3"
_cell_length_a       7.06761
_cell_length_b       7.06761
_cell_length_c       7.06761
_cell_angle_alpha    59.74
_cell_angle_beta     59.74
_cell_angle_gamma    59.74

_space_group_name_H-M_alt    "P 1"
_space_group_IT_number       1

loop_
  _space_group_symop_operation_xyz
  'x, y, z'

loop_
  _atom_site_type_symbol
  _atom_site_label
  _atom_site_symmetry_multiplicity
  _atom_site_fract_x
  _atom_site_fract_y
  _atom_site_fract_z
  _atom_site_occupancy
  Al  Al1       1.0  0.50000  0.50000  0.50000  1.0000
  Ca  Ca1       1.0  0.00000  0.00000  0.00000  1.0000
  F   F1        1.0  0.12500  0.12500  0.12500  1.0000
  F   F2        1.0  0.57900  0.16700  0.16700  1.0000
  F   F3        1.0  0.16700  0.57900  0.16700  1.0000
  F   F4        1.0  0.56500  0.56500  0.19600  1.0000
  F   F5        1.0  0.83300  0.83300  0.42100  1.0000
  F   F6        1.0  0.43500  0.80400  0.43500  1.0000
  F   F7        1.0  0.80400  0.43500  0.43500  1.0000
  F   F8        1.0  0.56500  0.19600  0.56500  1.0000
  F   F9        1.0  0.19600  0.56500  0.56500  1.0000
  F   F10       1.0  0.16700  0.16700  0.57900  1.0000
  F   F11       1.0  0.43500  0.43500  0.80400  1.0000
  F   F12       1.0  0.83300  0.42100  0.83300  1.0000
  F   F13       1.0  0.42100  0.83300  0.83300  1.0000
  F   F14       1.0  0.87500  0.87500  0.87500  1.0000
  Mg  Mg1       1.0  0.50000  0.50000  1.00000  1.0000
  Mg  Mg2       1.0  0.50000  1.00000  0.50000  1.0000
  Mg  Mg3       1.0  1.00000  0.50000  0.50000  1.0000
  Na  Na1       1.0  0.00000  0.50000  0.00000  1.0000
  Na  Na2       1.0  0.50000  0.00000  0.00000  1.0000
  Na  Na3       1.0  0.00000  0.00000  0.50000  1.0000
