data_image0
_chemical_formula_structural       As2O8Pt4
_chemical_formula_sum              "As2 O8 Pt4"
_cell_length_a       6.40591
_cell_length_b       6.40591
_cell_length_c       6.40591
_cell_angle_alpha    119.988
_cell_angle_beta     90.0201
_cell_angle_gamma    119.988

_space_group_name_H-M_alt    "P 1"
_space_group_IT_number       1

loop_
  _space_group_symop_operation_xyz
  'x, y, z'

loop_
  _atom_site_type_symbol
  _atom_site_label
  _atom_site_symmetry_multiplicity
  _atom_site_fract_x
  _atom_site_fract_y
  _atom_site_fract_z
  _atom_site_occupancy
  As  As1       1.0  0.00000  0.00000  0.00000  1.0000
  As  As2       1.0  0.75000  0.50000  0.25000  1.0000
  O   O1        1.0  0.16900  0.77900  0.38900  1.0000
  O   O2        1.0  0.61000  0.22100  0.38900  1.0000
  O   O3        1.0  0.61100  0.77900  0.39000  1.0000
  O   O4        1.0  0.13900  0.27900  0.41900  1.0000
  O   O5        1.0  0.61100  0.22100  0.83100  1.0000
  O   O6        1.0  0.13900  0.72100  0.86000  1.0000
  O   O7        1.0  0.14000  0.27900  0.86100  1.0000
  O   O8        1.0  0.58100  0.72100  0.86100  1.0000
  Pt  Pt1       1.0  0.37500  0.75000  0.12500  1.0000
  Pt  Pt2       1.0  0.37500  0.25000  0.62500  1.0000
  Pt  Pt3       1.0  0.37500  0.75000  0.62500  1.0000
  Pt  Pt4       1.0  0.87500  0.25000  0.62500  1.0000
