data_image0
_chemical_formula_structural       H2Mg3O12Si4
_chemical_formula_sum              "H2 Mg3 O12 Si4"
_cell_length_a       5.27798
_cell_length_b       5.2749
_cell_length_c       9.27221
_cell_angle_alpha    95.1833
_cell_angle_beta     99.1957
_cell_angle_gamma    60.1663

_space_group_name_H-M_alt    "P 1"
_space_group_IT_number       1

loop_
  _space_group_symop_operation_xyz
  'x, y, z'

loop_
  _atom_site_type_symbol
  _atom_site_label
  _atom_site_symmetry_multiplicity
  _atom_site_fract_x
  _atom_site_fract_y
  _atom_site_fract_z
  _atom_site_occupancy
  H   H1        1.0  0.05660  0.33900  0.22200  1.0000
  H   H2        1.0  0.94300  0.66100  0.77800  1.0000
  Mg  Mg1       1.0  0.66700  0.66700  0.99900  1.0000
  Mg  Mg2       1.0  0.00000  0.00000  0.00000  1.0000
  Mg  Mg3       1.0  0.33300  0.33300  0.00114  1.0000
  O   O1        1.0  0.03020  0.33700  0.11600  1.0000
  O   O2        1.0  0.36500  0.67100  0.11900  1.0000
  O   O3        1.0  0.69800  0.00282  0.11900  1.0000
  O   O4        1.0  0.09520  0.87700  0.35700  1.0000
  O   O5        1.0  0.56200  0.34300  0.35700  1.0000
  O   O6        1.0  0.63000  0.80900  0.36000  1.0000
  O   O7        1.0  0.37000  0.19100  0.64000  1.0000
  O   O8        1.0  0.43800  0.65700  0.64300  1.0000
  O   O9        1.0  0.90500  0.12300  0.64300  1.0000
  O   O10       1.0  0.30200  0.99700  0.88100  1.0000
  O   O11       1.0  0.63500  0.32900  0.88100  1.0000
  O   O12       1.0  0.97000  0.66300  0.88400  1.0000
  Si  Si1       1.0  0.74600  0.00762  0.29800  1.0000
  Si  Si2       1.0  0.41300  0.67500  0.29800  1.0000
  Si  Si3       1.0  0.58700  0.32500  0.70200  1.0000
  Si  Si4       1.0  0.25400  0.99200  0.70200  1.0000
