data_image0
_chemical_formula_structural       Ba2Cu2Eu3Mn2O12
_chemical_formula_sum              "Ba2 Cu2 Eu3 Mn2 O12"
_cell_length_a       3.83007
_cell_length_b       3.83007
_cell_length_c       17.9477
_cell_angle_alpha    96.1252
_cell_angle_beta     96.1252
_cell_angle_gamma    90

_space_group_name_H-M_alt    "P 1"
_space_group_IT_number       1

loop_
  _space_group_symop_operation_xyz
  'x, y, z'

loop_
  _atom_site_type_symbol
  _atom_site_label
  _atom_site_symmetry_multiplicity
  _atom_site_fract_x
  _atom_site_fract_y
  _atom_site_fract_z
  _atom_site_occupancy
  Ba  Ba1       1.0  0.60500  0.60500  0.21100  1.0000
  Ba  Ba2       1.0  0.39500  0.39500  0.78900  1.0000
  Cu  Cu1       1.0  0.04910  0.04910  0.09810  1.0000
  Cu  Cu2       1.0  0.95100  0.95100  0.90200  1.0000
  Eu  Eu1       1.0  0.50000  0.50000  0.00000  1.0000
  Eu  Eu2       1.0  0.71300  0.71300  0.42700  1.0000
  Eu  Eu3       1.0  0.28700  0.28700  0.57300  1.0000
  Mn  Mn1       1.0  0.16700  0.16700  0.33300  1.0000
  Mn  Mn2       1.0  0.83300  0.83300  0.66700  1.0000
  O   O1        1.0  0.54400  0.04430  0.08850  1.0000
  O   O2        1.0  0.04430  0.54400  0.08850  1.0000
  O   O3        1.0  0.11400  0.11400  0.22700  1.0000
  O   O4        1.0  0.66900  0.16900  0.33800  1.0000
  O   O5        1.0  0.16900  0.66900  0.33800  1.0000
  O   O6        1.0  0.22100  0.22100  0.44200  1.0000
  O   O7        1.0  0.77900  0.77900  0.55800  1.0000
  O   O8        1.0  0.83100  0.33100  0.66200  1.0000
  O   O9        1.0  0.33100  0.83100  0.66200  1.0000
  O   O10       1.0  0.88600  0.88600  0.77300  1.0000
  O   O11       1.0  0.95600  0.45600  0.91100  1.0000
  O   O12       1.0  0.45600  0.95600  0.91100  1.0000
