data_image0
_chemical_formula_structural       Ce2Mn4O8
_chemical_formula_sum              "Ce2 Mn4 O8"
_cell_length_a       6.47503
_cell_length_b       6.47503
_cell_length_c       6.47503
_cell_angle_alpha    120.024
_cell_angle_beta     89.959
_cell_angle_gamma    120.024

_space_group_name_H-M_alt    "P 1"
_space_group_IT_number       1

loop_
  _space_group_symop_operation_xyz
  'x, y, z'

loop_
  _atom_site_type_symbol
  _atom_site_label
  _atom_site_symmetry_multiplicity
  _atom_site_fract_x
  _atom_site_fract_y
  _atom_site_fract_z
  _atom_site_occupancy
  Ce  Ce1       1.0  0.00000  0.00000  0.00000  1.0000
  Ce  Ce2       1.0  0.75000  0.50000  0.25000  1.0000
  Mn  Mn1       1.0  0.37500  0.75000  0.12500  1.0000
  Mn  Mn2       1.0  0.37500  0.75000  0.62500  1.0000
  Mn  Mn3       1.0  0.37500  0.25000  0.62500  1.0000
  Mn  Mn4       1.0  0.87500  0.25000  0.62500  1.0000
  O   O1        1.0  0.17900  0.78600  0.39300  1.0000
  O   O2        1.0  0.60700  0.21400  0.39300  1.0000
  O   O3        1.0  0.60700  0.78600  0.39300  1.0000
  O   O4        1.0  0.14300  0.28600  0.42900  1.0000
  O   O5        1.0  0.60700  0.21400  0.82100  1.0000
  O   O6        1.0  0.14300  0.71400  0.85700  1.0000
  O   O7        1.0  0.14300  0.28600  0.85700  1.0000
  O   O8        1.0  0.57100  0.71400  0.85700  1.0000
