data_image0
_chemical_formula_structural       Hg2O8Ta4
_chemical_formula_sum              "Hg2 O8 Ta4"
_cell_length_a       6.60797
_cell_length_b       6.60797
_cell_length_c       6.60797
_cell_angle_alpha    119.98
_cell_angle_beta     90.0346
_cell_angle_gamma    119.98

_space_group_name_H-M_alt    "P 1"
_space_group_IT_number       1

loop_
  _space_group_symop_operation_xyz
  'x, y, z'

loop_
  _atom_site_type_symbol
  _atom_site_label
  _atom_site_symmetry_multiplicity
  _atom_site_fract_x
  _atom_site_fract_y
  _atom_site_fract_z
  _atom_site_occupancy
  Hg  Hg1       1.0  0.00000  0.00000  0.00000  1.0000
  Hg  Hg2       1.0  0.75000  0.50000  0.25000  1.0000
  O   O1        1.0  0.59600  0.19300  0.40300  1.0000
  O   O2        1.0  0.21000  0.80700  0.40300  1.0000
  O   O3        1.0  0.59700  0.80700  0.40400  1.0000
  O   O4        1.0  0.15300  0.30700  0.46000  1.0000
  O   O5        1.0  0.59700  0.19300  0.79000  1.0000
  O   O6        1.0  0.15300  0.69300  0.84600  1.0000
  O   O7        1.0  0.15400  0.30700  0.84700  1.0000
  O   O8        1.0  0.54000  0.69300  0.84700  1.0000
  Ta  Ta1       1.0  0.37500  0.75000  0.12500  1.0000
  Ta  Ta2       1.0  0.37500  0.75000  0.62500  1.0000
  Ta  Ta3       1.0  0.87500  0.25000  0.62500  1.0000
  Ta  Ta4       1.0  0.37500  0.25000  0.62500  1.0000
