data_image0
_chemical_formula_structural       Fe2O8Th4
_chemical_formula_sum              "Fe2 O8 Th4"
_cell_length_a       6.81311
_cell_length_b       6.81311
_cell_length_c       6.81311
_cell_angle_alpha    118.716
_cell_angle_beta     92.2393
_cell_angle_gamma    118.716

_space_group_name_H-M_alt    "P 1"
_space_group_IT_number       1

loop_
  _space_group_symop_operation_xyz
  'x, y, z'

loop_
  _atom_site_type_symbol
  _atom_site_label
  _atom_site_symmetry_multiplicity
  _atom_site_fract_x
  _atom_site_fract_y
  _atom_site_fract_z
  _atom_site_occupancy
  Fe  Fe1       1.0  0.00000  0.00000  0.00000  1.0000
  Fe  Fe2       1.0  0.75000  0.50000  0.25000  1.0000
  O   O1        1.0  0.11200  0.75600  0.35600  1.0000
  O   O2        1.0  0.59900  0.24400  0.35600  1.0000
  O   O3        1.0  0.10600  0.25600  0.36200  1.0000
  O   O4        1.0  0.64400  0.75600  0.40100  1.0000
  O   O5        1.0  0.10600  0.74400  0.84900  1.0000
  O   O6        1.0  0.64400  0.24400  0.88800  1.0000
  O   O7        1.0  0.15100  0.25600  0.89400  1.0000
  O   O8        1.0  0.63800  0.74400  0.89400  1.0000
  Th  Th1       1.0  0.37500  0.75000  0.12500  1.0000
  Th  Th2       1.0  0.37500  0.25000  0.62500  1.0000
  Th  Th3       1.0  0.37500  0.75000  0.62500  1.0000
  Th  Th4       1.0  0.87500  0.25000  0.62500  1.0000
