data_image0
_chemical_formula_structural       Ce2O8Pa4
_chemical_formula_sum              "Ce2 O8 Pa4"
_cell_length_a       7.09707
_cell_length_b       7.09707
_cell_length_c       7.09707
_cell_angle_alpha    119.982
_cell_angle_beta     90.0317
_cell_angle_gamma    119.982

_space_group_name_H-M_alt    "P 1"
_space_group_IT_number       1

loop_
  _space_group_symop_operation_xyz
  'x, y, z'

loop_
  _atom_site_type_symbol
  _atom_site_label
  _atom_site_symmetry_multiplicity
  _atom_site_fract_x
  _atom_site_fract_y
  _atom_site_fract_z
  _atom_site_occupancy
  Ce  Ce1       1.0  0.00000  0.00000  0.00000  1.0000
  Ce  Ce2       1.0  0.75000  0.50000  0.25000  1.0000
  O   O1        1.0  0.14900  0.76600  0.38300  1.0000
  O   O2        1.0  0.61700  0.23400  0.38300  1.0000
  O   O3        1.0  0.61700  0.76600  0.38300  1.0000
  O   O4        1.0  0.13300  0.26600  0.39900  1.0000
  O   O5        1.0  0.61700  0.23400  0.85100  1.0000
  O   O6        1.0  0.13300  0.73400  0.86700  1.0000
  O   O7        1.0  0.60100  0.73400  0.86700  1.0000
  O   O8        1.0  0.13300  0.26600  0.86700  1.0000
  Pa  Pa1       1.0  0.37500  0.75000  0.12500  1.0000
  Pa  Pa2       1.0  0.37500  0.25000  0.62500  1.0000
  Pa  Pa3       1.0  0.37500  0.75000  0.62500  1.0000
  Pa  Pa4       1.0  0.87500  0.25000  0.62500  1.0000
