data_image0
_chemical_formula_structural       Ni3S2
_chemical_formula_sum              "Ni3 S2"
_cell_length_a       4.06271
_cell_length_b       4.06271
_cell_length_c       4.06271
_cell_angle_alpha    89.3924
_cell_angle_beta     89.3924
_cell_angle_gamma    89.3924

_space_group_name_H-M_alt    "P 1"
_space_group_IT_number       1

loop_
  _space_group_symop_operation_xyz
  'x, y, z'

loop_
  _atom_site_type_symbol
  _atom_site_label
  _atom_site_symmetry_multiplicity
  _atom_site_fract_x
  _atom_site_fract_y
  _atom_site_fract_z
  _atom_site_occupancy
  Ni  Ni1       1.0  0.75600  0.50000  0.24400  1.0000
  Ni  Ni2       1.0  0.24400  0.75600  0.50000  1.0000
  Ni  Ni3       1.0  0.50000  0.24400  0.75600  1.0000
  S   S1        1.0  0.25400  0.25400  0.25400  1.0000
  S   S2        1.0  0.74600  0.74600  0.74600  1.0000
