data_image0
_chemical_formula_structural       Ir2Mo4O8
_chemical_formula_sum              "Ir2 Mo4 O8"
_cell_length_a       6.16838
_cell_length_b       6.16838
_cell_length_c       6.16838
_cell_angle_alpha    119.988
_cell_angle_beta     90.0212
_cell_angle_gamma    119.988

_space_group_name_H-M_alt    "P 1"
_space_group_IT_number       1

loop_
  _space_group_symop_operation_xyz
  'x, y, z'

loop_
  _atom_site_type_symbol
  _atom_site_label
  _atom_site_symmetry_multiplicity
  _atom_site_fract_x
  _atom_site_fract_y
  _atom_site_fract_z
  _atom_site_occupancy
  Ir  Ir1       1.0  0.00000  0.00000  0.00000  1.0000
  Ir  Ir2       1.0  0.75000  0.50000  0.25000  1.0000
  Mo  Mo1       1.0  0.37500  0.75000  0.12500  1.0000
  Mo  Mo2       1.0  0.37500  0.75000  0.62500  1.0000
  Mo  Mo3       1.0  0.87500  0.25000  0.62500  1.0000
  Mo  Mo4       1.0  0.37500  0.25000  0.62500  1.0000
  O   O1        1.0  0.15400  0.76900  0.38500  1.0000
  O   O2        1.0  0.61500  0.23100  0.38500  1.0000
  O   O3        1.0  0.61500  0.76900  0.38500  1.0000
  O   O4        1.0  0.13500  0.26900  0.40400  1.0000
  O   O5        1.0  0.61500  0.23100  0.84600  1.0000
  O   O6        1.0  0.13500  0.73100  0.86500  1.0000
  O   O7        1.0  0.13500  0.26900  0.86500  1.0000
  O   O8        1.0  0.59600  0.73100  0.86500  1.0000
