data_image0
_chemical_formula_structural       O8Pb2Pt4
_chemical_formula_sum              "O8 Pb2 Pt4"
_cell_length_a       6.16134
_cell_length_b       6.66637
_cell_length_c       5.55872
_cell_angle_alpha    97.1653
_cell_angle_beta     108.689
_cell_angle_gamma    115.422

_space_group_name_H-M_alt    "P 1"
_space_group_IT_number       1

loop_
  _space_group_symop_operation_xyz
  'x, y, z'

loop_
  _atom_site_type_symbol
  _atom_site_label
  _atom_site_symmetry_multiplicity
  _atom_site_fract_x
  _atom_site_fract_y
  _atom_site_fract_z
  _atom_site_occupancy
  O   O1        1.0  0.34400  0.50500  0.12300  1.0000
  O   O2        1.0  0.16400  0.84700  0.16100  1.0000
  O   O3        1.0  0.60500  0.27400  0.36000  1.0000
  O   O4        1.0  0.13700  0.27300  0.47700  1.0000
  O   O5        1.0  0.86300  0.72700  0.52300  1.0000
  O   O6        1.0  0.39500  0.72600  0.64000  1.0000
  O   O7        1.0  0.83600  0.15300  0.83900  1.0000
  O   O8        1.0  0.65600  0.49500  0.87700  1.0000
  Pb  Pb1       1.0  0.75100  0.86500  0.14300  1.0000
  Pb  Pb2       1.0  0.24900  0.13500  0.85700  1.0000
  Pt  Pt1       1.0  0.00000  0.50000  0.00000  1.0000
  Pt  Pt2       1.0  0.00000  0.50000  0.50000  1.0000
  Pt  Pt3       1.0  0.50000  0.50000  0.50000  1.0000
  Pt  Pt4       1.0  0.50000  0.00000  0.50000  1.0000
