data_image0
_chemical_formula_structural       Ni2O8V4
_chemical_formula_sum              "Ni2 O8 V4"
_cell_length_a       6.03773
_cell_length_b       6.03773
_cell_length_c       6.03773
_cell_angle_alpha    121.589
_cell_angle_beta     87.2698
_cell_angle_gamma    121.589

_space_group_name_H-M_alt    "P 1"
_space_group_IT_number       1

loop_
  _space_group_symop_operation_xyz
  'x, y, z'

loop_
  _atom_site_type_symbol
  _atom_site_label
  _atom_site_symmetry_multiplicity
  _atom_site_fract_x
  _atom_site_fract_y
  _atom_site_fract_z
  _atom_site_occupancy
  Ni  Ni1       1.0  0.00000  0.00000  0.00000  1.0000
  Ni  Ni2       1.0  0.75000  0.50000  0.25000  1.0000
  O   O1        1.0  0.61200  0.76400  0.37600  1.0000
  O   O2        1.0  0.62400  0.23600  0.38800  1.0000
  O   O3        1.0  0.15200  0.76400  0.38800  1.0000
  O   O4        1.0  0.13800  0.26400  0.40200  1.0000
  O   O5        1.0  0.61200  0.23600  0.84800  1.0000
  O   O6        1.0  0.12600  0.26400  0.86200  1.0000
  O   O7        1.0  0.59800  0.73600  0.86200  1.0000
  O   O8        1.0  0.13800  0.73600  0.87400  1.0000
  V   V1        1.0  0.37500  0.75000  0.12500  1.0000
  V   V2        1.0  0.87500  0.25000  0.62500  1.0000
  V   V3        1.0  0.37500  0.25000  0.62500  1.0000
  V   V4        1.0  0.37500  0.75000  0.62500  1.0000
