data_image0
_chemical_formula_structural       O8Pb2V4
_chemical_formula_sum              "O8 Pb2 V4"
_cell_length_a       6.40165
_cell_length_b       6.40165
_cell_length_c       6.40165
_cell_angle_alpha    119.443
_cell_angle_beta     90.9676
_cell_angle_gamma    119.443

_space_group_name_H-M_alt    "P 1"
_space_group_IT_number       1

loop_
  _space_group_symop_operation_xyz
  'x, y, z'

loop_
  _atom_site_type_symbol
  _atom_site_label
  _atom_site_symmetry_multiplicity
  _atom_site_fract_x
  _atom_site_fract_y
  _atom_site_fract_z
  _atom_site_occupancy
  O   O1        1.0  0.60200  0.79500  0.39800  1.0000
  O   O2        1.0  0.60200  0.20500  0.39800  1.0000
  O   O3        1.0  0.19300  0.79500  0.39800  1.0000
  O   O4        1.0  0.14800  0.29500  0.44300  1.0000
  O   O5        1.0  0.60200  0.20500  0.80700  1.0000
  O   O6        1.0  0.14800  0.29500  0.85200  1.0000
  O   O7        1.0  0.55700  0.70500  0.85200  1.0000
  O   O8        1.0  0.14800  0.70500  0.85200  1.0000
  Pb  Pb1       1.0  0.00000  0.00000  0.00000  1.0000
  Pb  Pb2       1.0  0.75000  0.50000  0.25000  1.0000
  V   V1        1.0  0.37500  0.75000  0.12500  1.0000
  V   V2        1.0  0.87500  0.25000  0.62500  1.0000
  V   V3        1.0  0.37500  0.75000  0.62500  1.0000
  V   V4        1.0  0.37500  0.25000  0.62500  1.0000
