data_image0
_chemical_formula_structural       Ac2La4O8
_chemical_formula_sum              "Ac2 La4 O8"
_cell_length_a       7.3007
_cell_length_b       7.3007
_cell_length_c       7.3007
_cell_angle_alpha    119.99
_cell_angle_beta     90.018
_cell_angle_gamma    119.99

_space_group_name_H-M_alt    "P 1"
_space_group_IT_number       1

loop_
  _space_group_symop_operation_xyz
  'x, y, z'

loop_
  _atom_site_type_symbol
  _atom_site_label
  _atom_site_symmetry_multiplicity
  _atom_site_fract_x
  _atom_site_fract_y
  _atom_site_fract_z
  _atom_site_occupancy
  Ac  Ac1       1.0  0.00000  0.00000  0.00000  1.0000
  Ac  Ac2       1.0  0.75000  0.50000  0.25000  1.0000
  La  La1       1.0  0.37500  0.75000  0.12500  1.0000
  La  La2       1.0  0.87500  0.25000  0.62500  1.0000
  La  La3       1.0  0.37500  0.25000  0.62500  1.0000
  La  La4       1.0  0.37500  0.75000  0.62500  1.0000
  O   O1        1.0  0.16200  0.77400  0.38700  1.0000
  O   O2        1.0  0.61300  0.22600  0.38700  1.0000
  O   O3        1.0  0.61300  0.77400  0.38700  1.0000
  O   O4        1.0  0.13700  0.27400  0.41200  1.0000
  O   O5        1.0  0.61300  0.22600  0.83800  1.0000
  O   O6        1.0  0.13700  0.72600  0.86300  1.0000
  O   O7        1.0  0.13700  0.27400  0.86300  1.0000
  O   O8        1.0  0.58800  0.72600  0.86300  1.0000
