data_image0
_chemical_formula_structural       Ac2O8W4
_chemical_formula_sum              "Ac2 O8 W4"
_cell_length_a       6.6091
_cell_length_b       6.6091
_cell_length_c       6.6091
_cell_angle_alpha    119.983
_cell_angle_beta     90.0295
_cell_angle_gamma    119.983

_space_group_name_H-M_alt    "P 1"
_space_group_IT_number       1

loop_
  _space_group_symop_operation_xyz
  'x, y, z'

loop_
  _atom_site_type_symbol
  _atom_site_label
  _atom_site_symmetry_multiplicity
  _atom_site_fract_x
  _atom_site_fract_y
  _atom_site_fract_z
  _atom_site_occupancy
  Ac  Ac1       1.0  0.00000  0.00000  0.00000  1.0000
  Ac  Ac2       1.0  0.75000  0.50000  0.25000  1.0000
  O   O1        1.0  0.19500  0.79600  0.39800  1.0000
  O   O2        1.0  0.60200  0.20400  0.39800  1.0000
  O   O3        1.0  0.60200  0.79600  0.39800  1.0000
  O   O4        1.0  0.14800  0.29600  0.44500  1.0000
  O   O5        1.0  0.60200  0.20400  0.80500  1.0000
  O   O6        1.0  0.14800  0.70400  0.85200  1.0000
  O   O7        1.0  0.14800  0.29600  0.85200  1.0000
  O   O8        1.0  0.55500  0.70400  0.85200  1.0000
  W   W1        1.0  0.37500  0.75000  0.12500  1.0000
  W   W2        1.0  0.87500  0.25000  0.62500  1.0000
  W   W3        1.0  0.37500  0.75000  0.62500  1.0000
  W   W4        1.0  0.37500  0.25000  0.62500  1.0000
