data_image0
_chemical_formula_structural       Al2O8Yb4
_chemical_formula_sum              "Al2 O8 Yb4"
_cell_length_a       6.28163
_cell_length_b       6.28163
_cell_length_c       6.28163
_cell_angle_alpha    119.996
_cell_angle_beta     90.007
_cell_angle_gamma    119.996

_space_group_name_H-M_alt    "P 1"
_space_group_IT_number       1

loop_
  _space_group_symop_operation_xyz
  'x, y, z'

loop_
  _atom_site_type_symbol
  _atom_site_label
  _atom_site_symmetry_multiplicity
  _atom_site_fract_x
  _atom_site_fract_y
  _atom_site_fract_z
  _atom_site_occupancy
  Al  Al1       1.0  0.00000  0.00000  0.00000  1.0000
  Al  Al2       1.0  0.75000  0.50000  0.25000  1.0000
  O   O1        1.0  0.11700  0.23500  0.35200  1.0000
  O   O2        1.0  0.10200  0.73500  0.36700  1.0000
  O   O3        1.0  0.63300  0.26500  0.36700  1.0000
  O   O4        1.0  0.63300  0.73500  0.36700  1.0000
  O   O5        1.0  0.11700  0.76500  0.88300  1.0000
  O   O6        1.0  0.11700  0.23500  0.88300  1.0000
  O   O7        1.0  0.64800  0.76500  0.88300  1.0000
  O   O8        1.0  0.63300  0.26500  0.89800  1.0000
  Yb  Yb1       1.0  0.37500  0.75000  0.12500  1.0000
  Yb  Yb2       1.0  0.87500  0.25000  0.62500  1.0000
  Yb  Yb3       1.0  0.37500  0.75000  0.62500  1.0000
  Yb  Yb4       1.0  0.37500  0.25000  0.62500  1.0000
