data_image0
_chemical_formula_structural       As2Cu4O8
_chemical_formula_sum              "As2 Cu4 O8"
_cell_length_a       6.02139
_cell_length_b       6.02139
_cell_length_c       6.02139
_cell_angle_alpha    122.587
_cell_angle_beta     85.5743
_cell_angle_gamma    122.587

_space_group_name_H-M_alt    "P 1"
_space_group_IT_number       1

loop_
  _space_group_symop_operation_xyz
  'x, y, z'

loop_
  _atom_site_type_symbol
  _atom_site_label
  _atom_site_symmetry_multiplicity
  _atom_site_fract_x
  _atom_site_fract_y
  _atom_site_fract_z
  _atom_site_occupancy
  As  As1       1.0  0.00000  0.00000  0.00000  1.0000
  As  As2       1.0  0.75000  0.50000  0.25000  1.0000
  Cu  Cu1       1.0  0.37500  0.75000  0.12500  1.0000
  Cu  Cu2       1.0  0.87500  0.25000  0.62500  1.0000
  Cu  Cu3       1.0  0.37500  0.25000  0.62500  1.0000
  Cu  Cu4       1.0  0.37500  0.75000  0.62500  1.0000
  O   O1        1.0  0.60600  0.24700  0.35800  1.0000
  O   O2        1.0  0.11100  0.75300  0.35800  1.0000
  O   O3        1.0  0.10800  0.25300  0.36100  1.0000
  O   O4        1.0  0.64200  0.75300  0.39400  1.0000
  O   O5        1.0  0.10800  0.74700  0.85600  1.0000
  O   O6        1.0  0.64200  0.24700  0.88900  1.0000
  O   O7        1.0  0.14400  0.25300  0.89200  1.0000
  O   O8        1.0  0.63900  0.74700  0.89200  1.0000
