data_image0
_chemical_formula_structural       Ac2Cu4O8
_chemical_formula_sum              "Ac2 Cu4 O8"
_cell_length_a       6.35039
_cell_length_b       6.35039
_cell_length_c       6.35039
_cell_angle_alpha    118.313
_cell_angle_beta     92.9478
_cell_angle_gamma    118.313

_space_group_name_H-M_alt    "P 1"
_space_group_IT_number       1

loop_
  _space_group_symop_operation_xyz
  'x, y, z'

loop_
  _atom_site_type_symbol
  _atom_site_label
  _atom_site_symmetry_multiplicity
  _atom_site_fract_x
  _atom_site_fract_y
  _atom_site_fract_z
  _atom_site_occupancy
  Ac  Ac1       1.0  0.00000  0.00000  0.00000  1.0000
  Ac  Ac2       1.0  0.75000  0.50000  0.25000  1.0000
  Cu  Cu1       1.0  0.37500  0.75000  0.12500  1.0000
  Cu  Cu2       1.0  0.87500  0.25000  0.62500  1.0000
  Cu  Cu3       1.0  0.37500  0.25000  0.62500  1.0000
  Cu  Cu4       1.0  0.37500  0.75000  0.62500  1.0000
  O   O1        1.0  0.60000  0.78900  0.39000  1.0000
  O   O2        1.0  0.18900  0.78900  0.40000  1.0000
  O   O3        1.0  0.61000  0.21100  0.40000  1.0000
  O   O4        1.0  0.15000  0.28900  0.43900  1.0000
  O   O5        1.0  0.60000  0.21100  0.81100  1.0000
  O   O6        1.0  0.14000  0.28900  0.85000  1.0000
  O   O7        1.0  0.56100  0.71100  0.85000  1.0000
  O   O8        1.0  0.15000  0.71100  0.86000  1.0000
