data_image0
_chemical_formula_structural       B2Bi4O8
_chemical_formula_sum              "B2 Bi4 O8"
_cell_length_a       6.31123
_cell_length_b       6.31123
_cell_length_c       6.31123
_cell_angle_alpha    119.958
_cell_angle_beta     90.0727
_cell_angle_gamma    119.958

_space_group_name_H-M_alt    "P 1"
_space_group_IT_number       1

loop_
  _space_group_symop_operation_xyz
  'x, y, z'

loop_
  _atom_site_type_symbol
  _atom_site_label
  _atom_site_symmetry_multiplicity
  _atom_site_fract_x
  _atom_site_fract_y
  _atom_site_fract_z
  _atom_site_occupancy
  B   B1        1.0  0.00000  0.00000  0.00000  1.0000
  B   B2        1.0  0.75000  0.50000  0.25000  1.0000
  Bi  Bi1       1.0  0.37500  0.75000  0.12500  1.0000
  Bi  Bi2       1.0  0.87500  0.25000  0.62500  1.0000
  Bi  Bi3       1.0  0.37500  0.75000  0.62500  1.0000
  Bi  Bi4       1.0  0.37500  0.25000  0.62500  1.0000
  O   O1        1.0  0.09830  0.19600  0.29400  1.0000
  O   O2        1.0  0.65200  0.69600  0.34800  1.0000
  O   O3        1.0  0.04440  0.69600  0.34800  1.0000
  O   O4        1.0  0.65200  0.30400  0.34800  1.0000
  O   O5        1.0  0.09780  0.19600  0.90200  1.0000
  O   O6        1.0  0.70600  0.80400  0.90200  1.0000
  O   O7        1.0  0.09830  0.80400  0.90200  1.0000
  O   O8        1.0  0.65200  0.30400  0.95600  1.0000
