data_image0
_chemical_formula_structural       Be2O8V4
_chemical_formula_sum              "Be2 O8 V4"
_cell_length_a       5.72407
_cell_length_b       5.72407
_cell_length_c       5.72407
_cell_angle_alpha    120.398
_cell_angle_beta     89.3122
_cell_angle_gamma    120.398

_space_group_name_H-M_alt    "P 1"
_space_group_IT_number       1

loop_
  _space_group_symop_operation_xyz
  'x, y, z'

loop_
  _atom_site_type_symbol
  _atom_site_label
  _atom_site_symmetry_multiplicity
  _atom_site_fract_x
  _atom_site_fract_y
  _atom_site_fract_z
  _atom_site_occupancy
  Be  Be1       1.0  0.00000  0.00000  0.00000  1.0000
  Be  Be2       1.0  0.75000  0.50000  0.25000  1.0000
  O   O1        1.0  0.12000  0.24800  0.36800  1.0000
  O   O2        1.0  0.62200  0.25200  0.37000  1.0000
  O   O3        1.0  0.11800  0.74800  0.37000  1.0000
  O   O4        1.0  0.63000  0.74800  0.37800  1.0000
  O   O5        1.0  0.12000  0.75200  0.87200  1.0000
  O   O6        1.0  0.12800  0.24800  0.88000  1.0000
  O   O7        1.0  0.63200  0.75200  0.88000  1.0000
  O   O8        1.0  0.63000  0.25200  0.88200  1.0000
  V   V1        1.0  0.37500  0.75000  0.12500  1.0000
  V   V2        1.0  0.37500  0.75000  0.62500  1.0000
  V   V3        1.0  0.37500  0.25000  0.62500  1.0000
  V   V4        1.0  0.87500  0.25000  0.62500  1.0000
