data_image0
_chemical_formula_structural       Dy2Fe4O8
_chemical_formula_sum              "Dy2 Fe4 O8"
_cell_length_a       6.26192
_cell_length_b       6.26192
_cell_length_c       6.26192
_cell_angle_alpha    120.425
_cell_angle_beta     89.266
_cell_angle_gamma    120.425

_space_group_name_H-M_alt    "P 1"
_space_group_IT_number       1

loop_
  _space_group_symop_operation_xyz
  'x, y, z'

loop_
  _atom_site_type_symbol
  _atom_site_label
  _atom_site_symmetry_multiplicity
  _atom_site_fract_x
  _atom_site_fract_y
  _atom_site_fract_z
  _atom_site_occupancy
  Dy  Dy1       1.0  0.00000  0.00000  0.00000  1.0000
  Dy  Dy2       1.0  0.75000  0.50000  0.25000  1.0000
  Fe  Fe1       1.0  0.37500  0.75000  0.12500  1.0000
  Fe  Fe2       1.0  0.37500  0.25000  0.62500  1.0000
  Fe  Fe3       1.0  0.37500  0.75000  0.62500  1.0000
  Fe  Fe4       1.0  0.87500  0.25000  0.62500  1.0000
  O   O1        1.0  0.60600  0.77300  0.37900  1.0000
  O   O2        1.0  0.16600  0.77300  0.39400  1.0000
  O   O3        1.0  0.62100  0.22700  0.39400  1.0000
  O   O4        1.0  0.14400  0.27300  0.41600  1.0000
  O   O5        1.0  0.60600  0.22700  0.83400  1.0000
  O   O6        1.0  0.58400  0.72700  0.85600  1.0000
  O   O7        1.0  0.12900  0.27300  0.85600  1.0000
  O   O8        1.0  0.14400  0.72700  0.87100  1.0000
