data_image0
_chemical_formula_structural       Cr2Ga4O8
_chemical_formula_sum              "Cr2 Ga4 O8"
_cell_length_a       5.88079
_cell_length_b       5.88079
_cell_length_c       5.88079
_cell_angle_alpha    115.982
_cell_angle_beta     97.1135
_cell_angle_gamma    115.982

_space_group_name_H-M_alt    "P 1"
_space_group_IT_number       1

loop_
  _space_group_symop_operation_xyz
  'x, y, z'

loop_
  _atom_site_type_symbol
  _atom_site_label
  _atom_site_symmetry_multiplicity
  _atom_site_fract_x
  _atom_site_fract_y
  _atom_site_fract_z
  _atom_site_occupancy
  Cr  Cr1       1.0  0.00000  0.00000  0.00000  1.0000
  Cr  Cr2       1.0  0.75000  0.50000  0.25000  1.0000
  Ga  Ga1       1.0  0.37500  0.75000  0.12500  1.0000
  Ga  Ga2       1.0  0.87500  0.25000  0.62500  1.0000
  Ga  Ga3       1.0  0.37500  0.75000  0.62500  1.0000
  Ga  Ga4       1.0  0.37500  0.25000  0.62500  1.0000
  O   O1        1.0  0.57900  0.20800  0.37100  1.0000
  O   O2        1.0  0.16200  0.79200  0.37100  1.0000
  O   O3        1.0  0.12100  0.29200  0.41200  1.0000
  O   O4        1.0  0.62900  0.79200  0.42100  1.0000
  O   O5        1.0  0.12100  0.70800  0.82900  1.0000
  O   O6        1.0  0.62900  0.20800  0.83800  1.0000
  O   O7        1.0  0.17100  0.29200  0.87900  1.0000
  O   O8        1.0  0.58800  0.70800  0.87900  1.0000
