data_image0
_chemical_formula_structural       Cr2Gd4O8
_chemical_formula_sum              "Cr2 Gd4 O8"
_cell_length_a       6.7184
_cell_length_b       6.7184
_cell_length_c       6.7184
_cell_angle_alpha    120.887
_cell_angle_beta     88.4696
_cell_angle_gamma    120.887

_space_group_name_H-M_alt    "P 1"
_space_group_IT_number       1

loop_
  _space_group_symop_operation_xyz
  'x, y, z'

loop_
  _atom_site_type_symbol
  _atom_site_label
  _atom_site_symmetry_multiplicity
  _atom_site_fract_x
  _atom_site_fract_y
  _atom_site_fract_z
  _atom_site_occupancy
  Cr  Cr1       1.0  0.00000  0.00000  0.00000  1.0000
  Cr  Cr2       1.0  0.75000  0.50000  0.25000  1.0000
  Gd  Gd1       1.0  0.37500  0.75000  0.12500  1.0000
  Gd  Gd2       1.0  0.87500  0.25000  0.62500  1.0000
  Gd  Gd3       1.0  0.37500  0.25000  0.62500  1.0000
  Gd  Gd4       1.0  0.37500  0.75000  0.62500  1.0000
  O   O1        1.0  0.61400  0.75900  0.37400  1.0000
  O   O2        1.0  0.14500  0.75900  0.38600  1.0000
  O   O3        1.0  0.62600  0.24100  0.38600  1.0000
  O   O4        1.0  0.13600  0.25900  0.39500  1.0000
  O   O5        1.0  0.61400  0.24100  0.85500  1.0000
  O   O6        1.0  0.12400  0.25900  0.86400  1.0000
  O   O7        1.0  0.60500  0.74100  0.86400  1.0000
  O   O8        1.0  0.13600  0.74100  0.87600  1.0000
