data_image0
_chemical_formula_structural       Ca2Ce4O8
_chemical_formula_sum              "Ca2 Ce4 O8"
_cell_length_a       7.14066
_cell_length_b       7.14066
_cell_length_c       7.14066
_cell_angle_alpha    119.998
_cell_angle_beta     90.0042
_cell_angle_gamma    119.998

_space_group_name_H-M_alt    "P 1"
_space_group_IT_number       1

loop_
  _space_group_symop_operation_xyz
  'x, y, z'

loop_
  _atom_site_type_symbol
  _atom_site_label
  _atom_site_symmetry_multiplicity
  _atom_site_fract_x
  _atom_site_fract_y
  _atom_site_fract_z
  _atom_site_occupancy
  Ca  Ca1       1.0  0.00000  0.00000  0.00000  1.0000
  Ca  Ca2       1.0  0.75000  0.50000  0.25000  1.0000
  Ce  Ce1       1.0  0.37500  0.75000  0.12500  1.0000
  Ce  Ce2       1.0  0.37500  0.75000  0.62500  1.0000
  Ce  Ce3       1.0  0.37500  0.25000  0.62500  1.0000
  Ce  Ce4       1.0  0.87500  0.25000  0.62500  1.0000
  O   O1        1.0  0.15300  0.76800  0.38400  1.0000
  O   O2        1.0  0.61600  0.23200  0.38400  1.0000
  O   O3        1.0  0.61600  0.76800  0.38400  1.0000
  O   O4        1.0  0.13400  0.26800  0.40300  1.0000
  O   O5        1.0  0.61600  0.23200  0.84700  1.0000
  O   O6        1.0  0.13400  0.73200  0.86600  1.0000
  O   O7        1.0  0.13400  0.26800  0.86600  1.0000
  O   O8        1.0  0.59700  0.73200  0.86600  1.0000
