data_image0
_chemical_formula_structural       Cr2Er4O8
_chemical_formula_sum              "Cr2 Er4 O8"
_cell_length_a       6.60163
_cell_length_b       6.60163
_cell_length_c       6.60163
_cell_angle_alpha    121.027
_cell_angle_beta     88.2301
_cell_angle_gamma    121.027

_space_group_name_H-M_alt    "P 1"
_space_group_IT_number       1

loop_
  _space_group_symop_operation_xyz
  'x, y, z'

loop_
  _atom_site_type_symbol
  _atom_site_label
  _atom_site_symmetry_multiplicity
  _atom_site_fract_x
  _atom_site_fract_y
  _atom_site_fract_z
  _atom_site_occupancy
  Cr  Cr1       1.0  0.00000  0.00000  0.00000  1.0000
  Cr  Cr2       1.0  0.75000  0.50000  0.25000  1.0000
  Er  Er1       1.0  0.37500  0.75000  0.12500  1.0000
  Er  Er2       1.0  0.37500  0.75000  0.62500  1.0000
  Er  Er3       1.0  0.37500  0.25000  0.62500  1.0000
  Er  Er4       1.0  0.87500  0.25000  0.62500  1.0000
  O   O1        1.0  0.61200  0.76200  0.37400  1.0000
  O   O2        1.0  0.15000  0.76200  0.38800  1.0000
  O   O3        1.0  0.62600  0.23800  0.38800  1.0000
  O   O4        1.0  0.13800  0.26200  0.40000  1.0000
  O   O5        1.0  0.61200  0.23800  0.85000  1.0000
  O   O6        1.0  0.12400  0.26200  0.86200  1.0000
  O   O7        1.0  0.60000  0.73800  0.86200  1.0000
  O   O8        1.0  0.13800  0.73800  0.87600  1.0000
