data_image0
_chemical_formula_structural       Cr2O8Tm4
_chemical_formula_sum              "Cr2 O8 Tm4"
_cell_length_a       6.4519
_cell_length_b       6.4519
_cell_length_c       6.4519
_cell_angle_alpha    117.625
_cell_angle_beta     94.1654
_cell_angle_gamma    117.625

_space_group_name_H-M_alt    "P 1"
_space_group_IT_number       1

loop_
  _space_group_symop_operation_xyz
  'x, y, z'

loop_
  _atom_site_type_symbol
  _atom_site_label
  _atom_site_symmetry_multiplicity
  _atom_site_fract_x
  _atom_site_fract_y
  _atom_site_fract_z
  _atom_site_occupancy
  Cr  Cr1       1.0  0.00000  0.00000  0.00000  1.0000
  Cr  Cr2       1.0  0.75000  0.50000  0.25000  1.0000
  O   O1        1.0  0.15000  0.77800  0.37200  1.0000
  O   O2        1.0  0.59400  0.22200  0.37200  1.0000
  O   O3        1.0  0.12200  0.27800  0.40000  1.0000
  O   O4        1.0  0.62800  0.77800  0.40600  1.0000
  O   O5        1.0  0.12200  0.72200  0.84400  1.0000
  O   O6        1.0  0.62800  0.22200  0.85000  1.0000
  O   O7        1.0  0.15600  0.27800  0.87800  1.0000
  O   O8        1.0  0.60000  0.72200  0.87800  1.0000
  Tm  Tm1       1.0  0.37500  0.75000  0.12500  1.0000
  Tm  Tm2       1.0  0.87500  0.25000  0.62500  1.0000
  Tm  Tm3       1.0  0.37500  0.25000  0.62500  1.0000
  Tm  Tm4       1.0  0.37500  0.75000  0.62500  1.0000
