data_image0
_chemical_formula_structural       Au2Mn4O8
_chemical_formula_sum              "Au2 Mn4 O8"
_cell_length_a       6.2408
_cell_length_b       6.2408
_cell_length_c       6.2408
_cell_angle_alpha    121.884
_cell_angle_beta     86.7671
_cell_angle_gamma    121.884

_space_group_name_H-M_alt    "P 1"
_space_group_IT_number       1

loop_
  _space_group_symop_operation_xyz
  'x, y, z'

loop_
  _atom_site_type_symbol
  _atom_site_label
  _atom_site_symmetry_multiplicity
  _atom_site_fract_x
  _atom_site_fract_y
  _atom_site_fract_z
  _atom_site_occupancy
  Au  Au1       1.0  0.00000  0.00000  0.00000  1.0000
  Au  Au2       1.0  0.75000  0.50000  0.25000  1.0000
  Mn  Mn1       1.0  0.37500  0.75000  0.12500  1.0000
  Mn  Mn2       1.0  0.37500  0.25000  0.62500  1.0000
  Mn  Mn3       1.0  0.37500  0.75000  0.62500  1.0000
  Mn  Mn4       1.0  0.87500  0.25000  0.62500  1.0000
  O   O1        1.0  0.60400  0.21000  0.39400  1.0000
  O   O2        1.0  0.18400  0.79000  0.39400  1.0000
  O   O3        1.0  0.60600  0.79000  0.39600  1.0000
  O   O4        1.0  0.14400  0.29000  0.43400  1.0000
  O   O5        1.0  0.60600  0.21000  0.81600  1.0000
  O   O6        1.0  0.14400  0.71000  0.85400  1.0000
  O   O7        1.0  0.14600  0.29000  0.85600  1.0000
  O   O8        1.0  0.56600  0.71000  0.85600  1.0000
