data_image0
_chemical_formula_structural       Ce2Ir4O8
_chemical_formula_sum              "Ce2 Ir4 O8"
_cell_length_a       6.49702
_cell_length_b       6.49702
_cell_length_c       6.49702
_cell_angle_alpha    119.989
_cell_angle_beta     90.0189
_cell_angle_gamma    119.989

_space_group_name_H-M_alt    "P 1"
_space_group_IT_number       1

loop_
  _space_group_symop_operation_xyz
  'x, y, z'

loop_
  _atom_site_type_symbol
  _atom_site_label
  _atom_site_symmetry_multiplicity
  _atom_site_fract_x
  _atom_site_fract_y
  _atom_site_fract_z
  _atom_site_occupancy
  Ce  Ce1       1.0  0.00000  0.00000  0.00000  1.0000
  Ce  Ce2       1.0  0.75000  0.50000  0.25000  1.0000
  Ir  Ir1       1.0  0.37500  0.75000  0.12500  1.0000
  Ir  Ir2       1.0  0.87500  0.25000  0.62500  1.0000
  Ir  Ir3       1.0  0.37500  0.25000  0.62500  1.0000
  Ir  Ir4       1.0  0.37500  0.75000  0.62500  1.0000
  O   O1        1.0  0.60200  0.20400  0.39800  1.0000
  O   O2        1.0  0.19400  0.79600  0.39800  1.0000
  O   O3        1.0  0.60200  0.79600  0.39800  1.0000
  O   O4        1.0  0.14800  0.29600  0.44400  1.0000
  O   O5        1.0  0.60200  0.20400  0.80600  1.0000
  O   O6        1.0  0.14800  0.70400  0.85200  1.0000
  O   O7        1.0  0.14800  0.29600  0.85200  1.0000
  O   O8        1.0  0.55600  0.70400  0.85200  1.0000
