data_image0
_chemical_formula_structural       Cs2Ga4O8
_chemical_formula_sum              "Cs2 Ga4 O8"
_cell_length_a       6.54843
_cell_length_b       6.54843
_cell_length_c       6.54843
_cell_angle_alpha    120.012
_cell_angle_beta     89.98
_cell_angle_gamma    120.012

_space_group_name_H-M_alt    "P 1"
_space_group_IT_number       1

loop_
  _space_group_symop_operation_xyz
  'x, y, z'

loop_
  _atom_site_type_symbol
  _atom_site_label
  _atom_site_symmetry_multiplicity
  _atom_site_fract_x
  _atom_site_fract_y
  _atom_site_fract_z
  _atom_site_occupancy
  Cs  Cs1       1.0  0.00000  0.00000  0.00000  1.0000
  Cs  Cs2       1.0  0.75000  0.50000  0.25000  1.0000
  Ga  Ga1       1.0  0.37500  0.75000  0.12500  1.0000
  Ga  Ga2       1.0  0.37500  0.75000  0.62500  1.0000
  Ga  Ga3       1.0  0.37500  0.25000  0.62500  1.0000
  Ga  Ga4       1.0  0.87500  0.25000  0.62500  1.0000
  O   O1        1.0  0.21200  0.80800  0.40400  1.0000
  O   O2        1.0  0.59600  0.19200  0.40400  1.0000
  O   O3        1.0  0.59600  0.80800  0.40400  1.0000
  O   O4        1.0  0.15400  0.30800  0.46200  1.0000
  O   O5        1.0  0.59600  0.19200  0.78800  1.0000
  O   O6        1.0  0.15400  0.69200  0.84600  1.0000
  O   O7        1.0  0.53800  0.69200  0.84600  1.0000
  O   O8        1.0  0.15400  0.30800  0.84600  1.0000
