data_image0
_chemical_formula_structural       Dy2O8V4
_chemical_formula_sum              "Dy2 O8 V4"
_cell_length_a       6.37095
_cell_length_b       6.37095
_cell_length_c       6.37095
_cell_angle_alpha    122.524
_cell_angle_beta     85.6816
_cell_angle_gamma    122.524

_space_group_name_H-M_alt    "P 1"
_space_group_IT_number       1

loop_
  _space_group_symop_operation_xyz
  'x, y, z'

loop_
  _atom_site_type_symbol
  _atom_site_label
  _atom_site_symmetry_multiplicity
  _atom_site_fract_x
  _atom_site_fract_y
  _atom_site_fract_z
  _atom_site_occupancy
  Dy  Dy1       1.0  0.00000  0.00000  0.00000  1.0000
  Dy  Dy2       1.0  0.75000  0.50000  0.25000  1.0000
  O   O1        1.0  0.60300  0.76700  0.37000  1.0000
  O   O2        1.0  0.16300  0.76700  0.39700  1.0000
  O   O3        1.0  0.63000  0.23300  0.39700  1.0000
  O   O4        1.0  0.14700  0.26700  0.41300  1.0000
  O   O5        1.0  0.60300  0.23300  0.83700  1.0000
  O   O6        1.0  0.12000  0.26700  0.85300  1.0000
  O   O7        1.0  0.58700  0.73300  0.85300  1.0000
  O   O8        1.0  0.14700  0.73300  0.88000  1.0000
  V   V1        1.0  0.37500  0.75000  0.12500  1.0000
  V   V2        1.0  0.37500  0.75000  0.62500  1.0000
  V   V3        1.0  0.37500  0.25000  0.62500  1.0000
  V   V4        1.0  0.87500  0.25000  0.62500  1.0000
