data_image0
_chemical_formula_structural       Cs2Nd4O8
_chemical_formula_sum              "Cs2 Nd4 O8"
_cell_length_a       7.45839
_cell_length_b       7.45839
_cell_length_c       7.45839
_cell_angle_alpha    119.992
_cell_angle_beta     90.0132
_cell_angle_gamma    119.992

_space_group_name_H-M_alt    "P 1"
_space_group_IT_number       1

loop_
  _space_group_symop_operation_xyz
  'x, y, z'

loop_
  _atom_site_type_symbol
  _atom_site_label
  _atom_site_symmetry_multiplicity
  _atom_site_fract_x
  _atom_site_fract_y
  _atom_site_fract_z
  _atom_site_occupancy
  Cs  Cs1       1.0  0.00000  0.00000  0.00000  1.0000
  Cs  Cs2       1.0  0.75000  0.50000  0.25000  1.0000
  Nd  Nd1       1.0  0.37500  0.75000  0.12500  1.0000
  Nd  Nd2       1.0  0.87500  0.25000  0.62500  1.0000
  Nd  Nd3       1.0  0.37500  0.75000  0.62500  1.0000
  Nd  Nd4       1.0  0.37500  0.25000  0.62500  1.0000
  O   O1        1.0  0.59900  0.19900  0.40000  1.0000
  O   O2        1.0  0.20100  0.80100  0.40000  1.0000
  O   O3        1.0  0.60000  0.80100  0.40100  1.0000
  O   O4        1.0  0.15000  0.30100  0.45100  1.0000
  O   O5        1.0  0.60000  0.19900  0.79900  1.0000
  O   O6        1.0  0.15000  0.69900  0.84900  1.0000
  O   O7        1.0  0.15100  0.30100  0.85000  1.0000
  O   O8        1.0  0.54900  0.69900  0.85000  1.0000
