data_image0
_chemical_formula_structural       Ce2Dy4O8
_chemical_formula_sum              "Ce2 Dy4 O8"
_cell_length_a       6.89732
_cell_length_b       6.89732
_cell_length_c       6.89732
_cell_angle_alpha    119.99
_cell_angle_beta     90.0166
_cell_angle_gamma    119.99

_space_group_name_H-M_alt    "P 1"
_space_group_IT_number       1

loop_
  _space_group_symop_operation_xyz
  'x, y, z'

loop_
  _atom_site_type_symbol
  _atom_site_label
  _atom_site_symmetry_multiplicity
  _atom_site_fract_x
  _atom_site_fract_y
  _atom_site_fract_z
  _atom_site_occupancy
  Ce  Ce1       1.0  0.00000  0.00000  0.00000  1.0000
  Ce  Ce2       1.0  0.75000  0.50000  0.25000  1.0000
  Dy  Dy1       1.0  0.37500  0.75000  0.12500  1.0000
  Dy  Dy2       1.0  0.37500  0.25000  0.62500  1.0000
  Dy  Dy3       1.0  0.37500  0.75000  0.62500  1.0000
  Dy  Dy4       1.0  0.87500  0.25000  0.62500  1.0000
  O   O1        1.0  0.61100  0.22300  0.38900  1.0000
  O   O2        1.0  0.16600  0.77700  0.38900  1.0000
  O   O3        1.0  0.61100  0.77700  0.38900  1.0000
  O   O4        1.0  0.13900  0.27700  0.41600  1.0000
  O   O5        1.0  0.61100  0.22300  0.83400  1.0000
  O   O6        1.0  0.13900  0.72300  0.86100  1.0000
  O   O7        1.0  0.13900  0.27700  0.86100  1.0000
  O   O8        1.0  0.58400  0.72300  0.86100  1.0000
