data_image0
_chemical_formula_structural       Cu2O8Sc4
_chemical_formula_sum              "Cu2 O8 Sc4"
_cell_length_a       6.096
_cell_length_b       6.096
_cell_length_c       6.096
_cell_angle_alpha    117.969
_cell_angle_beta     93.5552
_cell_angle_gamma    117.969

_space_group_name_H-M_alt    "P 1"
_space_group_IT_number       1

loop_
  _space_group_symop_operation_xyz
  'x, y, z'

loop_
  _atom_site_type_symbol
  _atom_site_label
  _atom_site_symmetry_multiplicity
  _atom_site_fract_x
  _atom_site_fract_y
  _atom_site_fract_z
  _atom_site_occupancy
  Cu  Cu1       1.0  0.00000  0.00000  0.00000  1.0000
  Cu  Cu2       1.0  0.75000  0.50000  0.25000  1.0000
  O   O1        1.0  0.14800  0.77400  0.37400  1.0000
  O   O2        1.0  0.60000  0.22600  0.37400  1.0000
  O   O3        1.0  0.12400  0.27400  0.39800  1.0000
  O   O4        1.0  0.62600  0.77400  0.40000  1.0000
  O   O5        1.0  0.12400  0.72600  0.85000  1.0000
  O   O6        1.0  0.62600  0.22600  0.85200  1.0000
  O   O7        1.0  0.15000  0.27400  0.87600  1.0000
  O   O8        1.0  0.60200  0.72600  0.87600  1.0000
  Sc  Sc1       1.0  0.37500  0.75000  0.12500  1.0000
  Sc  Sc2       1.0  0.87500  0.25000  0.62500  1.0000
  Sc  Sc3       1.0  0.37500  0.25000  0.62500  1.0000
  Sc  Sc4       1.0  0.37500  0.75000  0.62500  1.0000
