data_image0
_chemical_formula_structural       Fe2Ga4O8
_chemical_formula_sum              "Fe2 Ga4 O8"
_cell_length_a       5.94129
_cell_length_b       5.94129
_cell_length_c       5.94129
_cell_angle_alpha    119.119
_cell_angle_beta     91.5334
_cell_angle_gamma    119.119

_space_group_name_H-M_alt    "P 1"
_space_group_IT_number       1

loop_
  _space_group_symop_operation_xyz
  'x, y, z'

loop_
  _atom_site_type_symbol
  _atom_site_label
  _atom_site_symmetry_multiplicity
  _atom_site_fract_x
  _atom_site_fract_y
  _atom_site_fract_z
  _atom_site_occupancy
  Fe  Fe1       1.0  0.00000  0.00000  0.00000  1.0000
  Fe  Fe2       1.0  0.75000  0.50000  0.25000  1.0000
  Ga  Ga1       1.0  0.37500  0.75000  0.12500  1.0000
  Ga  Ga2       1.0  0.37500  0.25000  0.62500  1.0000
  Ga  Ga3       1.0  0.87500  0.25000  0.62500  1.0000
  Ga  Ga4       1.0  0.37500  0.75000  0.62500  1.0000
  O   O1        1.0  0.60700  0.22300  0.38500  1.0000
  O   O2        1.0  0.16200  0.77700  0.38500  1.0000
  O   O3        1.0  0.61500  0.77700  0.39300  1.0000
  O   O4        1.0  0.13500  0.27700  0.41200  1.0000
  O   O5        1.0  0.61500  0.22300  0.83800  1.0000
  O   O6        1.0  0.13500  0.72300  0.85700  1.0000
  O   O7        1.0  0.14300  0.27700  0.86500  1.0000
  O   O8        1.0  0.58800  0.72300  0.86500  1.0000
