data_image0
_chemical_formula_structural       Ce2La4O8
_chemical_formula_sum              "Ce2 La4 O8"
_cell_length_a       7.20405
_cell_length_b       7.20405
_cell_length_c       7.20405
_cell_angle_alpha    119.99
_cell_angle_beta     90.0165
_cell_angle_gamma    119.99

_space_group_name_H-M_alt    "P 1"
_space_group_IT_number       1

loop_
  _space_group_symop_operation_xyz
  'x, y, z'

loop_
  _atom_site_type_symbol
  _atom_site_label
  _atom_site_symmetry_multiplicity
  _atom_site_fract_x
  _atom_site_fract_y
  _atom_site_fract_z
  _atom_site_occupancy
  Ce  Ce1       1.0  0.00000  0.00000  0.00000  1.0000
  Ce  Ce2       1.0  0.75000  0.50000  0.25000  1.0000
  La  La1       1.0  0.37500  0.75000  0.12500  1.0000
  La  La2       1.0  0.37500  0.25000  0.62500  1.0000
  La  La3       1.0  0.37500  0.75000  0.62500  1.0000
  La  La4       1.0  0.87500  0.25000  0.62500  1.0000
  O   O1        1.0  0.61800  0.23600  0.38200  1.0000
  O   O2        1.0  0.14600  0.76400  0.38200  1.0000
  O   O3        1.0  0.61800  0.76400  0.38200  1.0000
  O   O4        1.0  0.13200  0.26400  0.39600  1.0000
  O   O5        1.0  0.61800  0.23600  0.85400  1.0000
  O   O6        1.0  0.13200  0.73600  0.86800  1.0000
  O   O7        1.0  0.13200  0.26400  0.86800  1.0000
  O   O8        1.0  0.60400  0.73600  0.86800  1.0000
