data_image0
_chemical_formula_structural       Ga2O8Sr4
_chemical_formula_sum              "Ga2 O8 Sr4"
_cell_length_a       6.75445
_cell_length_b       6.75445
_cell_length_c       6.75445
_cell_angle_alpha    119.997
_cell_angle_beta     90.0058
_cell_angle_gamma    119.997

_space_group_name_H-M_alt    "P 1"
_space_group_IT_number       1

loop_
  _space_group_symop_operation_xyz
  'x, y, z'

loop_
  _atom_site_type_symbol
  _atom_site_label
  _atom_site_symmetry_multiplicity
  _atom_site_fract_x
  _atom_site_fract_y
  _atom_site_fract_z
  _atom_site_occupancy
  Ga  Ga1       1.0  0.00000  0.00000  0.00000  1.0000
  Ga  Ga2       1.0  0.75000  0.50000  0.25000  1.0000
  O   O1        1.0  0.11500  0.23000  0.34500  1.0000
  O   O2        1.0  0.09530  0.73000  0.36500  1.0000
  O   O3        1.0  0.63500  0.27000  0.36500  1.0000
  O   O4        1.0  0.63500  0.73000  0.36500  1.0000
  O   O5        1.0  0.11500  0.77000  0.88500  1.0000
  O   O6        1.0  0.65500  0.77000  0.88500  1.0000
  O   O7        1.0  0.11500  0.23000  0.88500  1.0000
  O   O8        1.0  0.63500  0.27000  0.90500  1.0000
  Sr  Sr1       1.0  0.37500  0.75000  0.12500  1.0000
  Sr  Sr2       1.0  0.37500  0.25000  0.62500  1.0000
  Sr  Sr3       1.0  0.87500  0.25000  0.62500  1.0000
  Sr  Sr4       1.0  0.37500  0.75000  0.62500  1.0000
