data_image0
_chemical_formula_structural       Fe2O8Os4
_chemical_formula_sum              "Fe2 O8 Os4"
_cell_length_a       6.22566
_cell_length_b       6.22566
_cell_length_c       6.22566
_cell_angle_alpha    124.915
_cell_angle_beta     81.6792
_cell_angle_gamma    124.915

_space_group_name_H-M_alt    "P 1"
_space_group_IT_number       1

loop_
  _space_group_symop_operation_xyz
  'x, y, z'

loop_
  _atom_site_type_symbol
  _atom_site_label
  _atom_site_symmetry_multiplicity
  _atom_site_fract_x
  _atom_site_fract_y
  _atom_site_fract_z
  _atom_site_occupancy
  Fe  Fe1       1.0  0.00000  0.00000  0.00000  1.0000
  Fe  Fe2       1.0  0.75000  0.50000  0.25000  1.0000
  O   O1        1.0  0.59500  0.74100  0.33700  1.0000
  O   O2        1.0  0.15500  0.24100  0.39600  1.0000
  O   O3        1.0  0.14600  0.74100  0.40500  1.0000
  O   O4        1.0  0.66300  0.25900  0.40500  1.0000
  O   O5        1.0  0.08660  0.24100  0.84500  1.0000
  O   O6        1.0  0.60400  0.75900  0.84500  1.0000
  O   O7        1.0  0.59500  0.25900  0.85400  1.0000
  O   O8        1.0  0.15500  0.75900  0.91300  1.0000
  Os  Os1       1.0  0.37500  0.75000  0.12500  1.0000
  Os  Os2       1.0  0.87500  0.25000  0.62500  1.0000
  Os  Os3       1.0  0.37500  0.75000  0.62500  1.0000
  Os  Os4       1.0  0.37500  0.25000  0.62500  1.0000
