data_image0
_chemical_formula_structural       Fe2O8Y4
_chemical_formula_sum              "Fe2 O8 Y4"
_cell_length_a       6.56652
_cell_length_b       6.56652
_cell_length_c       6.56652
_cell_angle_alpha    119.218
_cell_angle_beta     91.3598
_cell_angle_gamma    119.218

_space_group_name_H-M_alt    "P 1"
_space_group_IT_number       1

loop_
  _space_group_symop_operation_xyz
  'x, y, z'

loop_
  _atom_site_type_symbol
  _atom_site_label
  _atom_site_symmetry_multiplicity
  _atom_site_fract_x
  _atom_site_fract_y
  _atom_site_fract_z
  _atom_site_occupancy
  Fe  Fe1       1.0  0.00000  0.00000  0.00000  1.0000
  Fe  Fe2       1.0  0.75000  0.50000  0.25000  1.0000
  O   O1        1.0  0.61200  0.23400  0.37700  1.0000
  O   O2        1.0  0.14300  0.76600  0.37700  1.0000
  O   O3        1.0  0.62300  0.76600  0.38800  1.0000
  O   O4        1.0  0.12700  0.26600  0.39300  1.0000
  O   O5        1.0  0.62300  0.23400  0.85700  1.0000
  O   O6        1.0  0.12700  0.73400  0.86200  1.0000
  O   O7        1.0  0.60700  0.73400  0.87300  1.0000
  O   O8        1.0  0.13800  0.26600  0.87300  1.0000
  Y   Y1        1.0  0.37500  0.75000  0.12500  1.0000
  Y   Y2        1.0  0.87500  0.25000  0.62500  1.0000
  Y   Y3        1.0  0.37500  0.25000  0.62500  1.0000
  Y   Y4        1.0  0.37500  0.75000  0.62500  1.0000
