data_image0
_chemical_formula_structural       Ho2O8V4
_chemical_formula_sum              "Ho2 O8 V4"
_cell_length_a       6.3517
_cell_length_b       6.3517
_cell_length_c       6.3517
_cell_angle_alpha    122.262
_cell_angle_beta     86.1241
_cell_angle_gamma    122.262

_space_group_name_H-M_alt    "P 1"
_space_group_IT_number       1

loop_
  _space_group_symop_operation_xyz
  'x, y, z'

loop_
  _atom_site_type_symbol
  _atom_site_label
  _atom_site_symmetry_multiplicity
  _atom_site_fract_x
  _atom_site_fract_y
  _atom_site_fract_z
  _atom_site_occupancy
  Ho  Ho1       1.0  0.00000  0.00000  0.00000  1.0000
  Ho  Ho2       1.0  0.75000  0.50000  0.25000  1.0000
  O   O1        1.0  0.60500  0.76700  0.37200  1.0000
  O   O2        1.0  0.62800  0.23300  0.39500  1.0000
  O   O3        1.0  0.16200  0.76700  0.39500  1.0000
  O   O4        1.0  0.14500  0.26700  0.41200  1.0000
  O   O5        1.0  0.60500  0.23300  0.83800  1.0000
  O   O6        1.0  0.12200  0.26700  0.85500  1.0000
  O   O7        1.0  0.58800  0.73300  0.85500  1.0000
  O   O8        1.0  0.14500  0.73300  0.87800  1.0000
  V   V1        1.0  0.37500  0.75000  0.12500  1.0000
  V   V2        1.0  0.37500  0.25000  0.62500  1.0000
  V   V3        1.0  0.37500  0.75000  0.62500  1.0000
  V   V4        1.0  0.87500  0.25000  0.62500  1.0000
