data_image0
_chemical_formula_structural       Hg2Nd4O8
_chemical_formula_sum              "Hg2 Nd4 O8"
_cell_length_a       3.78895
_cell_length_b       7.20691
_cell_length_c       9.10883
_cell_angle_alpha    96.2658
_cell_angle_beta     102.004
_cell_angle_gamma    105.24

_space_group_name_H-M_alt    "P 1"
_space_group_IT_number       1

loop_
  _space_group_symop_operation_xyz
  'x, y, z'

loop_
  _atom_site_type_symbol
  _atom_site_label
  _atom_site_symmetry_multiplicity
  _atom_site_fract_x
  _atom_site_fract_y
  _atom_site_fract_z
  _atom_site_occupancy
  Hg  Hg1       1.0  0.04690  0.93400  0.16000  1.0000
  Hg  Hg2       1.0  0.95300  0.06630  0.84000  1.0000
  Nd  Nd1       1.0  0.36100  0.52100  0.20000  1.0000
  Nd  Nd2       1.0  0.83900  0.22000  0.45900  1.0000
  Nd  Nd3       1.0  0.16100  0.78000  0.54100  1.0000
  Nd  Nd4       1.0  0.63900  0.47900  0.80000  1.0000
  O   O1        1.0  0.85400  0.65300  0.05570  1.0000
  O   O2        1.0  0.24300  0.20800  0.27900  1.0000
  O   O3        1.0  0.92800  0.50900  0.34700  1.0000
  O   O4        1.0  0.61800  0.84900  0.38600  1.0000
  O   O5        1.0  0.38200  0.15100  0.61400  1.0000
  O   O6        1.0  0.07200  0.49100  0.65300  1.0000
  O   O7        1.0  0.75700  0.79200  0.72100  1.0000
  O   O8        1.0  0.14600  0.34700  0.94400  1.0000
