data_image0
_chemical_formula_structural       Gd2O8Te4
_chemical_formula_sum              "Gd2 O8 Te4"
_cell_length_a       7.24078
_cell_length_b       7.24078
_cell_length_c       7.24078
_cell_angle_alpha    126.859
_cell_angle_beta     78.4808
_cell_angle_gamma    126.859

_space_group_name_H-M_alt    "P 1"
_space_group_IT_number       1

loop_
  _space_group_symop_operation_xyz
  'x, y, z'

loop_
  _atom_site_type_symbol
  _atom_site_label
  _atom_site_symmetry_multiplicity
  _atom_site_fract_x
  _atom_site_fract_y
  _atom_site_fract_z
  _atom_site_occupancy
  Gd  Gd1       1.0  0.00000  0.00000  0.00000  1.0000
  Gd  Gd2       1.0  0.75000  0.50000  0.25000  1.0000
  O   O1        1.0  0.59900  0.23200  0.36700  1.0000
  O   O2        1.0  0.13400  0.76800  0.36700  1.0000
  O   O3        1.0  0.11700  0.26800  0.38400  1.0000
  O   O4        1.0  0.63300  0.76800  0.40100  1.0000
  O   O5        1.0  0.11700  0.73200  0.84900  1.0000
  O   O6        1.0  0.63300  0.23200  0.86600  1.0000
  O   O7        1.0  0.15100  0.26800  0.88300  1.0000
  O   O8        1.0  0.61600  0.73200  0.88300  1.0000
  Te  Te1       1.0  0.37500  0.75000  0.12500  1.0000
  Te  Te2       1.0  0.37500  0.75000  0.62500  1.0000
  Te  Te3       1.0  0.37500  0.25000  0.62500  1.0000
  Te  Te4       1.0  0.87500  0.25000  0.62500  1.0000
