data_image0
_chemical_formula_structural       Cu2Ho4O8
_chemical_formula_sum              "Cu2 Ho4 O8"
_cell_length_a       6.54581
_cell_length_b       6.54581
_cell_length_c       6.54581
_cell_angle_alpha    120.729
_cell_angle_beta     88.7422
_cell_angle_gamma    120.729

_space_group_name_H-M_alt    "P 1"
_space_group_IT_number       1

loop_
  _space_group_symop_operation_xyz
  'x, y, z'

loop_
  _atom_site_type_symbol
  _atom_site_label
  _atom_site_symmetry_multiplicity
  _atom_site_fract_x
  _atom_site_fract_y
  _atom_site_fract_z
  _atom_site_occupancy
  Cu  Cu1       1.0  0.00000  0.00000  0.00000  1.0000
  Cu  Cu2       1.0  0.75000  0.50000  0.25000  1.0000
  Ho  Ho1       1.0  0.37500  0.75000  0.12500  1.0000
  Ho  Ho2       1.0  0.87500  0.25000  0.62500  1.0000
  Ho  Ho3       1.0  0.37500  0.75000  0.62500  1.0000
  Ho  Ho4       1.0  0.37500  0.25000  0.62500  1.0000
  O   O1        1.0  0.61700  0.75900  0.37500  1.0000
  O   O2        1.0  0.14200  0.75900  0.38300  1.0000
  O   O3        1.0  0.62500  0.24100  0.38300  1.0000
  O   O4        1.0  0.13300  0.25900  0.39200  1.0000
  O   O5        1.0  0.61700  0.24100  0.85800  1.0000
  O   O6        1.0  0.12500  0.25900  0.86700  1.0000
  O   O7        1.0  0.60800  0.74100  0.86700  1.0000
  O   O8        1.0  0.13300  0.74100  0.87500  1.0000
