data_image0
_chemical_formula_structural       Hf2O8Pr4
_chemical_formula_sum              "Hf2 O8 Pr4"
_cell_length_a       6.87761
_cell_length_b       6.87761
_cell_length_c       6.87761
_cell_angle_alpha    119.992
_cell_angle_beta     90.0137
_cell_angle_gamma    119.992

_space_group_name_H-M_alt    "P 1"
_space_group_IT_number       1

loop_
  _space_group_symop_operation_xyz
  'x, y, z'

loop_
  _atom_site_type_symbol
  _atom_site_label
  _atom_site_symmetry_multiplicity
  _atom_site_fract_x
  _atom_site_fract_y
  _atom_site_fract_z
  _atom_site_occupancy
  Hf  Hf1       1.0  0.00000  0.00000  0.00000  1.0000
  Hf  Hf2       1.0  0.75000  0.50000  0.25000  1.0000
  O   O1        1.0  0.11700  0.23300  0.35000  1.0000
  O   O2        1.0  0.10000  0.73300  0.36700  1.0000
  O   O3        1.0  0.63300  0.26700  0.36700  1.0000
  O   O4        1.0  0.63300  0.73300  0.36700  1.0000
  O   O5        1.0  0.11700  0.76700  0.88300  1.0000
  O   O6        1.0  0.11700  0.23300  0.88300  1.0000
  O   O7        1.0  0.65000  0.76700  0.88300  1.0000
  O   O8        1.0  0.63300  0.26700  0.90000  1.0000
  Pr  Pr1       1.0  0.37500  0.75000  0.12500  1.0000
  Pr  Pr2       1.0  0.37500  0.25000  0.62500  1.0000
  Pr  Pr3       1.0  0.37500  0.75000  0.62500  1.0000
  Pr  Pr4       1.0  0.87500  0.25000  0.62500  1.0000
