data_image0
_chemical_formula_structural       CuIn2O4
_chemical_formula_sum              "Cu1 In2 O4"
_cell_length_a       3.75957
_cell_length_b       3.75957
_cell_length_c       6.11273
_cell_angle_alpha    107.91
_cell_angle_beta     107.91
_cell_angle_gamma    90

_space_group_name_H-M_alt    "P 1"
_space_group_IT_number       1

loop_
  _space_group_symop_operation_xyz
  'x, y, z'

loop_
  _atom_site_type_symbol
  _atom_site_label
  _atom_site_symmetry_multiplicity
  _atom_site_fract_x
  _atom_site_fract_y
  _atom_site_fract_z
  _atom_site_occupancy
  Cu  Cu1       1.0  0.00000  0.00000  0.00000  1.0000
  In  In1       1.0  0.65500  0.65500  0.31000  1.0000
  In  In2       1.0  0.34500  0.34500  0.69000  1.0000
  O   O1        1.0  0.50000  0.00000  0.00000  1.0000
  O   O2        1.0  0.00000  0.50000  0.00000  1.0000
  O   O3        1.0  0.75000  0.25000  0.50000  1.0000
  O   O4        1.0  0.25000  0.75000  0.50000  1.0000
