data_image0
_chemical_formula_structural       K2Mn4O8
_chemical_formula_sum              "K2 Mn4 O8"
_cell_length_a       6.43728
_cell_length_b       6.43728
_cell_length_c       6.43728
_cell_angle_alpha    122.78
_cell_angle_beta     85.2495
_cell_angle_gamma    122.78

_space_group_name_H-M_alt    "P 1"
_space_group_IT_number       1

loop_
  _space_group_symop_operation_xyz
  'x, y, z'

loop_
  _atom_site_type_symbol
  _atom_site_label
  _atom_site_symmetry_multiplicity
  _atom_site_fract_x
  _atom_site_fract_y
  _atom_site_fract_z
  _atom_site_occupancy
  K   K1        1.0  0.00000  0.00000  0.00000  1.0000
  K   K2        1.0  0.75000  0.50000  0.25000  1.0000
  Mn  Mn1       1.0  0.37500  0.75000  0.12500  1.0000
  Mn  Mn2       1.0  0.37500  0.75000  0.62500  1.0000
  Mn  Mn3       1.0  0.37500  0.25000  0.62500  1.0000
  Mn  Mn4       1.0  0.87500  0.25000  0.62500  1.0000
  O   O1        1.0  0.59900  0.80000  0.39900  1.0000
  O   O2        1.0  0.60100  0.20000  0.40100  1.0000
  O   O3        1.0  0.20200  0.80000  0.40100  1.0000
  O   O4        1.0  0.15100  0.30000  0.45200  1.0000
  O   O5        1.0  0.59900  0.20000  0.79800  1.0000
  O   O6        1.0  0.14900  0.30000  0.84900  1.0000
  O   O7        1.0  0.54800  0.70000  0.84900  1.0000
  O   O8        1.0  0.15100  0.70000  0.85100  1.0000
