data_image0
_chemical_formula_structural       Ho2O8Zr4
_chemical_formula_sum              "Ho2 O8 Zr4"
_cell_length_a       6.5343
_cell_length_b       6.5343
_cell_length_c       6.5343
_cell_angle_alpha    119.991
_cell_angle_beta     90.0154
_cell_angle_gamma    119.991

_space_group_name_H-M_alt    "P 1"
_space_group_IT_number       1

loop_
  _space_group_symop_operation_xyz
  'x, y, z'

loop_
  _atom_site_type_symbol
  _atom_site_label
  _atom_site_symmetry_multiplicity
  _atom_site_fract_x
  _atom_site_fract_y
  _atom_site_fract_z
  _atom_site_occupancy
  Ho  Ho1       1.0  0.00000  0.00000  0.00000  1.0000
  Ho  Ho2       1.0  0.75000  0.50000  0.25000  1.0000
  O   O1        1.0  0.61800  0.23600  0.38200  1.0000
  O   O2        1.0  0.14500  0.76400  0.38200  1.0000
  O   O3        1.0  0.61800  0.76400  0.38200  1.0000
  O   O4        1.0  0.13200  0.26400  0.39500  1.0000
  O   O5        1.0  0.61800  0.23600  0.85500  1.0000
  O   O6        1.0  0.13200  0.73600  0.86800  1.0000
  O   O7        1.0  0.13200  0.26400  0.86800  1.0000
  O   O8        1.0  0.60500  0.73600  0.86800  1.0000
  Zr  Zr1       1.0  0.37500  0.75000  0.12500  1.0000
  Zr  Zr2       1.0  0.37500  0.25000  0.62500  1.0000
  Zr  Zr3       1.0  0.37500  0.75000  0.62500  1.0000
  Zr  Zr4       1.0  0.87500  0.25000  0.62500  1.0000
