data_image0
_chemical_formula_structural       Hg2O8V4
_chemical_formula_sum              "Hg2 O8 V4"
_cell_length_a       6.31401
_cell_length_b       6.31401
_cell_length_c       6.31401
_cell_angle_alpha    121.316
_cell_angle_beta     87.7354
_cell_angle_gamma    121.316

_space_group_name_H-M_alt    "P 1"
_space_group_IT_number       1

loop_
  _space_group_symop_operation_xyz
  'x, y, z'

loop_
  _atom_site_type_symbol
  _atom_site_label
  _atom_site_symmetry_multiplicity
  _atom_site_fract_x
  _atom_site_fract_y
  _atom_site_fract_z
  _atom_site_occupancy
  Hg  Hg1       1.0  0.00000  0.00000  0.00000  1.0000
  Hg  Hg2       1.0  0.75000  0.50000  0.25000  1.0000
  O   O1        1.0  0.60400  0.78800  0.39300  1.0000
  O   O2        1.0  0.18400  0.78800  0.39600  1.0000
  O   O3        1.0  0.60700  0.21200  0.39600  1.0000
  O   O4        1.0  0.14600  0.28800  0.43400  1.0000
  O   O5        1.0  0.60400  0.21200  0.81600  1.0000
  O   O6        1.0  0.14300  0.28800  0.85400  1.0000
  O   O7        1.0  0.56600  0.71200  0.85400  1.0000
  O   O8        1.0  0.14600  0.71200  0.85700  1.0000
  V   V1        1.0  0.37500  0.75000  0.12500  1.0000
  V   V2        1.0  0.37500  0.75000  0.62500  1.0000
  V   V3        1.0  0.37500  0.25000  0.62500  1.0000
  V   V4        1.0  0.87500  0.25000  0.62500  1.0000
