data_image0
_chemical_formula_structural       Ga2O8Sm4
_chemical_formula_sum              "Ga2 O8 Sm4"
_cell_length_a       6.60199
_cell_length_b       6.60199
_cell_length_c       6.60199
_cell_angle_alpha    119.999
_cell_angle_beta     90.002
_cell_angle_gamma    119.999

_space_group_name_H-M_alt    "P 1"
_space_group_IT_number       1

loop_
  _space_group_symop_operation_xyz
  'x, y, z'

loop_
  _atom_site_type_symbol
  _atom_site_label
  _atom_site_symmetry_multiplicity
  _atom_site_fract_x
  _atom_site_fract_y
  _atom_site_fract_z
  _atom_site_occupancy
  Ga  Ga1       1.0  0.00000  0.00000  0.00000  1.0000
  Ga  Ga2       1.0  0.75000  0.50000  0.25000  1.0000
  O   O1        1.0  0.11800  0.23500  0.35300  1.0000
  O   O2        1.0  0.63200  0.73500  0.36800  1.0000
  O   O3        1.0  0.10300  0.73500  0.36800  1.0000
  O   O4        1.0  0.63200  0.26500  0.36800  1.0000
  O   O5        1.0  0.11800  0.23500  0.88200  1.0000
  O   O6        1.0  0.64700  0.76500  0.88200  1.0000
  O   O7        1.0  0.11800  0.76500  0.88200  1.0000
  O   O8        1.0  0.63200  0.26500  0.89700  1.0000
  Sm  Sm1       1.0  0.37500  0.75000  0.12500  1.0000
  Sm  Sm2       1.0  0.87500  0.25000  0.62500  1.0000
  Sm  Sm3       1.0  0.37500  0.75000  0.62500  1.0000
  Sm  Sm4       1.0  0.37500  0.25000  0.62500  1.0000
