data_image0
_chemical_formula_structural       Cu2Lu4O8
_chemical_formula_sum              "Cu2 Lu4 O8"
_cell_length_a       6.4233
_cell_length_b       6.4233
_cell_length_c       6.4233
_cell_angle_alpha    120.522
_cell_angle_beta     89.0978
_cell_angle_gamma    120.522

_space_group_name_H-M_alt    "P 1"
_space_group_IT_number       1

loop_
  _space_group_symop_operation_xyz
  'x, y, z'

loop_
  _atom_site_type_symbol
  _atom_site_label
  _atom_site_symmetry_multiplicity
  _atom_site_fract_x
  _atom_site_fract_y
  _atom_site_fract_z
  _atom_site_occupancy
  Cu  Cu1       1.0  0.00000  0.00000  0.00000  1.0000
  Cu  Cu2       1.0  0.75000  0.50000  0.25000  1.0000
  Lu  Lu1       1.0  0.37500  0.75000  0.12500  1.0000
  Lu  Lu2       1.0  0.87500  0.25000  0.62500  1.0000
  Lu  Lu3       1.0  0.37500  0.25000  0.62500  1.0000
  Lu  Lu4       1.0  0.37500  0.75000  0.62500  1.0000
  O   O1        1.0  0.61600  0.76300  0.37900  1.0000
  O   O2        1.0  0.62100  0.23700  0.38400  1.0000
  O   O3        1.0  0.14700  0.76300  0.38400  1.0000
  O   O4        1.0  0.13400  0.26300  0.39700  1.0000
  O   O5        1.0  0.61600  0.23700  0.85300  1.0000
  O   O6        1.0  0.12900  0.26300  0.86600  1.0000
  O   O7        1.0  0.60300  0.73700  0.86600  1.0000
  O   O8        1.0  0.13400  0.73700  0.87100  1.0000
