data_image0
_chemical_formula_structural       La2O8Te4
_chemical_formula_sum              "La2 O8 Te4"
_cell_length_a       7.07479
_cell_length_b       7.07479
_cell_length_c       7.07479
_cell_angle_alpha    120.086
_cell_angle_beta     89.8519
_cell_angle_gamma    120.086

_space_group_name_H-M_alt    "P 1"
_space_group_IT_number       1

loop_
  _space_group_symop_operation_xyz
  'x, y, z'

loop_
  _atom_site_type_symbol
  _atom_site_label
  _atom_site_symmetry_multiplicity
  _atom_site_fract_x
  _atom_site_fract_y
  _atom_site_fract_z
  _atom_site_occupancy
  La  La1       1.0  0.00000  0.00000  0.00000  1.0000
  La  La2       1.0  0.75000  0.50000  0.25000  1.0000
  O   O1        1.0  0.61100  0.22300  0.38800  1.0000
  O   O2        1.0  0.16600  0.77700  0.38800  1.0000
  O   O3        1.0  0.61200  0.77700  0.38900  1.0000
  O   O4        1.0  0.13800  0.27700  0.41600  1.0000
  O   O5        1.0  0.61200  0.22300  0.83400  1.0000
  O   O6        1.0  0.13800  0.72300  0.86100  1.0000
  O   O7        1.0  0.13900  0.27700  0.86200  1.0000
  O   O8        1.0  0.58400  0.72300  0.86200  1.0000
  Te  Te1       1.0  0.37500  0.75000  0.12500  1.0000
  Te  Te2       1.0  0.37500  0.25000  0.62500  1.0000
  Te  Te3       1.0  0.87500  0.25000  0.62500  1.0000
  Te  Te4       1.0  0.37500  0.75000  0.62500  1.0000
