data_image0
_chemical_formula_structural       O8Os2Sb4
_chemical_formula_sum              "O8 Os2 Sb4"
_cell_length_a       6.79306
_cell_length_b       6.79306
_cell_length_c       6.79306
_cell_angle_alpha    119.98
_cell_angle_beta     90.034
_cell_angle_gamma    119.98

_space_group_name_H-M_alt    "P 1"
_space_group_IT_number       1

loop_
  _space_group_symop_operation_xyz
  'x, y, z'

loop_
  _atom_site_type_symbol
  _atom_site_label
  _atom_site_symmetry_multiplicity
  _atom_site_fract_x
  _atom_site_fract_y
  _atom_site_fract_z
  _atom_site_occupancy
  O   O1        1.0  0.11300  0.22500  0.33800  1.0000
  O   O2        1.0  0.63700  0.72500  0.36300  1.0000
  O   O3        1.0  0.63700  0.27500  0.36300  1.0000
  O   O4        1.0  0.08770  0.72500  0.36300  1.0000
  O   O5        1.0  0.66200  0.77500  0.88700  1.0000
  O   O6        1.0  0.11300  0.22500  0.88700  1.0000
  O   O7        1.0  0.11300  0.77500  0.88700  1.0000
  O   O8        1.0  0.63700  0.27500  0.91200  1.0000
  Os  Os1       1.0  0.00000  0.00000  0.00000  1.0000
  Os  Os2       1.0  0.75000  0.50000  0.25000  1.0000
  Sb  Sb1       1.0  0.37500  0.75000  0.12500  1.0000
  Sb  Sb2       1.0  0.37500  0.25000  0.62500  1.0000
  Sb  Sb3       1.0  0.87500  0.25000  0.62500  1.0000
  Sb  Sb4       1.0  0.37500  0.75000  0.62500  1.0000
