data_image0
_chemical_formula_structural       Mo2O8Tl4
_chemical_formula_sum              "Mo2 O8 Tl4"
_cell_length_a       6.18631
_cell_length_b       6.1861
_cell_length_c       8.17352
_cell_angle_alpha    90
_cell_angle_beta     90
_cell_angle_gamma    119.999

_space_group_name_H-M_alt    "P 1"
_space_group_IT_number       1

loop_
  _space_group_symop_operation_xyz
  'x, y, z'

loop_
  _atom_site_type_symbol
  _atom_site_label
  _atom_site_symmetry_multiplicity
  _atom_site_fract_x
  _atom_site_fract_y
  _atom_site_fract_z
  _atom_site_occupancy
  Mo  Mo1       1.0  0.33300  0.66700  0.31700  1.0000
  Mo  Mo2       1.0  0.66700  0.33300  0.68300  1.0000
  O   O1        1.0  0.64700  0.82300  0.24000  1.0000
  O   O2        1.0  0.17700  0.35300  0.24000  1.0000
  O   O3        1.0  0.17700  0.82300  0.24000  1.0000
  O   O4        1.0  0.66700  0.33300  0.46400  1.0000
  O   O5        1.0  0.33300  0.66700  0.53600  1.0000
  O   O6        1.0  0.82300  0.17700  0.76000  1.0000
  O   O7        1.0  0.82300  0.64700  0.76000  1.0000
  O   O8        1.0  0.35300  0.17700  0.76000  1.0000
  Tl  Tl1       1.0  0.00000  0.00000  0.00000  1.0000
  Tl  Tl2       1.0  0.66700  0.33300  0.16900  1.0000
  Tl  Tl3       1.0  0.00000  0.00000  0.50000  1.0000
  Tl  Tl4       1.0  0.33300  0.66700  0.83100  1.0000
