data_image0
_chemical_formula_structural       O8Pm2V4
_chemical_formula_sum              "O8 Pm2 V4"
_cell_length_a       6.46298
_cell_length_b       6.46298
_cell_length_c       6.46298
_cell_angle_alpha    123.081
_cell_angle_beta     84.7409
_cell_angle_gamma    123.081

_space_group_name_H-M_alt    "P 1"
_space_group_IT_number       1

loop_
  _space_group_symop_operation_xyz
  'x, y, z'

loop_
  _atom_site_type_symbol
  _atom_site_label
  _atom_site_symmetry_multiplicity
  _atom_site_fract_x
  _atom_site_fract_y
  _atom_site_fract_z
  _atom_site_occupancy
  O   O1        1.0  0.59900  0.77000  0.36900  1.0000
  O   O2        1.0  0.63100  0.23000  0.40100  1.0000
  O   O3        1.0  0.17100  0.77000  0.40100  1.0000
  O   O4        1.0  0.15100  0.27000  0.42100  1.0000
  O   O5        1.0  0.59900  0.23000  0.82900  1.0000
  O   O6        1.0  0.11900  0.27000  0.84900  1.0000
  O   O7        1.0  0.57900  0.73000  0.84900  1.0000
  O   O8        1.0  0.15100  0.73000  0.88100  1.0000
  Pm  Pm1       1.0  0.00000  0.00000  0.00000  1.0000
  Pm  Pm2       1.0  0.75000  0.50000  0.25000  1.0000
  V   V1        1.0  0.37500  0.75000  0.12500  1.0000
  V   V2        1.0  0.87500  0.25000  0.62500  1.0000
  V   V3        1.0  0.37500  0.75000  0.62500  1.0000
  V   V4        1.0  0.37500  0.25000  0.62500  1.0000
