data_image0
_chemical_formula_structural       Ni2O8Sc4
_chemical_formula_sum              "Ni2 O8 Sc4"
_cell_length_a       6.19445
_cell_length_b       6.19445
_cell_length_c       6.19445
_cell_angle_alpha    121.193
_cell_angle_beta     87.9457
_cell_angle_gamma    121.193

_space_group_name_H-M_alt    "P 1"
_space_group_IT_number       1

loop_
  _space_group_symop_operation_xyz
  'x, y, z'

loop_
  _atom_site_type_symbol
  _atom_site_label
  _atom_site_symmetry_multiplicity
  _atom_site_fract_x
  _atom_site_fract_y
  _atom_site_fract_z
  _atom_site_occupancy
  Ni  Ni1       1.0  0.00000  0.00000  0.00000  1.0000
  Ni  Ni2       1.0  0.75000  0.50000  0.25000  1.0000
  O   O1        1.0  0.61200  0.76000  0.37200  1.0000
  O   O2        1.0  0.14800  0.76000  0.38800  1.0000
  O   O3        1.0  0.62800  0.24000  0.38800  1.0000
  O   O4        1.0  0.13800  0.26000  0.39800  1.0000
  O   O5        1.0  0.61200  0.24000  0.85200  1.0000
  O   O6        1.0  0.12200  0.26000  0.86200  1.0000
  O   O7        1.0  0.60200  0.74000  0.86200  1.0000
  O   O8        1.0  0.13800  0.74000  0.87800  1.0000
  Sc  Sc1       1.0  0.37500  0.75000  0.12500  1.0000
  Sc  Sc2       1.0  0.37500  0.75000  0.62500  1.0000
  Sc  Sc3       1.0  0.87500  0.25000  0.62500  1.0000
  Sc  Sc4       1.0  0.37500  0.25000  0.62500  1.0000
