data_image0
_chemical_formula_structural       Ge2O8V4
_chemical_formula_sum              "Ge2 O8 V4"
_cell_length_a       6.15507
_cell_length_b       6.15507
_cell_length_c       6.15507
_cell_angle_alpha    119.323
_cell_angle_beta     91.1766
_cell_angle_gamma    119.323

_space_group_name_H-M_alt    "P 1"
_space_group_IT_number       1

loop_
  _space_group_symop_operation_xyz
  'x, y, z'

loop_
  _atom_site_type_symbol
  _atom_site_label
  _atom_site_symmetry_multiplicity
  _atom_site_fract_x
  _atom_site_fract_y
  _atom_site_fract_z
  _atom_site_occupancy
  Ge  Ge1       1.0  0.00000  0.00000  0.00000  1.0000
  Ge  Ge2       1.0  0.75000  0.50000  0.25000  1.0000
  O   O1        1.0  0.16600  0.77800  0.38800  1.0000
  O   O2        1.0  0.61000  0.22200  0.38800  1.0000
  O   O3        1.0  0.61200  0.77800  0.39000  1.0000
  O   O4        1.0  0.13800  0.27800  0.41600  1.0000
  O   O5        1.0  0.61200  0.22200  0.83400  1.0000
  O   O6        1.0  0.13800  0.72200  0.86000  1.0000
  O   O7        1.0  0.14000  0.27800  0.86200  1.0000
  O   O8        1.0  0.58400  0.72200  0.86200  1.0000
  V   V1        1.0  0.37500  0.75000  0.12500  1.0000
  V   V2        1.0  0.87500  0.25000  0.62500  1.0000
  V   V3        1.0  0.37500  0.25000  0.62500  1.0000
  V   V4        1.0  0.37500  0.75000  0.62500  1.0000
