data_image0
_chemical_formula_structural       Ni2O8W4
_chemical_formula_sum              "Ni2 O8 W4"
_cell_length_a       5.80327
_cell_length_b       5.80327
_cell_length_c       5.80327
_cell_angle_alpha    114.294
_cell_angle_beta     100.205
_cell_angle_gamma    114.294

_space_group_name_H-M_alt    "P 1"
_space_group_IT_number       1

loop_
  _space_group_symop_operation_xyz
  'x, y, z'

loop_
  _atom_site_type_symbol
  _atom_site_label
  _atom_site_symmetry_multiplicity
  _atom_site_fract_x
  _atom_site_fract_y
  _atom_site_fract_z
  _atom_site_occupancy
  Ni  Ni1       1.0  0.00000  0.00000  0.00000  1.0000
  Ni  Ni2       1.0  0.75000  0.50000  0.25000  1.0000
  O   O1        1.0  0.55400  0.21500  0.33900  1.0000
  O   O2        1.0  0.12400  0.78500  0.33900  1.0000
  O   O3        1.0  0.08920  0.28500  0.37400  1.0000
  O   O4        1.0  0.66100  0.78500  0.44600  1.0000
  O   O5        1.0  0.08920  0.71500  0.80400  1.0000
  O   O6        1.0  0.66100  0.21500  0.87600  1.0000
  O   O7        1.0  0.19600  0.28500  0.91100  1.0000
  O   O8        1.0  0.62600  0.71500  0.91100  1.0000
  W   W1        1.0  0.37500  0.75000  0.12500  1.0000
  W   W2        1.0  0.87500  0.25000  0.62500  1.0000
  W   W3        1.0  0.37500  0.75000  0.62500  1.0000
  W   W4        1.0  0.37500  0.25000  0.62500  1.0000
