data_image0
_chemical_formula_structural       O8Si2W4
_chemical_formula_sum              "O8 Si2 W4"
_cell_length_a       5.93761
_cell_length_b       5.93761
_cell_length_c       5.93761
_cell_angle_alpha    119.996
_cell_angle_beta     90.0076
_cell_angle_gamma    119.996

_space_group_name_H-M_alt    "P 1"
_space_group_IT_number       1

loop_
  _space_group_symop_operation_xyz
  'x, y, z'

loop_
  _atom_site_type_symbol
  _atom_site_label
  _atom_site_symmetry_multiplicity
  _atom_site_fract_x
  _atom_site_fract_y
  _atom_site_fract_z
  _atom_site_occupancy
  O   O1        1.0  0.11200  0.22300  0.33500  1.0000
  O   O2        1.0  0.63800  0.27700  0.36200  1.0000
  O   O3        1.0  0.08490  0.72300  0.36200  1.0000
  O   O4        1.0  0.63800  0.72300  0.36200  1.0000
  O   O5        1.0  0.11200  0.77700  0.88800  1.0000
  O   O6        1.0  0.11200  0.22300  0.88800  1.0000
  O   O7        1.0  0.66500  0.77700  0.88800  1.0000
  O   O8        1.0  0.63800  0.27700  0.91500  1.0000
  Si  Si1       1.0  0.00000  0.00000  0.00000  1.0000
  Si  Si2       1.0  0.75000  0.50000  0.25000  1.0000
  W   W1        1.0  0.37500  0.75000  0.12500  1.0000
  W   W2        1.0  0.87500  0.25000  0.62500  1.0000
  W   W3        1.0  0.37500  0.75000  0.62500  1.0000
  W   W4        1.0  0.37500  0.25000  0.62500  1.0000
