data_image0
_chemical_formula_structural       O8Sc2V4
_chemical_formula_sum              "O8 Sc2 V4"
_cell_length_a       6.17448
_cell_length_b       6.17448
_cell_length_c       6.17448
_cell_angle_alpha    121.407
_cell_angle_beta     87.5795
_cell_angle_gamma    121.407

_space_group_name_H-M_alt    "P 1"
_space_group_IT_number       1

loop_
  _space_group_symop_operation_xyz
  'x, y, z'

loop_
  _atom_site_type_symbol
  _atom_site_label
  _atom_site_symmetry_multiplicity
  _atom_site_fract_x
  _atom_site_fract_y
  _atom_site_fract_z
  _atom_site_occupancy
  O   O1        1.0  0.61300  0.76100  0.37500  1.0000
  O   O2        1.0  0.62500  0.23900  0.38700  1.0000
  O   O3        1.0  0.14800  0.76100  0.38700  1.0000
  O   O4        1.0  0.13700  0.26100  0.39800  1.0000
  O   O5        1.0  0.61300  0.23900  0.85200  1.0000
  O   O6        1.0  0.12500  0.26100  0.86300  1.0000
  O   O7        1.0  0.60200  0.73900  0.86300  1.0000
  O   O8        1.0  0.13700  0.73900  0.87500  1.0000
  Sc  Sc1       1.0  0.00000  0.00000  0.00000  1.0000
  Sc  Sc2       1.0  0.75000  0.50000  0.25000  1.0000
  V   V1        1.0  0.37500  0.75000  0.12500  1.0000
  V   V2        1.0  0.37500  0.25000  0.62500  1.0000
  V   V3        1.0  0.87500  0.25000  0.62500  1.0000
  V   V4        1.0  0.37500  0.75000  0.62500  1.0000
