data_image0
_chemical_formula_structural       O8Sc2Sn4
_chemical_formula_sum              "O8 Sc2 Sn4"
_cell_length_a       6.70704
_cell_length_b       6.70704
_cell_length_c       6.70704
_cell_angle_alpha    119.994
_cell_angle_beta     90.0097
_cell_angle_gamma    119.994

_space_group_name_H-M_alt    "P 1"
_space_group_IT_number       1

loop_
  _space_group_symop_operation_xyz
  'x, y, z'

loop_
  _atom_site_type_symbol
  _atom_site_label
  _atom_site_symmetry_multiplicity
  _atom_site_fract_x
  _atom_site_fract_y
  _atom_site_fract_z
  _atom_site_occupancy
  O   O1        1.0  0.12300  0.24600  0.36900  1.0000
  O   O2        1.0  0.62700  0.25400  0.37300  1.0000
  O   O3        1.0  0.11900  0.74600  0.37300  1.0000
  O   O4        1.0  0.62700  0.74600  0.37300  1.0000
  O   O5        1.0  0.12300  0.75400  0.87700  1.0000
  O   O6        1.0  0.12300  0.24600  0.87700  1.0000
  O   O7        1.0  0.63100  0.75400  0.87700  1.0000
  O   O8        1.0  0.62700  0.25400  0.88100  1.0000
  Sc  Sc1       1.0  0.00000  0.00000  0.00000  1.0000
  Sc  Sc2       1.0  0.75000  0.50000  0.25000  1.0000
  Sn  Sn1       1.0  0.37500  0.75000  0.12500  1.0000
  Sn  Sn2       1.0  0.37500  0.75000  0.62500  1.0000
  Sn  Sn3       1.0  0.87500  0.25000  0.62500  1.0000
  Sn  Sn4       1.0  0.37500  0.25000  0.62500  1.0000
