data_image0
_chemical_formula_structural       O8Sb2Ta4
_chemical_formula_sum              "O8 Sb2 Ta4"
_cell_length_a       6.57246
_cell_length_b       6.57246
_cell_length_c       6.57246
_cell_angle_alpha    119.987
_cell_angle_beta     90.0219
_cell_angle_gamma    119.987

_space_group_name_H-M_alt    "P 1"
_space_group_IT_number       1

loop_
  _space_group_symop_operation_xyz
  'x, y, z'

loop_
  _atom_site_type_symbol
  _atom_site_label
  _atom_site_symmetry_multiplicity
  _atom_site_fract_x
  _atom_site_fract_y
  _atom_site_fract_z
  _atom_site_occupancy
  O   O1        1.0  0.59700  0.19400  0.40300  1.0000
  O   O2        1.0  0.20800  0.80600  0.40300  1.0000
  O   O3        1.0  0.59700  0.80600  0.40300  1.0000
  O   O4        1.0  0.15300  0.30600  0.45800  1.0000
  O   O5        1.0  0.59700  0.19400  0.79200  1.0000
  O   O6        1.0  0.15300  0.69400  0.84700  1.0000
  O   O7        1.0  0.54200  0.69400  0.84700  1.0000
  O   O8        1.0  0.15300  0.30600  0.84700  1.0000
  Sb  Sb1       1.0  0.00000  0.00000  0.00000  1.0000
  Sb  Sb2       1.0  0.75000  0.50000  0.25000  1.0000
  Ta  Ta1       1.0  0.37500  0.75000  0.12500  1.0000
  Ta  Ta2       1.0  0.37500  0.25000  0.62500  1.0000
  Ta  Ta3       1.0  0.87500  0.25000  0.62500  1.0000
  Ta  Ta4       1.0  0.37500  0.75000  0.62500  1.0000
