data_image0
_chemical_formula_structural       O8Pr2Te4
_chemical_formula_sum              "O8 Pr2 Te4"
_cell_length_a       7.20264
_cell_length_b       7.20264
_cell_length_c       7.20264
_cell_angle_alpha    124.315
_cell_angle_beta     82.6756
_cell_angle_gamma    124.315

_space_group_name_H-M_alt    "P 1"
_space_group_IT_number       1

loop_
  _space_group_symop_operation_xyz
  'x, y, z'

loop_
  _atom_site_type_symbol
  _atom_site_label
  _atom_site_symmetry_multiplicity
  _atom_site_fract_x
  _atom_site_fract_y
  _atom_site_fract_z
  _atom_site_occupancy
  O   O1        1.0  0.16600  0.78400  0.38200  1.0000
  O   O2        1.0  0.59800  0.21600  0.38200  1.0000
  O   O3        1.0  0.61800  0.78400  0.40200  1.0000
  O   O4        1.0  0.13200  0.28400  0.41600  1.0000
  O   O5        1.0  0.61800  0.21600  0.83400  1.0000
  O   O6        1.0  0.13200  0.71600  0.84800  1.0000
  O   O7        1.0  0.15200  0.28400  0.86800  1.0000
  O   O8        1.0  0.58400  0.71600  0.86800  1.0000
  Pr  Pr1       1.0  0.00000  0.00000  0.00000  1.0000
  Pr  Pr2       1.0  0.75000  0.50000  0.25000  1.0000
  Te  Te1       1.0  0.37500  0.75000  0.12500  1.0000
  Te  Te2       1.0  0.37500  0.75000  0.62500  1.0000
  Te  Te3       1.0  0.37500  0.25000  0.62500  1.0000
  Te  Te4       1.0  0.87500  0.25000  0.62500  1.0000
