data_image0
_chemical_formula_structural       O8Rb2V4
_chemical_formula_sum              "O8 Rb2 V4"
_cell_length_a       6.43099
_cell_length_b       6.43099
_cell_length_c       6.43099
_cell_angle_alpha    119.685
_cell_angle_beta     90.5469
_cell_angle_gamma    119.685

_space_group_name_H-M_alt    "P 1"
_space_group_IT_number       1

loop_
  _space_group_symop_operation_xyz
  'x, y, z'

loop_
  _atom_site_type_symbol
  _atom_site_label
  _atom_site_symmetry_multiplicity
  _atom_site_fract_x
  _atom_site_fract_y
  _atom_site_fract_z
  _atom_site_occupancy
  O   O1        1.0  0.21000  0.80900  0.40100  1.0000
  O   O2        1.0  0.59200  0.19100  0.40100  1.0000
  O   O3        1.0  0.59900  0.80900  0.40800  1.0000
  O   O4        1.0  0.15100  0.30900  0.46000  1.0000
  O   O5        1.0  0.59900  0.19100  0.79000  1.0000
  O   O6        1.0  0.15100  0.69100  0.84200  1.0000
  O   O7        1.0  0.15800  0.30900  0.84900  1.0000
  O   O8        1.0  0.54000  0.69100  0.84900  1.0000
  Rb  Rb1       1.0  0.00000  0.00000  0.00000  1.0000
  Rb  Rb2       1.0  0.75000  0.50000  0.25000  1.0000
  V   V1        1.0  0.37500  0.75000  0.12500  1.0000
  V   V2        1.0  0.37500  0.75000  0.62500  1.0000
  V   V3        1.0  0.37500  0.25000  0.62500  1.0000
  V   V4        1.0  0.87500  0.25000  0.62500  1.0000
