data_image0
_chemical_formula_structural       O8Sb2V4
_chemical_formula_sum              "O8 Sb2 V4"
_cell_length_a       6.36164
_cell_length_b       6.36164
_cell_length_c       6.36164
_cell_angle_alpha    121.69
_cell_angle_beta     87.0963
_cell_angle_gamma    121.69

_space_group_name_H-M_alt    "P 1"
_space_group_IT_number       1

loop_
  _space_group_symop_operation_xyz
  'x, y, z'

loop_
  _atom_site_type_symbol
  _atom_site_label
  _atom_site_symmetry_multiplicity
  _atom_site_fract_x
  _atom_site_fract_y
  _atom_site_fract_z
  _atom_site_occupancy
  O   O1        1.0  0.60500  0.77200  0.37700  1.0000
  O   O2        1.0  0.16700  0.77200  0.39500  1.0000
  O   O3        1.0  0.62300  0.22800  0.39500  1.0000
  O   O4        1.0  0.14500  0.27200  0.41700  1.0000
  O   O5        1.0  0.60500  0.22800  0.83300  1.0000
  O   O6        1.0  0.12700  0.27200  0.85500  1.0000
  O   O7        1.0  0.58300  0.72800  0.85500  1.0000
  O   O8        1.0  0.14500  0.72800  0.87300  1.0000
  Sb  Sb1       1.0  0.00000  0.00000  0.00000  1.0000
  Sb  Sb2       1.0  0.75000  0.50000  0.25000  1.0000
  V   V1        1.0  0.37500  0.75000  0.12500  1.0000
  V   V2        1.0  0.37500  0.25000  0.62500  1.0000
  V   V3        1.0  0.37500  0.75000  0.62500  1.0000
  V   V4        1.0  0.87500  0.25000  0.62500  1.0000
