data_image0
_chemical_formula_structural       Np2O8Te4
_chemical_formula_sum              "Np2 O8 Te4"
_cell_length_a       6.63283
_cell_length_b       6.63283
_cell_length_c       6.63283
_cell_angle_alpha    117.226
_cell_angle_beta     94.876
_cell_angle_gamma    117.226

_space_group_name_H-M_alt    "P 1"
_space_group_IT_number       1

loop_
  _space_group_symop_operation_xyz
  'x, y, z'

loop_
  _atom_site_type_symbol
  _atom_site_label
  _atom_site_symmetry_multiplicity
  _atom_site_fract_x
  _atom_site_fract_y
  _atom_site_fract_z
  _atom_site_occupancy
  Np  Np1       1.0  0.00000  0.00000  0.00000  1.0000
  Np  Np2       1.0  0.75000  0.50000  0.25000  1.0000
  O   O1        1.0  0.08670  0.82300  0.26300  1.0000
  O   O2        1.0  0.44000  0.17700  0.26300  1.0000
  O   O3        1.0  0.01330  0.32300  0.33700  1.0000
  O   O4        1.0  0.73700  0.82300  0.56000  1.0000
  O   O5        1.0  0.01330  0.67700  0.69000  1.0000
  O   O6        1.0  0.73700  0.17700  0.91300  1.0000
  O   O7        1.0  0.66300  0.67700  0.98700  1.0000
  O   O8        1.0  0.31000  0.32300  0.98700  1.0000
  Te  Te1       1.0  0.37500  0.75000  0.12500  1.0000
  Te  Te2       1.0  0.87500  0.25000  0.62500  1.0000
  Te  Te3       1.0  0.37500  0.75000  0.62500  1.0000
  Te  Te4       1.0  0.37500  0.25000  0.62500  1.0000
