data_image0
_chemical_formula_structural       O8Pb2Sr4
_chemical_formula_sum              "O8 Pb2 Sr4"
_cell_length_a       6.16138
_cell_length_b       10.0841
_cell_length_c       3.5114
_cell_angle_alpha    90
_cell_angle_beta     90
_cell_angle_gamma    90

_space_group_name_H-M_alt    "P 1"
_space_group_IT_number       1

loop_
  _space_group_symop_operation_xyz
  'x, y, z'

loop_
  _atom_site_type_symbol
  _atom_site_label
  _atom_site_symmetry_multiplicity
  _atom_site_fract_x
  _atom_site_fract_y
  _atom_site_fract_z
  _atom_site_occupancy
  O   O1        1.0  0.86400  0.19500  0.00000  1.0000
  O   O2        1.0  0.36400  0.30500  0.00000  1.0000
  O   O3        1.0  0.63600  0.69500  0.00000  1.0000
  O   O4        1.0  0.13600  0.80500  0.00000  1.0000
  O   O5        1.0  0.22600  0.05140  0.50000  1.0000
  O   O6        1.0  0.72600  0.44900  0.50000  1.0000
  O   O7        1.0  0.27400  0.55100  0.50000  1.0000
  O   O8        1.0  0.77400  0.94900  0.50000  1.0000
  Pb  Pb1       1.0  0.00000  0.00000  0.00000  1.0000
  Pb  Pb2       1.0  0.50000  0.50000  0.00000  1.0000
  Sr  Sr1       1.0  0.57300  0.18100  0.50000  1.0000
  Sr  Sr2       1.0  0.07310  0.31900  0.50000  1.0000
  Sr  Sr3       1.0  0.92700  0.68100  0.50000  1.0000
  Sr  Sr4       1.0  0.42700  0.81900  0.50000  1.0000
