data_image0
_chemical_formula_structural       O8Sn2Zr4
_chemical_formula_sum              "O8 Sn2 Zr4"
_cell_length_a       6.70328
_cell_length_b       6.70328
_cell_length_c       6.70328
_cell_angle_alpha    119.999
_cell_angle_beta     90.0021
_cell_angle_gamma    119.999

_space_group_name_H-M_alt    "P 1"
_space_group_IT_number       1

loop_
  _space_group_symop_operation_xyz
  'x, y, z'

loop_
  _atom_site_type_symbol
  _atom_site_label
  _atom_site_symmetry_multiplicity
  _atom_site_fract_x
  _atom_site_fract_y
  _atom_site_fract_z
  _atom_site_occupancy
  O   O1        1.0  0.60400  0.20900  0.39500  1.0000
  O   O2        1.0  0.18600  0.79100  0.39500  1.0000
  O   O3        1.0  0.60500  0.79100  0.39600  1.0000
  O   O4        1.0  0.14500  0.29100  0.43600  1.0000
  O   O5        1.0  0.60500  0.20900  0.81400  1.0000
  O   O6        1.0  0.14500  0.70900  0.85400  1.0000
  O   O7        1.0  0.14600  0.29100  0.85500  1.0000
  O   O8        1.0  0.56400  0.70900  0.85500  1.0000
  Sn  Sn1       1.0  0.00000  0.00000  0.00000  1.0000
  Sn  Sn2       1.0  0.75000  0.50000  0.25000  1.0000
  Zr  Zr1       1.0  0.37500  0.75000  0.12500  1.0000
  Zr  Zr2       1.0  0.37500  0.25000  0.62500  1.0000
  Zr  Zr3       1.0  0.37500  0.75000  0.62500  1.0000
  Zr  Zr4       1.0  0.87500  0.25000  0.62500  1.0000
