data_image0
_chemical_formula_structural       O8Rb2Sb4
_chemical_formula_sum              "O8 Rb2 Sb4"
_cell_length_a       7.07526
_cell_length_b       7.07526
_cell_length_c       7.07526
_cell_angle_alpha    119.99
_cell_angle_beta     90.0179
_cell_angle_gamma    119.99

_space_group_name_H-M_alt    "P 1"
_space_group_IT_number       1

loop_
  _space_group_symop_operation_xyz
  'x, y, z'

loop_
  _atom_site_type_symbol
  _atom_site_label
  _atom_site_symmetry_multiplicity
  _atom_site_fract_x
  _atom_site_fract_y
  _atom_site_fract_z
  _atom_site_occupancy
  O   O1        1.0  0.60000  0.20000  0.40000  1.0000
  O   O2        1.0  0.20000  0.80000  0.40000  1.0000
  O   O3        1.0  0.60000  0.80000  0.40000  1.0000
  O   O4        1.0  0.15000  0.30000  0.45000  1.0000
  O   O5        1.0  0.60000  0.20000  0.80000  1.0000
  O   O6        1.0  0.15000  0.70000  0.85000  1.0000
  O   O7        1.0  0.15000  0.30000  0.85000  1.0000
  O   O8        1.0  0.55000  0.70000  0.85000  1.0000
  Rb  Rb1       1.0  0.00000  0.00000  0.00000  1.0000
  Rb  Rb2       1.0  0.75000  0.50000  0.25000  1.0000
  Sb  Sb1       1.0  0.37500  0.75000  0.12500  1.0000
  Sb  Sb2       1.0  0.37500  0.75000  0.62500  1.0000
  Sb  Sb3       1.0  0.37500  0.25000  0.62500  1.0000
  Sb  Sb4       1.0  0.87500  0.25000  0.62500  1.0000
