data_image0
_chemical_formula_structural       O8V2Yb4
_chemical_formula_sum              "O8 V2 Yb4"
_cell_length_a       6.31291
_cell_length_b       6.31291
_cell_length_c       6.31291
_cell_angle_alpha    119.111
_cell_angle_beta     91.5475
_cell_angle_gamma    119.111

_space_group_name_H-M_alt    "P 1"
_space_group_IT_number       1

loop_
  _space_group_symop_operation_xyz
  'x, y, z'

loop_
  _atom_site_type_symbol
  _atom_site_label
  _atom_site_symmetry_multiplicity
  _atom_site_fract_x
  _atom_site_fract_y
  _atom_site_fract_z
  _atom_site_occupancy
  O   O1        1.0  0.11300  0.24400  0.35700  1.0000
  O   O2        1.0  0.10700  0.74400  0.36300  1.0000
  O   O3        1.0  0.61900  0.25600  0.36300  1.0000
  O   O4        1.0  0.63700  0.74400  0.38100  1.0000
  O   O5        1.0  0.11300  0.75600  0.86900  1.0000
  O   O6        1.0  0.13100  0.24400  0.88700  1.0000
  O   O7        1.0  0.64300  0.75600  0.88700  1.0000
  O   O8        1.0  0.63700  0.25600  0.89300  1.0000
  V   V1        1.0  0.00000  0.00000  0.00000  1.0000
  V   V2        1.0  0.75000  0.50000  0.25000  1.0000
  Yb  Yb1       1.0  0.37500  0.75000  0.12500  1.0000
  Yb  Yb2       1.0  0.87500  0.25000  0.62500  1.0000
  Yb  Yb3       1.0  0.37500  0.75000  0.62500  1.0000
  Yb  Yb4       1.0  0.37500  0.25000  0.62500  1.0000
