data_image0
_chemical_formula_structural       Mo2O8Pb4
_chemical_formula_sum              "Mo2 O8 Pb4"
_cell_length_a       7.08508
_cell_length_b       7.08508
_cell_length_c       7.08508
_cell_angle_alpha    120.101
_cell_angle_beta     89.8258
_cell_angle_gamma    120.101

_space_group_name_H-M_alt    "P 1"
_space_group_IT_number       1

loop_
  _space_group_symop_operation_xyz
  'x, y, z'

loop_
  _atom_site_type_symbol
  _atom_site_label
  _atom_site_symmetry_multiplicity
  _atom_site_fract_x
  _atom_site_fract_y
  _atom_site_fract_z
  _atom_site_occupancy
  Mo  Mo1       1.0  0.00000  0.00000  0.00000  1.0000
  Mo  Mo2       1.0  0.75000  0.50000  0.25000  1.0000
  O   O1        1.0  0.10500  0.21000  0.31500  1.0000
  O   O2        1.0  0.06510  0.71000  0.35500  1.0000
  O   O3        1.0  0.64500  0.29000  0.35500  1.0000
  O   O4        1.0  0.64500  0.71000  0.35500  1.0000
  O   O5        1.0  0.10500  0.79000  0.89500  1.0000
  O   O6        1.0  0.68500  0.79000  0.89500  1.0000
  O   O7        1.0  0.10500  0.21000  0.89500  1.0000
  O   O8        1.0  0.64500  0.29000  0.93500  1.0000
  Pb  Pb1       1.0  0.37500  0.75000  0.12500  1.0000
  Pb  Pb2       1.0  0.37500  0.75000  0.62500  1.0000
  Pb  Pb3       1.0  0.37500  0.25000  0.62500  1.0000
  Pb  Pb4       1.0  0.87500  0.25000  0.62500  1.0000
