data_image0
_chemical_formula_structural       O8V2Zn4
_chemical_formula_sum              "O8 V2 Zn4"
_cell_length_a       5.91558
_cell_length_b       5.91558
_cell_length_c       5.91558
_cell_angle_alpha    118.212
_cell_angle_beta     93.1255
_cell_angle_gamma    118.212

_space_group_name_H-M_alt    "P 1"
_space_group_IT_number       1

loop_
  _space_group_symop_operation_xyz
  'x, y, z'

loop_
  _atom_site_type_symbol
  _atom_site_label
  _atom_site_symmetry_multiplicity
  _atom_site_fract_x
  _atom_site_fract_y
  _atom_site_fract_z
  _atom_site_occupancy
  O   O1        1.0  0.61100  0.24200  0.36900  1.0000
  O   O2        1.0  0.12700  0.75800  0.36900  1.0000
  O   O3        1.0  0.11900  0.25800  0.37700  1.0000
  O   O4        1.0  0.63100  0.75800  0.38900  1.0000
  O   O5        1.0  0.11900  0.74200  0.86100  1.0000
  O   O6        1.0  0.63100  0.24200  0.87300  1.0000
  O   O7        1.0  0.13900  0.25800  0.88100  1.0000
  O   O8        1.0  0.62300  0.74200  0.88100  1.0000
  V   V1        1.0  0.00000  0.00000  0.00000  1.0000
  V   V2        1.0  0.75000  0.50000  0.25000  1.0000
  Zn  Zn1       1.0  0.37500  0.75000  0.12500  1.0000
  Zn  Zn2       1.0  0.37500  0.75000  0.62500  1.0000
  Zn  Zn3       1.0  0.87500  0.25000  0.62500  1.0000
  Zn  Zn4       1.0  0.37500  0.25000  0.62500  1.0000
