data_image0
_chemical_formula_structural       O8W2Yb4
_chemical_formula_sum              "O8 W2 Yb4"
_cell_length_a       6.46003
_cell_length_b       6.46003
_cell_length_c       6.46003
_cell_angle_alpha    119.989
_cell_angle_beta     90.0182
_cell_angle_gamma    119.989

_space_group_name_H-M_alt    "P 1"
_space_group_IT_number       1

loop_
  _space_group_symop_operation_xyz
  'x, y, z'

loop_
  _atom_site_type_symbol
  _atom_site_label
  _atom_site_symmetry_multiplicity
  _atom_site_fract_x
  _atom_site_fract_y
  _atom_site_fract_z
  _atom_site_occupancy
  O   O1        1.0  0.12300  0.24700  0.37000  1.0000
  O   O2        1.0  0.12000  0.74700  0.37300  1.0000
  O   O3        1.0  0.62600  0.25300  0.37300  1.0000
  O   O4        1.0  0.62700  0.74700  0.37400  1.0000
  O   O5        1.0  0.12300  0.75300  0.87600  1.0000
  O   O6        1.0  0.63000  0.75300  0.87700  1.0000
  O   O7        1.0  0.12400  0.24700  0.87700  1.0000
  O   O8        1.0  0.62700  0.25300  0.88000  1.0000
  W   W1        1.0  0.00000  0.00000  0.00000  1.0000
  W   W2        1.0  0.75000  0.50000  0.25000  1.0000
  Yb  Yb1       1.0  0.37500  0.75000  0.12500  1.0000
  Yb  Yb2       1.0  0.37500  0.75000  0.62500  1.0000
  Yb  Yb3       1.0  0.87500  0.25000  0.62500  1.0000
  Yb  Yb4       1.0  0.37500  0.25000  0.62500  1.0000
