data_image0
_chemical_formula_structural       Ni2O8Ti4
_chemical_formula_sum              "Ni2 O8 Ti4"
_cell_length_a       5.9539
_cell_length_b       5.9539
_cell_length_c       5.9539
_cell_angle_alpha    119.232
_cell_angle_beta     91.336
_cell_angle_gamma    119.232

_space_group_name_H-M_alt    "P 1"
_space_group_IT_number       1

loop_
  _space_group_symop_operation_xyz
  'x, y, z'

loop_
  _atom_site_type_symbol
  _atom_site_label
  _atom_site_symmetry_multiplicity
  _atom_site_fract_x
  _atom_site_fract_y
  _atom_site_fract_z
  _atom_site_occupancy
  Ni  Ni1       1.0  0.00000  0.00000  0.00000  1.0000
  Ni  Ni2       1.0  0.75000  0.50000  0.25000  1.0000
  O   O1        1.0  0.60600  0.22300  0.38400  1.0000
  O   O2        1.0  0.16100  0.77700  0.38400  1.0000
  O   O3        1.0  0.61600  0.77700  0.39400  1.0000
  O   O4        1.0  0.13400  0.27700  0.41100  1.0000
  O   O5        1.0  0.61600  0.22300  0.83900  1.0000
  O   O6        1.0  0.13400  0.72300  0.85600  1.0000
  O   O7        1.0  0.58900  0.72300  0.86600  1.0000
  O   O8        1.0  0.14400  0.27700  0.86600  1.0000
  Ti  Ti1       1.0  0.37500  0.75000  0.12500  1.0000
  Ti  Ti2       1.0  0.87500  0.25000  0.62500  1.0000
  Ti  Ti3       1.0  0.37500  0.75000  0.62500  1.0000
  Ti  Ti4       1.0  0.37500  0.25000  0.62500  1.0000
