data_image0
_chemical_formula_structural       Ga2Np4O8
_chemical_formula_sum              "Ga2 Np4 O8"
_cell_length_a       6.69274
_cell_length_b       6.69274
_cell_length_c       6.69274
_cell_angle_alpha    119.922
_cell_angle_beta     90.1353
_cell_angle_gamma    119.922

_space_group_name_H-M_alt    "P 1"
_space_group_IT_number       1

loop_
  _space_group_symop_operation_xyz
  'x, y, z'

loop_
  _atom_site_type_symbol
  _atom_site_label
  _atom_site_symmetry_multiplicity
  _atom_site_fract_x
  _atom_site_fract_y
  _atom_site_fract_z
  _atom_site_occupancy
  Ga  Ga1       1.0  0.00000  0.00000  0.00000  1.0000
  Ga  Ga2       1.0  0.75000  0.50000  0.25000  1.0000
  Np  Np1       1.0  0.37500  0.75000  0.12500  1.0000
  Np  Np2       1.0  0.87500  0.25000  0.62500  1.0000
  Np  Np3       1.0  0.37500  0.25000  0.62500  1.0000
  Np  Np4       1.0  0.37500  0.75000  0.62500  1.0000
  O   O1        1.0  0.11400  0.23100  0.34500  1.0000
  O   O2        1.0  0.63300  0.26900  0.36400  1.0000
  O   O3        1.0  0.09530  0.73100  0.36400  1.0000
  O   O4        1.0  0.63600  0.73100  0.36700  1.0000
  O   O5        1.0  0.11400  0.76900  0.88300  1.0000
  O   O6        1.0  0.11700  0.23100  0.88600  1.0000
  O   O7        1.0  0.65500  0.76900  0.88600  1.0000
  O   O8        1.0  0.63600  0.26900  0.90500  1.0000
