data_image0
_chemical_formula_structural       Er2O8Te4
_chemical_formula_sum              "Er2 O8 Te4"
_cell_length_a       6.53654
_cell_length_b       6.53654
_cell_length_c       6.53654
_cell_angle_alpha    117.746
_cell_angle_beta     93.951
_cell_angle_gamma    117.746

_space_group_name_H-M_alt    "P 1"
_space_group_IT_number       1

loop_
  _space_group_symop_operation_xyz
  'x, y, z'

loop_
  _atom_site_type_symbol
  _atom_site_label
  _atom_site_symmetry_multiplicity
  _atom_site_fract_x
  _atom_site_fract_y
  _atom_site_fract_z
  _atom_site_occupancy
  Er  Er1       1.0  0.00000  0.00000  0.00000  1.0000
  Er  Er2       1.0  0.75000  0.50000  0.25000  1.0000
  O   O1        1.0  0.09400  0.82100  0.27300  1.0000
  O   O2        1.0  0.45100  0.17900  0.27300  1.0000
  O   O3        1.0  0.02260  0.32100  0.34400  1.0000
  O   O4        1.0  0.72700  0.82100  0.54900  1.0000
  O   O5        1.0  0.02260  0.67900  0.70100  1.0000
  O   O6        1.0  0.72700  0.17900  0.90600  1.0000
  O   O7        1.0  0.29900  0.32100  0.97700  1.0000
  O   O8        1.0  0.65600  0.67900  0.97700  1.0000
  Te  Te1       1.0  0.37500  0.75000  0.12500  1.0000
  Te  Te2       1.0  0.37500  0.75000  0.62500  1.0000
  Te  Te3       1.0  0.37500  0.25000  0.62500  1.0000
  Te  Te4       1.0  0.87500  0.25000  0.62500  1.0000
