data_image0
_chemical_formula_structural       Ga2K4O8
_chemical_formula_sum              "Ga2 K4 O8"
_cell_length_a       6.97115
_cell_length_b       6.97115
_cell_length_c       6.97115
_cell_angle_alpha    119.996
_cell_angle_beta     90.0065
_cell_angle_gamma    119.996

_space_group_name_H-M_alt    "P 1"
_space_group_IT_number       1

loop_
  _space_group_symop_operation_xyz
  'x, y, z'

loop_
  _atom_site_type_symbol
  _atom_site_label
  _atom_site_symmetry_multiplicity
  _atom_site_fract_x
  _atom_site_fract_y
  _atom_site_fract_z
  _atom_site_occupancy
  Ga  Ga1       1.0  0.00000  0.00000  0.00000  1.0000
  Ga  Ga2       1.0  0.75000  0.50000  0.25000  1.0000
  K   K1        1.0  0.37500  0.75000  0.12500  1.0000
  K   K2        1.0  0.87500  0.25000  0.62500  1.0000
  K   K3        1.0  0.37500  0.75000  0.62500  1.0000
  K   K4        1.0  0.37500  0.25000  0.62500  1.0000
  O   O1        1.0  0.10800  0.21600  0.32400  1.0000
  O   O2        1.0  0.64200  0.28400  0.35800  1.0000
  O   O3        1.0  0.07410  0.71600  0.35800  1.0000
  O   O4        1.0  0.64200  0.71600  0.35800  1.0000
  O   O5        1.0  0.10800  0.78400  0.89200  1.0000
  O   O6        1.0  0.10800  0.21600  0.89200  1.0000
  O   O7        1.0  0.67600  0.78400  0.89200  1.0000
  O   O8        1.0  0.64200  0.28400  0.92600  1.0000
