data_image0
_chemical_formula_structural       Hf2O8Te4
_chemical_formula_sum              "Hf2 O8 Te4"
_cell_length_a       6.40446
_cell_length_b       6.40446
_cell_length_c       6.40446
_cell_angle_alpha    117.397
_cell_angle_beta     94.5718
_cell_angle_gamma    117.397

_space_group_name_H-M_alt    "P 1"
_space_group_IT_number       1

loop_
  _space_group_symop_operation_xyz
  'x, y, z'

loop_
  _atom_site_type_symbol
  _atom_site_label
  _atom_site_symmetry_multiplicity
  _atom_site_fract_x
  _atom_site_fract_y
  _atom_site_fract_z
  _atom_site_occupancy
  Hf  Hf1       1.0  0.00000  0.00000  0.00000  1.0000
  Hf  Hf2       1.0  0.75000  0.50000  0.25000  1.0000
  O   O1        1.0  0.43900  0.18400  0.25500  1.0000
  O   O2        1.0  0.07150  0.81600  0.25500  1.0000
  O   O3        1.0  0.00513  0.31600  0.32100  1.0000
  O   O4        1.0  0.74500  0.81600  0.56100  1.0000
  O   O5        1.0  0.00513  0.68400  0.68900  1.0000
  O   O6        1.0  0.74500  0.18400  0.92900  1.0000
  O   O7        1.0  0.31100  0.31600  0.99500  1.0000
  O   O8        1.0  0.67900  0.68400  0.99500  1.0000
  Te  Te1       1.0  0.37500  0.75000  0.12500  1.0000
  Te  Te2       1.0  0.87500  0.25000  0.62500  1.0000
  Te  Te3       1.0  0.37500  0.25000  0.62500  1.0000
  Te  Te4       1.0  0.37500  0.75000  0.62500  1.0000
