data_image0
_chemical_formula_structural       O8U2V4
_chemical_formula_sum              "O8 U2 V4"
_cell_length_a       6.36711
_cell_length_b       6.36711
_cell_length_c       6.36711
_cell_angle_alpha    118.491
_cell_angle_beta     92.6348
_cell_angle_gamma    118.491

_space_group_name_H-M_alt    "P 1"
_space_group_IT_number       1

loop_
  _space_group_symop_operation_xyz
  'x, y, z'

loop_
  _atom_site_type_symbol
  _atom_site_label
  _atom_site_symmetry_multiplicity
  _atom_site_fract_x
  _atom_site_fract_y
  _atom_site_fract_z
  _atom_site_occupancy
  O   O1        1.0  0.15900  0.77900  0.37900  1.0000
  O   O2        1.0  0.60000  0.22100  0.37900  1.0000
  O   O3        1.0  0.62100  0.77900  0.40000  1.0000
  O   O4        1.0  0.12900  0.27900  0.40900  1.0000
  O   O5        1.0  0.62100  0.22100  0.84100  1.0000
  O   O6        1.0  0.12900  0.72100  0.85000  1.0000
  O   O7        1.0  0.59100  0.72100  0.87100  1.0000
  O   O8        1.0  0.15000  0.27900  0.87100  1.0000
  U   U1        1.0  0.00000  0.00000  0.00000  1.0000
  U   U2        1.0  0.75000  0.50000  0.25000  1.0000
  V   V1        1.0  0.37500  0.75000  0.12500  1.0000
  V   V2        1.0  0.37500  0.75000  0.62500  1.0000
  V   V3        1.0  0.37500  0.25000  0.62500  1.0000
  V   V4        1.0  0.87500  0.25000  0.62500  1.0000
