data_image0
_chemical_formula_structural       O8Pu2W4
_chemical_formula_sum              "O8 Pu2 W4"
_cell_length_a       6.4376
_cell_length_b       6.4376
_cell_length_c       6.4376
_cell_angle_alpha    120.155
_cell_angle_beta     89.7314
_cell_angle_gamma    120.155

_space_group_name_H-M_alt    "P 1"
_space_group_IT_number       1

loop_
  _space_group_symop_operation_xyz
  'x, y, z'

loop_
  _atom_site_type_symbol
  _atom_site_label
  _atom_site_symmetry_multiplicity
  _atom_site_fract_x
  _atom_site_fract_y
  _atom_site_fract_z
  _atom_site_occupancy
  O   O1        1.0  0.60700  0.78500  0.39200  1.0000
  O   O2        1.0  0.17800  0.78500  0.39300  1.0000
  O   O3        1.0  0.60800  0.21500  0.39300  1.0000
  O   O4        1.0  0.14300  0.28500  0.42800  1.0000
  O   O5        1.0  0.60700  0.21500  0.82200  1.0000
  O   O6        1.0  0.14200  0.28500  0.85700  1.0000
  O   O7        1.0  0.57200  0.71500  0.85700  1.0000
  O   O8        1.0  0.14300  0.71500  0.85800  1.0000
  Pu  Pu1       1.0  0.00000  0.00000  0.00000  1.0000
  Pu  Pu2       1.0  0.75000  0.50000  0.25000  1.0000
  W   W1        1.0  0.37500  0.75000  0.12500  1.0000
  W   W2        1.0  0.87500  0.25000  0.62500  1.0000
  W   W3        1.0  0.37500  0.75000  0.62500  1.0000
  W   W4        1.0  0.37500  0.25000  0.62500  1.0000
