data_image0
_chemical_formula_structural       Fe2O8Rb4
_chemical_formula_sum              "Fe2 O8 Rb4"
_cell_length_a       7.03921
_cell_length_b       7.03921
_cell_length_c       7.03921
_cell_angle_alpha    120.002
_cell_angle_beta     89.996
_cell_angle_gamma    120.002

_space_group_name_H-M_alt    "P 1"
_space_group_IT_number       1

loop_
  _space_group_symop_operation_xyz
  'x, y, z'

loop_
  _atom_site_type_symbol
  _atom_site_label
  _atom_site_symmetry_multiplicity
  _atom_site_fract_x
  _atom_site_fract_y
  _atom_site_fract_z
  _atom_site_occupancy
  Fe  Fe1       1.0  0.00000  0.00000  0.00000  1.0000
  Fe  Fe2       1.0  0.75000  0.50000  0.25000  1.0000
  O   O1        1.0  0.09610  0.19200  0.28800  1.0000
  O   O2        1.0  0.65400  0.69200  0.34600  1.0000
  O   O3        1.0  0.03820  0.69200  0.34600  1.0000
  O   O4        1.0  0.65400  0.30800  0.34600  1.0000
  O   O5        1.0  0.71200  0.80800  0.90400  1.0000
  O   O6        1.0  0.09600  0.19200  0.90400  1.0000
  O   O7        1.0  0.09610  0.80800  0.90400  1.0000
  O   O8        1.0  0.65400  0.30800  0.96200  1.0000
  Rb  Rb1       1.0  0.37500  0.75000  0.12500  1.0000
  Rb  Rb2       1.0  0.87500  0.25000  0.62500  1.0000
  Rb  Rb3       1.0  0.37500  0.75000  0.62500  1.0000
  Rb  Rb4       1.0  0.37500  0.25000  0.62500  1.0000
