data_image0
_chemical_formula_structural       O8Sb2Te4
_chemical_formula_sum              "O8 Sb2 Te4"
_cell_length_a       7.01391
_cell_length_b       7.01391
_cell_length_c       7.01391
_cell_angle_alpha    122.694
_cell_angle_beta     85.3944
_cell_angle_gamma    122.694

_space_group_name_H-M_alt    "P 1"
_space_group_IT_number       1

loop_
  _space_group_symop_operation_xyz
  'x, y, z'

loop_
  _atom_site_type_symbol
  _atom_site_label
  _atom_site_symmetry_multiplicity
  _atom_site_fract_x
  _atom_site_fract_y
  _atom_site_fract_z
  _atom_site_occupancy
  O   O1        1.0  0.10900  0.80600  0.30200  1.0000
  O   O2        1.0  0.49600  0.19400  0.30200  1.0000
  O   O3        1.0  0.05220  0.30600  0.35900  1.0000
  O   O4        1.0  0.69800  0.80600  0.50400  1.0000
  O   O5        1.0  0.05220  0.69400  0.74600  1.0000
  O   O6        1.0  0.69800  0.19400  0.89100  1.0000
  O   O7        1.0  0.25400  0.30600  0.94800  1.0000
  O   O8        1.0  0.64100  0.69400  0.94800  1.0000
  Sb  Sb1       1.0  0.00000  0.00000  0.00000  1.0000
  Sb  Sb2       1.0  0.75000  0.50000  0.25000  1.0000
  Te  Te1       1.0  0.37500  0.75000  0.12500  1.0000
  Te  Te2       1.0  0.37500  0.25000  0.62500  1.0000
  Te  Te3       1.0  0.37500  0.75000  0.62500  1.0000
  Te  Te4       1.0  0.87500  0.25000  0.62500  1.0000
