data_image0
_chemical_formula_structural       Mo2O8Sb4
_chemical_formula_sum              "Mo2 O8 Sb4"
_cell_length_a       6.95621
_cell_length_b       6.95621
_cell_length_c       6.95621
_cell_angle_alpha    119.963
_cell_angle_beta     90.0644
_cell_angle_gamma    119.963

_space_group_name_H-M_alt    "P 1"
_space_group_IT_number       1

loop_
  _space_group_symop_operation_xyz
  'x, y, z'

loop_
  _atom_site_type_symbol
  _atom_site_label
  _atom_site_symmetry_multiplicity
  _atom_site_fract_x
  _atom_site_fract_y
  _atom_site_fract_z
  _atom_site_occupancy
  Mo  Mo1       1.0  0.00000  0.00000  0.00000  1.0000
  Mo  Mo2       1.0  0.75000  0.50000  0.25000  1.0000
  O   O1        1.0  0.10600  0.21200  0.31800  1.0000
  O   O2        1.0  0.64400  0.71200  0.35600  1.0000
  O   O3        1.0  0.06800  0.71200  0.35600  1.0000
  O   O4        1.0  0.64400  0.28800  0.35600  1.0000
  O   O5        1.0  0.10600  0.21200  0.89400  1.0000
  O   O6        1.0  0.68200  0.78800  0.89400  1.0000
  O   O7        1.0  0.10600  0.78800  0.89400  1.0000
  O   O8        1.0  0.64400  0.28800  0.93200  1.0000
  Sb  Sb1       1.0  0.37500  0.75000  0.12500  1.0000
  Sb  Sb2       1.0  0.37500  0.75000  0.62500  1.0000
  Sb  Sb3       1.0  0.37500  0.25000  0.62500  1.0000
  Sb  Sb4       1.0  0.87500  0.25000  0.62500  1.0000
