data_image0
_chemical_formula_structural       Ca2Li6Mn2N6
_chemical_formula_sum              "Ca2 Li6 Mn2 N6"
_cell_length_a       5.65189
_cell_length_b       5.65634
_cell_length_c       6.83693
_cell_angle_alpha    114.422
_cell_angle_beta     114.404
_cell_angle_gamma    60.0122

_space_group_name_H-M_alt    "P 1"
_space_group_IT_number       1

loop_
  _space_group_symop_operation_xyz
  'x, y, z'

loop_
  _atom_site_type_symbol
  _atom_site_label
  _atom_site_symmetry_multiplicity
  _atom_site_fract_x
  _atom_site_fract_y
  _atom_site_fract_z
  _atom_site_occupancy
  Ca  Ca1       1.0  0.33600  0.33600  0.00819  1.0000
  Ca  Ca2       1.0  0.66400  0.66400  0.99200  1.0000
  Li  Li1       1.0  0.10800  0.76500  0.38600  1.0000
  Li  Li2       1.0  0.76500  0.51200  0.38600  1.0000
  Li  Li3       1.0  0.51300  0.10900  0.38700  1.0000
  Li  Li4       1.0  0.48700  0.89100  0.61300  1.0000
  Li  Li5       1.0  0.23500  0.48900  0.61400  1.0000
  Li  Li6       1.0  0.89200  0.23500  0.61400  1.0000
  Mn  Mn1       1.0  0.05590  0.05570  0.16800  1.0000
  Mn  Mn2       1.0  0.94400  0.94400  0.83200  1.0000
  N   N1        1.0  0.38300  0.78200  0.25700  1.0000
  N   N2        1.0  0.78200  0.09100  0.25700  1.0000
  N   N3        1.0  0.09130  0.38300  0.25700  1.0000
  N   N4        1.0  0.90900  0.61700  0.74300  1.0000
  N   N5        1.0  0.21800  0.90900  0.74300  1.0000
  N   N6        1.0  0.61700  0.21800  0.74300  1.0000
