data_image0
_chemical_formula_structural       Fe12Nd2P7
_chemical_formula_sum              "Fe12 Nd2 P7"
_cell_length_a       8.98641
_cell_length_b       8.98629
_cell_length_c       3.66816
_cell_angle_alpha    90
_cell_angle_beta     90
_cell_angle_gamma    119.998

_space_group_name_H-M_alt    "P 1"
_space_group_IT_number       1

loop_
  _space_group_symop_operation_xyz
  'x, y, z'

loop_
  _atom_site_type_symbol
  _atom_site_label
  _atom_site_symmetry_multiplicity
  _atom_site_fract_x
  _atom_site_fract_y
  _atom_site_fract_z
  _atom_site_occupancy
  Fe  Fe1       1.0  0.42300  0.05620  0.00000  1.0000
  Fe  Fe2       1.0  0.15100  0.27100  0.00000  1.0000
  Fe  Fe3       1.0  0.94400  0.36700  0.00000  1.0000
  Fe  Fe4       1.0  0.63300  0.57700  0.00000  1.0000
  Fe  Fe5       1.0  0.12000  0.84900  0.00000  1.0000
  Fe  Fe6       1.0  0.72900  0.88000  0.00000  1.0000
  Fe  Fe7       1.0  0.20900  0.09570  0.50000  1.0000
  Fe  Fe8       1.0  0.90400  0.11300  0.50000  1.0000
  Fe  Fe9       1.0  0.38200  0.43100  0.50000  1.0000
  Fe  Fe10      1.0  0.04890  0.61800  0.50000  1.0000
  Fe  Fe11      1.0  0.88700  0.79100  0.50000  1.0000
  Fe  Fe12      1.0  0.56900  0.95100  0.50000  1.0000
  Nd  Nd1       1.0  0.33300  0.66700  0.00000  1.0000
  Nd  Nd2       1.0  0.66700  0.33300  0.50000  1.0000
  P   P1        1.0  0.99999  1.00000  0.00000  1.0000
  P   P2        1.0  0.70000  0.10600  0.00000  1.0000
  P   P3        1.0  0.40600  0.30000  0.00000  1.0000
  P   P4        1.0  0.89400  0.59400  0.00000  1.0000
  P   P5        1.0  0.10500  0.39400  0.50000  1.0000
  P   P6        1.0  0.60600  0.71000  0.50000  1.0000
  P   P7        1.0  0.29000  0.89500  0.50000  1.0000
