data_image0
_chemical_formula_structural       Br12Fe4In4
_chemical_formula_sum              "Br12 Fe4 In4"
_cell_length_a       9.30937
_cell_length_b       3.9888
_cell_length_c       14.992
_cell_angle_alpha    90
_cell_angle_beta     90
_cell_angle_gamma    90

_space_group_name_H-M_alt    "P 1"
_space_group_IT_number       1

loop_
  _space_group_symop_operation_xyz
  'x, y, z'

loop_
  _atom_site_type_symbol
  _atom_site_label
  _atom_site_symmetry_multiplicity
  _atom_site_fract_x
  _atom_site_fract_y
  _atom_site_fract_z
  _atom_site_occupancy
  Br  Br1       1.0  0.17900  0.25000  0.00349  1.0000
  Br  Br2       1.0  0.47800  0.75000  0.10000  1.0000
  Br  Br3       1.0  0.77300  0.25000  0.20600  1.0000
  Br  Br4       1.0  0.27300  0.25000  0.29400  1.0000
  Br  Br5       1.0  0.97800  0.75000  0.40000  1.0000
  Br  Br6       1.0  0.67900  0.25000  0.49700  1.0000
  Br  Br7       1.0  0.32100  0.75000  0.50300  1.0000
  Br  Br8       1.0  0.02170  0.25000  0.60000  1.0000
  Br  Br9       1.0  0.72700  0.75000  0.70600  1.0000
  Br  Br10      1.0  0.22700  0.75000  0.79400  1.0000
  Br  Br11      1.0  0.52200  0.25000  0.90000  1.0000
  Br  Br12      1.0  0.82100  0.75000  0.99700  1.0000
  Fe  Fe1       1.0  0.65900  0.25000  0.05420  1.0000
  Fe  Fe2       1.0  0.15900  0.25000  0.44600  1.0000
  Fe  Fe3       1.0  0.84100  0.75000  0.55400  1.0000
  Fe  Fe4       1.0  0.34100  0.75000  0.94600  1.0000
  In  In1       1.0  0.05010  0.75000  0.17000  1.0000
  In  In2       1.0  0.55000  0.75000  0.33000  1.0000
  In  In3       1.0  0.45000  0.25000  0.67000  1.0000
  In  In4       1.0  0.95000  0.25000  0.83000  1.0000
