data_image0
_chemical_formula_structural       Cl8O9Re4
_chemical_formula_sum              "Cl8 O9 Re4"
_cell_length_a       6.07161
_cell_length_b       12.8058
_cell_length_c       5.94327
_cell_angle_alpha    88.0211
_cell_angle_beta     95.868
_cell_angle_gamma    105.326

_space_group_name_H-M_alt    "P 1"
_space_group_IT_number       1

loop_
  _space_group_symop_operation_xyz
  'x, y, z'

loop_
  _atom_site_type_symbol
  _atom_site_label
  _atom_site_symmetry_multiplicity
  _atom_site_fract_x
  _atom_site_fract_y
  _atom_site_fract_z
  _atom_site_occupancy
  Cl  Cl1       1.0  0.55800  0.36200  0.13400  1.0000
  Cl  Cl2       1.0  0.84400  0.94000  0.22400  1.0000
  Cl  Cl3       1.0  0.07420  0.21600  0.23600  1.0000
  Cl  Cl4       1.0  0.92700  0.64500  0.34300  1.0000
  Cl  Cl5       1.0  0.07250  0.35500  0.65700  1.0000
  Cl  Cl6       1.0  0.92600  0.78400  0.76400  1.0000
  Cl  Cl7       1.0  0.15600  0.05990  0.77600  1.0000
  Cl  Cl8       1.0  0.44200  0.63800  0.86600  1.0000
  O   O1        1.0  0.13700  0.46000  0.17400  1.0000
  O   O2        1.0  0.29400  0.86600  0.18300  1.0000
  O   O3        1.0  0.49600  0.09820  0.37300  1.0000
  O   O4        1.0  0.51200  0.71500  0.39200  1.0000
  O   O5        1.0  0.50000  0.50000  0.50000  1.0000
  O   O6        1.0  0.48800  0.28500  0.60800  1.0000
  O   O7        1.0  0.50400  0.90200  0.62700  1.0000
  O   O8        1.0  0.70600  0.13400  0.81700  1.0000
  O   O9        1.0  0.86300  0.54000  0.82600  1.0000
  Re  Re1       1.0  0.28100  0.38800  0.34700  1.0000
  Re  Re2       1.0  0.52300  0.85200  0.36500  1.0000
  Re  Re3       1.0  0.47700  0.14800  0.63500  1.0000
  Re  Re4       1.0  0.71900  0.61200  0.65300  1.0000
