data_image0
_chemical_formula_structural       Mn3S12Sb4Sm2
_chemical_formula_sum              "Mn3 S12 Sb4 Sm2"
_cell_length_a       3.87391
_cell_length_b       10.1501
_cell_length_c       12.1367
_cell_angle_alpha    93.5361
_cell_angle_beta     99.1834
_cell_angle_gamma    101.001

_space_group_name_H-M_alt    "P 1"
_space_group_IT_number       1

loop_
  _space_group_symop_operation_xyz
  'x, y, z'

loop_
  _atom_site_type_symbol
  _atom_site_label
  _atom_site_symmetry_multiplicity
  _atom_site_fract_x
  _atom_site_fract_y
  _atom_site_fract_z
  _atom_site_occupancy
  Mn  Mn1       1.0  0.00000  0.00000  0.00000  1.0000
  Mn  Mn2       1.0  0.17900  0.98300  0.37600  1.0000
  Mn  Mn3       1.0  0.82100  0.01740  0.62400  1.0000
  S   S1        1.0  0.42200  0.82000  0.02530  1.0000
  S   S2        1.0  0.27200  0.44400  0.10000  1.0000
  S   S3        1.0  0.14100  0.08590  0.19600  1.0000
  S   S4        1.0  0.54900  0.80700  0.29100  1.0000
  S   S5        1.0  0.93800  0.52900  0.34800  1.0000
  S   S6        1.0  0.79500  0.13600  0.45500  1.0000
  S   S7        1.0  0.20500  0.86400  0.54500  1.0000
  S   S8        1.0  0.06170  0.47100  0.65200  1.0000
  S   S9        1.0  0.45100  0.19300  0.70900  1.0000
  S   S10       1.0  0.85900  0.91400  0.80400  1.0000
  S   S11       1.0  0.72800  0.55600  0.90000  1.0000
  S   S12       1.0  0.57800  0.18000  0.97500  1.0000
  Sb  Sb1       1.0  0.72500  0.26800  0.18200  1.0000
  Sb  Sb2       1.0  0.56000  0.66700  0.45300  1.0000
  Sb  Sb3       1.0  0.44000  0.33300  0.54700  1.0000
  Sb  Sb4       1.0  0.27500  0.73200  0.81800  1.0000
  Sm  Sm1       1.0  0.89700  0.65600  0.13800  1.0000
  Sm  Sm2       1.0  0.10300  0.34400  0.86200  1.0000
