data_image0
_chemical_formula_structural       O8Sm2Te4
_chemical_formula_sum              "O8 Sm2 Te4"
_cell_length_a       6.6339
_cell_length_b       6.6339
_cell_length_c       6.6339
_cell_angle_alpha    117.258
_cell_angle_beta     94.8187
_cell_angle_gamma    117.258

_space_group_name_H-M_alt    "P 1"
_space_group_IT_number       1

loop_
  _space_group_symop_operation_xyz
  'x, y, z'

loop_
  _atom_site_type_symbol
  _atom_site_label
  _atom_site_symmetry_multiplicity
  _atom_site_fract_x
  _atom_site_fract_y
  _atom_site_fract_z
  _atom_site_occupancy
  O   O1        1.0  0.10200  0.82600  0.27500  1.0000
  O   O2        1.0  0.44900  0.17400  0.27500  1.0000
  O   O3        1.0  0.02540  0.32600  0.35200  1.0000
  O   O4        1.0  0.72500  0.82600  0.55100  1.0000
  O   O5        1.0  0.02540  0.67400  0.69900  1.0000
  O   O6        1.0  0.72500  0.17400  0.89800  1.0000
  O   O7        1.0  0.30100  0.32600  0.97500  1.0000
  O   O8        1.0  0.64800  0.67400  0.97500  1.0000
  Sm  Sm1       1.0  0.00000  0.00000  0.00000  1.0000
  Sm  Sm2       1.0  0.75000  0.50000  0.25000  1.0000
  Te  Te1       1.0  0.37500  0.75000  0.12500  1.0000
  Te  Te2       1.0  0.87500  0.25000  0.62500  1.0000
  Te  Te3       1.0  0.37500  0.25000  0.62500  1.0000
  Te  Te4       1.0  0.37500  0.75000  0.62500  1.0000
