data_image0
_chemical_formula_structural       Mn3Nd2S12Sb4
_chemical_formula_sum              "Mn3 Nd2 S12 Sb4"
_cell_length_a       3.88991
_cell_length_b       10.1813
_cell_length_c       12.1858
_cell_angle_alpha    93.6817
_cell_angle_beta     99.1842
_cell_angle_gamma    101.013

_space_group_name_H-M_alt    "P 1"
_space_group_IT_number       1

loop_
  _space_group_symop_operation_xyz
  'x, y, z'

loop_
  _atom_site_type_symbol
  _atom_site_label
  _atom_site_symmetry_multiplicity
  _atom_site_fract_x
  _atom_site_fract_y
  _atom_site_fract_z
  _atom_site_occupancy
  Mn  Mn1       1.0  0.00000  0.00000  0.00000  1.0000
  Mn  Mn2       1.0  0.18000  0.98300  0.37700  1.0000
  Mn  Mn3       1.0  0.82000  0.01650  0.62300  1.0000
  Nd  Nd1       1.0  0.89800  0.65800  0.13900  1.0000
  Nd  Nd2       1.0  0.10200  0.34200  0.86100  1.0000
  S   S1        1.0  0.42300  0.82100  0.02420  1.0000
  S   S2        1.0  0.27200  0.44200  0.10200  1.0000
  S   S3        1.0  0.14100  0.08600  0.19700  1.0000
  S   S4        1.0  0.55100  0.80900  0.29200  1.0000
  S   S5        1.0  0.93900  0.52900  0.34900  1.0000
  S   S6        1.0  0.79600  0.13600  0.45500  1.0000
  S   S7        1.0  0.20400  0.86400  0.54500  1.0000
  S   S8        1.0  0.06070  0.47100  0.65100  1.0000
  S   S9        1.0  0.44900  0.19100  0.70800  1.0000
  S   S10       1.0  0.85900  0.91400  0.80300  1.0000
  S   S11       1.0  0.72800  0.55800  0.89800  1.0000
  S   S12       1.0  0.57700  0.17900  0.97600  1.0000
  Sb  Sb1       1.0  0.72500  0.26800  0.18200  1.0000
  Sb  Sb2       1.0  0.56000  0.66700  0.45400  1.0000
  Sb  Sb3       1.0  0.44000  0.33300  0.54600  1.0000
  Sb  Sb4       1.0  0.27500  0.73200  0.81800  1.0000
