data_image0
_chemical_formula_structural       Cu3K2O12Se4
_chemical_formula_sum              "Cu3 K2 O12 Se4"
_cell_length_a       5.41093
_cell_length_b       7.07645
_cell_length_c       8.36426
_cell_angle_alpha    95.541
_cell_angle_beta     108.545
_cell_angle_gamma    92.5124

_space_group_name_H-M_alt    "P 1"
_space_group_IT_number       1

loop_
  _space_group_symop_operation_xyz
  'x, y, z'

loop_
  _atom_site_type_symbol
  _atom_site_label
  _atom_site_symmetry_multiplicity
  _atom_site_fract_x
  _atom_site_fract_y
  _atom_site_fract_z
  _atom_site_occupancy
  Cu  Cu1       1.0  0.00000  0.00000  0.00000  1.0000
  Cu  Cu2       1.0  0.60500  0.26400  0.22100  1.0000
  Cu  Cu3       1.0  0.39500  0.73600  0.77900  1.0000
  K   K1        1.0  0.15200  0.58400  0.29500  1.0000
  K   K2        1.0  0.84800  0.41600  0.70500  1.0000
  O   O1        1.0  0.73200  0.24000  0.02780  1.0000
  O   O2        1.0  0.27500  0.21100  0.03160  1.0000
  O   O3        1.0  0.62800  0.61600  0.23100  1.0000
  O   O4        1.0  0.12000  0.96000  0.24700  1.0000
  O   O5        1.0  0.94700  0.27600  0.39000  1.0000
  O   O6        1.0  0.44500  0.28200  0.39600  1.0000
  O   O7        1.0  0.55500  0.71800  0.60400  1.0000
  O   O8        1.0  0.05340  0.72400  0.61000  1.0000
  O   O9        1.0  0.88000  0.03960  0.75300  1.0000
  O   O10       1.0  0.37200  0.38400  0.76900  1.0000
  O   O11       1.0  0.72500  0.78900  0.96800  1.0000
  O   O12       1.0  0.26800  0.76000  0.97200  1.0000
  Se  Se1       1.0  0.57300  0.81200  0.13300  1.0000
  Se  Se2       1.0  0.20300  0.13200  0.42100  1.0000
  Se  Se3       1.0  0.79700  0.86800  0.57900  1.0000
  Se  Se4       1.0  0.42700  0.18800  0.86700  1.0000
