data_image0
_chemical_formula_structural       O8Pr2Pt4
_chemical_formula_sum              "O8 Pr2 Pt4"
_cell_length_a       6.61965
_cell_length_b       6.61965
_cell_length_c       6.61965
_cell_angle_alpha    120.018
_cell_angle_beta     89.9693
_cell_angle_gamma    120.018

_space_group_name_H-M_alt    "P 1"
_space_group_IT_number       1

loop_
  _space_group_symop_operation_xyz
  'x, y, z'

loop_
  _atom_site_type_symbol
  _atom_site_label
  _atom_site_symmetry_multiplicity
  _atom_site_fract_x
  _atom_site_fract_y
  _atom_site_fract_z
  _atom_site_occupancy
  O   O1        1.0  0.18100  0.78700  0.39400  1.0000
  O   O2        1.0  0.60600  0.21300  0.39400  1.0000
  O   O3        1.0  0.60600  0.78700  0.39400  1.0000
  O   O4        1.0  0.14400  0.28700  0.43100  1.0000
  O   O5        1.0  0.60600  0.21300  0.81900  1.0000
  O   O6        1.0  0.14400  0.71300  0.85600  1.0000
  O   O7        1.0  0.56900  0.71300  0.85600  1.0000
  O   O8        1.0  0.14400  0.28700  0.85600  1.0000
  Pr  Pr1       1.0  0.00000  0.00000  0.00000  1.0000
  Pr  Pr2       1.0  0.75000  0.50000  0.25000  1.0000
  Pt  Pt1       1.0  0.37500  0.75000  0.12500  1.0000
  Pt  Pt2       1.0  0.37500  0.75000  0.62500  1.0000
  Pt  Pt3       1.0  0.87500  0.25000  0.62500  1.0000
  Pt  Pt4       1.0  0.37500  0.25000  0.62500  1.0000
