data_image0
_chemical_formula_structural       Gd2Mn3S12Sb4
_chemical_formula_sum              "Gd2 Mn3 S12 Sb4"
_cell_length_a       3.85419
_cell_length_b       10.1437
_cell_length_c       12.1107
_cell_angle_alpha    93.6472
_cell_angle_beta     99.156
_cell_angle_gamma    100.952

_space_group_name_H-M_alt    "P 1"
_space_group_IT_number       1

loop_
  _space_group_symop_operation_xyz
  'x, y, z'

loop_
  _atom_site_type_symbol
  _atom_site_label
  _atom_site_symmetry_multiplicity
  _atom_site_fract_x
  _atom_site_fract_y
  _atom_site_fract_z
  _atom_site_occupancy
  Gd  Gd1       1.0  0.89600  0.65500  0.13800  1.0000
  Gd  Gd2       1.0  0.10400  0.34500  0.86200  1.0000
  Mn  Mn1       1.0  0.00000  0.00000  0.00000  1.0000
  Mn  Mn2       1.0  0.17900  0.98200  0.37600  1.0000
  Mn  Mn3       1.0  0.82100  0.01840  0.62400  1.0000
  S   S1        1.0  0.42200  0.81700  0.02610  1.0000
  S   S2        1.0  0.27300  0.44600  0.09980  1.0000
  S   S3        1.0  0.14100  0.08640  0.19600  1.0000
  S   S4        1.0  0.54700  0.80500  0.28900  1.0000
  S   S5        1.0  0.93700  0.52800  0.34600  1.0000
  S   S6        1.0  0.79600  0.13700  0.45400  1.0000
  S   S7        1.0  0.20400  0.86300  0.54600  1.0000
  S   S8        1.0  0.06300  0.47200  0.65400  1.0000
  S   S9        1.0  0.45300  0.19500  0.71100  1.0000
  S   S10       1.0  0.85900  0.91400  0.80400  1.0000
  S   S11       1.0  0.72700  0.55400  0.90000  1.0000
  S   S12       1.0  0.57800  0.18300  0.97400  1.0000
  Sb  Sb1       1.0  0.72600  0.27000  0.18200  1.0000
  Sb  Sb2       1.0  0.55900  0.66600  0.45300  1.0000
  Sb  Sb3       1.0  0.44100  0.33400  0.54700  1.0000
  Sb  Sb4       1.0  0.27400  0.73000  0.81800  1.0000
