data_image0
_chemical_formula_structural       Ca6Ir3O12
_chemical_formula_sum              "Ca6 Ir3 O12"
_cell_length_a       9.44289
_cell_length_b       9.44288
_cell_length_c       3.2412
_cell_angle_alpha    90
_cell_angle_beta     90
_cell_angle_gamma    120.007

_space_group_name_H-M_alt    "P 1"
_space_group_IT_number       1

loop_
  _space_group_symop_operation_xyz
  'x, y, z'

loop_
  _atom_site_type_symbol
  _atom_site_label
  _atom_site_symmetry_multiplicity
  _atom_site_fract_x
  _atom_site_fract_y
  _atom_site_fract_z
  _atom_site_occupancy
  Ca  Ca1       1.0  0.99996  0.99996  0.00000  1.0000
  Ca  Ca2       1.0  0.68500  0.00003  0.50000  1.0000
  Ca  Ca3       1.0  0.31500  0.31500  0.50000  1.0000
  Ca  Ca4       1.0  0.66700  0.33300  0.50000  1.0000
  Ca  Ca5       1.0  0.33300  0.66700  0.50000  1.0000
  Ca  Ca6       1.0  0.00003  0.68500  0.50000  1.0000
  Ir  Ir1       1.0  0.32000  0.99999  0.00000  1.0000
  Ir  Ir2       1.0  0.99999  0.32000  0.00000  1.0000
  Ir  Ir3       1.0  0.68000  0.68000  0.00000  1.0000
  O   O1        1.0  0.75200  0.19800  0.00000  1.0000
  O   O2        1.0  0.44600  0.24800  0.00000  1.0000
  O   O3        1.0  0.24800  0.44600  0.00000  1.0000
  O   O4        1.0  0.80200  0.55400  0.00000  1.0000
  O   O5        1.0  0.19800  0.75200  0.00000  1.0000
  O   O6        1.0  0.55400  0.80200  0.00000  1.0000
  O   O7        1.0  0.18000  0.99997  0.50000  1.0000
  O   O8        1.0  0.44500  0.00001  0.50000  1.0000
  O   O9        1.0  0.99997  0.18000  0.50000  1.0000
  O   O10       1.0  0.00001  0.44500  0.50000  1.0000
  O   O11       1.0  0.55500  0.55500  0.50000  1.0000
  O   O12       1.0  0.82000  0.82000  0.50000  1.0000
