data_image0
_chemical_formula_structural       N6NiO12Sr2
_chemical_formula_sum              "N6 Ni1 O12 Sr2"
_cell_length_a       6.91129
_cell_length_b       6.91129
_cell_length_c       6.91129
_cell_angle_alpha    120
_cell_angle_beta     90
_cell_angle_gamma    120

_space_group_name_H-M_alt    "P 1"
_space_group_IT_number       1

loop_
  _space_group_symop_operation_xyz
  'x, y, z'

loop_
  _atom_site_type_symbol
  _atom_site_label
  _atom_site_symmetry_multiplicity
  _atom_site_fract_x
  _atom_site_fract_y
  _atom_site_fract_z
  _atom_site_occupancy
  N   N1        1.0  0.20800  0.00000  0.20800  1.0000
  N   N2        1.0  0.20800  0.41600  0.20800  1.0000
  N   N3        1.0  0.79200  0.00000  0.20800  1.0000
  N   N4        1.0  0.79200  0.00000  0.79200  1.0000
  N   N5        1.0  0.20800  0.00000  0.79200  1.0000
  N   N6        1.0  0.79200  0.58400  0.79200  1.0000
  Ni  Ni1       1.0  0.00000  0.00000  0.00000  1.0000
  O   O1        1.0  0.38600  0.00000  0.00000  1.0000
  O   O2        1.0  0.61400  0.00000  0.00000  1.0000
  O   O3        1.0  0.00000  0.38600  0.00000  1.0000
  O   O4        1.0  0.38600  0.38600  0.00000  1.0000
  O   O5        1.0  0.00000  0.61400  0.00000  1.0000
  O   O6        1.0  0.61400  0.61400  0.00000  1.0000
  O   O7        1.0  0.00000  0.00000  0.38600  1.0000
  O   O8        1.0  0.00000  0.38600  0.38600  1.0000
  O   O9        1.0  0.38600  0.38600  0.38600  1.0000
  O   O10       1.0  0.00000  0.00000  0.61400  1.0000
  O   O11       1.0  0.00000  0.61400  0.61400  1.0000
  O   O12       1.0  0.61400  0.61400  0.61400  1.0000
  Sr  Sr1       1.0  0.75000  0.50000  0.25000  1.0000
  Sr  Sr2       1.0  0.25000  0.50000  0.75000  1.0000
