data_image0
_chemical_formula_structural       Ni2O8Pt4
_chemical_formula_sum              "Ni2 O8 Pt4"
_cell_length_a       6.13294
_cell_length_b       6.13294
_cell_length_c       6.13294
_cell_angle_alpha    118.365
_cell_angle_beta     92.8561
_cell_angle_gamma    118.365

_space_group_name_H-M_alt    "P 1"
_space_group_IT_number       1

loop_
  _space_group_symop_operation_xyz
  'x, y, z'

loop_
  _atom_site_type_symbol
  _atom_site_label
  _atom_site_symmetry_multiplicity
  _atom_site_fract_x
  _atom_site_fract_y
  _atom_site_fract_z
  _atom_site_occupancy
  Ni  Ni1       1.0  0.00000  0.00000  0.00000  1.0000
  Ni  Ni2       1.0  0.75000  0.50000  0.25000  1.0000
  O   O1        1.0  0.60100  0.22100  0.37900  1.0000
  O   O2        1.0  0.15800  0.77900  0.37900  1.0000
  O   O3        1.0  0.62100  0.77900  0.39900  1.0000
  O   O4        1.0  0.12900  0.27900  0.40800  1.0000
  O   O5        1.0  0.62100  0.22100  0.84200  1.0000
  O   O6        1.0  0.12900  0.72100  0.85100  1.0000
  O   O7        1.0  0.14900  0.27900  0.87100  1.0000
  O   O8        1.0  0.59200  0.72100  0.87100  1.0000
  Pt  Pt1       1.0  0.37500  0.75000  0.12500  1.0000
  Pt  Pt2       1.0  0.37500  0.25000  0.62500  1.0000
  Pt  Pt3       1.0  0.87500  0.25000  0.62500  1.0000
  Pt  Pt4       1.0  0.37500  0.75000  0.62500  1.0000
