data_image0
_chemical_formula_structural       Cl2H12MgO6
_chemical_formula_sum              "Cl2 H12 Mg1 O6"
_cell_length_a       5.9599
_cell_length_b       5.90184
_cell_length_c       5.90184
_cell_angle_alpha    70.175
_cell_angle_beta     93.3973
_cell_angle_gamma    93.3973

_space_group_name_H-M_alt    "P 1"
_space_group_IT_number       1

loop_
  _space_group_symop_operation_xyz
  'x, y, z'

loop_
  _atom_site_type_symbol
  _atom_site_label
  _atom_site_symmetry_multiplicity
  _atom_site_fract_x
  _atom_site_fract_y
  _atom_site_fract_z
  _atom_site_occupancy
  Cl  Cl1       1.0  0.61200  0.31300  0.31300  1.0000
  Cl  Cl2       1.0  0.38800  0.68700  0.68700  1.0000
  H   H1        1.0  0.32500  0.67800  0.08150  1.0000
  H   H2        1.0  0.26800  0.24700  0.24700  1.0000
  H   H3        1.0  0.00932  0.27800  0.27800  1.0000
  H   H4        1.0  0.71000  0.66600  0.28400  1.0000
  H   H5        1.0  0.67500  0.91900  0.32200  1.0000
  H   H6        1.0  0.29000  0.71600  0.33400  1.0000
  H   H7        1.0  0.71000  0.28400  0.66600  1.0000
  H   H8        1.0  0.32500  0.08150  0.67800  1.0000
  H   H9        1.0  0.29000  0.33400  0.71600  1.0000
  H   H10       1.0  0.99100  0.72200  0.72200  1.0000
  H   H11       1.0  0.73200  0.75300  0.75300  1.0000
  H   H12       1.0  0.67500  0.32200  0.91900  1.0000
  Mg  Mg1       1.0  0.00000  0.00000  0.00000  1.0000
  O   O1        1.0  0.22300  0.73800  0.17100  1.0000
  O   O2        1.0  0.11300  0.20400  0.20400  1.0000
  O   O3        1.0  0.77700  0.82900  0.26200  1.0000
  O   O4        1.0  0.22300  0.17100  0.73800  1.0000
  O   O5        1.0  0.88700  0.79600  0.79600  1.0000
  O   O6        1.0  0.77700  0.26200  0.82900  1.0000
