data_image0
_chemical_formula_structural       Ca4La2O12Sb2
_chemical_formula_sum              "Ca4 La2 O12 Sb2"
_cell_length_a       5.68343
_cell_length_b       5.95606
_cell_length_c       8.24384
_cell_angle_alpha    90
_cell_angle_beta     90.1788
_cell_angle_gamma    90

_space_group_name_H-M_alt    "P 1"
_space_group_IT_number       1

loop_
  _space_group_symop_operation_xyz
  'x, y, z'

loop_
  _atom_site_type_symbol
  _atom_site_label
  _atom_site_symmetry_multiplicity
  _atom_site_fract_x
  _atom_site_fract_y
  _atom_site_fract_z
  _atom_site_occupancy
  Ca  Ca1       1.0  0.48400  0.55200  0.24400  1.0000
  Ca  Ca2       1.0  0.01600  0.05240  0.25600  1.0000
  Ca  Ca3       1.0  0.98400  0.94800  0.74400  1.0000
  Ca  Ca4       1.0  0.51600  0.44800  0.75600  1.0000
  La  La1       1.0  0.50000  0.00000  0.00000  1.0000
  La  La2       1.0  0.00000  0.50000  0.50000  1.0000
  O   O1        1.0  0.28700  0.32400  0.05630  1.0000
  O   O2        1.0  0.16600  0.78000  0.07950  1.0000
  O   O3        1.0  0.87200  0.43200  0.22400  1.0000
  O   O4        1.0  0.62800  0.93200  0.27600  1.0000
  O   O5        1.0  0.33400  0.28000  0.42000  1.0000
  O   O6        1.0  0.21300  0.82400  0.44400  1.0000
  O   O7        1.0  0.78700  0.17600  0.55600  1.0000
  O   O8        1.0  0.66600  0.72000  0.58000  1.0000
  O   O9        1.0  0.37200  0.06840  0.72400  1.0000
  O   O10       1.0  0.12800  0.56800  0.77600  1.0000
  O   O11       1.0  0.83400  0.22000  0.92000  1.0000
  O   O12       1.0  0.71300  0.67600  0.94400  1.0000
  Sb  Sb1       1.0  0.00000  0.50000  0.00000  1.0000
  Sb  Sb2       1.0  0.50000  0.00000  0.50000  1.0000
