data_image0
_chemical_formula_structural       Mn3Pr2S12Sb4
_chemical_formula_sum              "Mn3 Pr2 S12 Sb4"
_cell_length_a       3.90324
_cell_length_b       10.1849
_cell_length_c       12.201
_cell_angle_alpha    93.5528
_cell_angle_beta     99.2043
_cell_angle_gamma    101.047

_space_group_name_H-M_alt    "P 1"
_space_group_IT_number       1

loop_
  _space_group_symop_operation_xyz
  'x, y, z'

loop_
  _atom_site_type_symbol
  _atom_site_label
  _atom_site_symmetry_multiplicity
  _atom_site_fract_x
  _atom_site_fract_y
  _atom_site_fract_z
  _atom_site_occupancy
  Mn  Mn1       1.0  0.00000  0.00000  0.00000  1.0000
  Mn  Mn2       1.0  0.18100  0.98300  0.37800  1.0000
  Mn  Mn3       1.0  0.81900  0.01690  0.62200  1.0000
  Pr  Pr1       1.0  0.89800  0.65800  0.13900  1.0000
  Pr  Pr2       1.0  0.10200  0.34200  0.86100  1.0000
  S   S1        1.0  0.42300  0.82200  0.02290  1.0000
  S   S2        1.0  0.27200  0.44000  0.10400  1.0000
  S   S3        1.0  0.14100  0.08410  0.19700  1.0000
  S   S4        1.0  0.55100  0.80900  0.29400  1.0000
  S   S5        1.0  0.93900  0.52800  0.35000  1.0000
  S   S6        1.0  0.79500  0.13700  0.45400  1.0000
  S   S7        1.0  0.20500  0.86300  0.54600  1.0000
  S   S8        1.0  0.06060  0.47200  0.65000  1.0000
  S   S9        1.0  0.44900  0.19100  0.70600  1.0000
  S   S10       1.0  0.85900  0.91600  0.80300  1.0000
  S   S11       1.0  0.72800  0.56000  0.89600  1.0000
  S   S12       1.0  0.57700  0.17800  0.97700  1.0000
  Sb  Sb1       1.0  0.72400  0.26500  0.18300  1.0000
  Sb  Sb2       1.0  0.56000  0.66700  0.45400  1.0000
  Sb  Sb3       1.0  0.44000  0.33300  0.54600  1.0000
  Sb  Sb4       1.0  0.27600  0.73500  0.81700  1.0000
