data_image0
_chemical_formula_structural       O14Rb2Te2U3
_chemical_formula_sum              "O14 Rb2 Te2 U3"
_cell_length_a       7.01753
_cell_length_b       6.98172
_cell_length_c       7.98598
_cell_angle_alpha    104.218
_cell_angle_beta     101.629
_cell_angle_gamma    99.3764

_space_group_name_H-M_alt    "P 1"
_space_group_IT_number       1

loop_
  _space_group_symop_operation_xyz
  'x, y, z'

loop_
  _atom_site_type_symbol
  _atom_site_label
  _atom_site_symmetry_multiplicity
  _atom_site_fract_x
  _atom_site_fract_y
  _atom_site_fract_z
  _atom_site_occupancy
  O   O1        1.0  0.31900  0.98300  0.02980  1.0000
  O   O2        1.0  0.95600  0.78000  0.08400  1.0000
  O   O3        1.0  0.60300  0.39700  0.16300  1.0000
  O   O4        1.0  0.96400  0.20900  0.26500  1.0000
  O   O5        1.0  0.62000  0.95400  0.32700  1.0000
  O   O6        1.0  0.36200  0.26000  0.38000  1.0000
  O   O7        1.0  0.18900  0.59200  0.48500  1.0000
  O   O8        1.0  0.81100  0.40800  0.51500  1.0000
  O   O9        1.0  0.63800  0.74000  0.62000  1.0000
  O   O10       1.0  0.38000  0.04630  0.67300  1.0000
  O   O11       1.0  0.03570  0.79100  0.73500  1.0000
  O   O12       1.0  0.39700  0.60300  0.83700  1.0000
  O   O13       1.0  0.04390  0.22000  0.91600  1.0000
  O   O14       1.0  0.68100  0.01700  0.97000  1.0000
  Rb  Rb1       1.0  0.29200  0.60800  0.16600  1.0000
  Rb  Rb2       1.0  0.70800  0.39200  0.83400  1.0000
  Te  Te1       1.0  0.15600  0.31700  0.49000  1.0000
  Te  Te2       1.0  0.84400  0.68300  0.51000  1.0000
  U   U1        1.0  0.00000  0.00000  0.00000  1.0000
  U   U2        1.0  0.60500  0.17000  0.23900  1.0000
  U   U3        1.0  0.39500  0.83000  0.76100  1.0000
