data_image0
_chemical_formula_structural       K2O14Te2U3
_chemical_formula_sum              "K2 O14 Te2 U3"
_cell_length_a       6.71557
_cell_length_b       7.01576
_cell_length_c       7.79361
_cell_angle_alpha    101.895
_cell_angle_beta     101.727
_cell_angle_gamma    99.8428

_space_group_name_H-M_alt    "P 1"
_space_group_IT_number       1

loop_
  _space_group_symop_operation_xyz
  'x, y, z'

loop_
  _atom_site_type_symbol
  _atom_site_label
  _atom_site_symmetry_multiplicity
  _atom_site_fract_x
  _atom_site_fract_y
  _atom_site_fract_z
  _atom_site_occupancy
  K   K1        1.0  0.59900  0.29200  0.16000  1.0000
  K   K2        1.0  0.40100  0.70800  0.84000  1.0000
  O   O1        1.0  0.98300  0.31900  0.02680  1.0000
  O   O2        1.0  0.76100  0.95800  0.07790  1.0000
  O   O3        1.0  0.40700  0.61100  0.16300  1.0000
  O   O4        1.0  0.19000  0.95700  0.27300  1.0000
  O   O5        1.0  0.93500  0.60100  0.33000  1.0000
  O   O6        1.0  0.26600  0.35400  0.36800  1.0000
  O   O7        1.0  0.59800  0.18500  0.47600  1.0000
  O   O8        1.0  0.40200  0.81500  0.52400  1.0000
  O   O9        1.0  0.73400  0.64600  0.63200  1.0000
  O   O10       1.0  0.06520  0.39900  0.67000  1.0000
  O   O11       1.0  0.81000  0.04250  0.72700  1.0000
  O   O12       1.0  0.59300  0.38900  0.83700  1.0000
  O   O13       1.0  0.23900  0.04200  0.92200  1.0000
  O   O14       1.0  0.01750  0.68100  0.97300  1.0000
  Te  Te1       1.0  0.31500  0.15700  0.49400  1.0000
  Te  Te2       1.0  0.68500  0.84300  0.50600  1.0000
  U   U1        1.0  0.00000  0.00000  0.00000  1.0000
  U   U2        1.0  0.16600  0.60200  0.24200  1.0000
  U   U3        1.0  0.83400  0.39800  0.75800  1.0000
