data_image0
_chemical_formula_structural       O8Pb2Pu4
_chemical_formula_sum              "O8 Pb2 Pu4"
_cell_length_a       7.16297
_cell_length_b       7.16297
_cell_length_c       7.16297
_cell_angle_alpha    120.521
_cell_angle_beta     89.1001
_cell_angle_gamma    120.521

_space_group_name_H-M_alt    "P 1"
_space_group_IT_number       1

loop_
  _space_group_symop_operation_xyz
  'x, y, z'

loop_
  _atom_site_type_symbol
  _atom_site_label
  _atom_site_symmetry_multiplicity
  _atom_site_fract_x
  _atom_site_fract_y
  _atom_site_fract_z
  _atom_site_occupancy
  O   O1        1.0  0.60800  0.77700  0.38400  1.0000
  O   O2        1.0  0.16900  0.77700  0.39200  1.0000
  O   O3        1.0  0.61600  0.22300  0.39200  1.0000
  O   O4        1.0  0.14200  0.27700  0.41900  1.0000
  O   O5        1.0  0.60800  0.22300  0.83100  1.0000
  O   O6        1.0  0.13400  0.27700  0.85800  1.0000
  O   O7        1.0  0.58100  0.72300  0.85800  1.0000
  O   O8        1.0  0.14200  0.72300  0.86600  1.0000
  Pb  Pb1       1.0  0.00000  0.00000  0.00000  1.0000
  Pb  Pb2       1.0  0.75000  0.50000  0.25000  1.0000
  Pu  Pu1       1.0  0.37500  0.75000  0.12500  1.0000
  Pu  Pu2       1.0  0.87500  0.25000  0.62500  1.0000
  Pu  Pu3       1.0  0.37500  0.75000  0.62500  1.0000
  Pu  Pu4       1.0  0.37500  0.25000  0.62500  1.0000
