data_image0
_chemical_formula_structural       C2I12Pr6Rb
_chemical_formula_sum              "C2 I12 Pr6 Rb1"
_cell_length_a       9.78614
_cell_length_b       9.76009
_cell_length_c       10.2535
_cell_angle_alpha    72.0585
_cell_angle_beta     70.9364
_cell_angle_gamma    72.6842

_space_group_name_H-M_alt    "P 1"
_space_group_IT_number       1

loop_
  _space_group_symop_operation_xyz
  'x, y, z'

loop_
  _atom_site_type_symbol
  _atom_site_label
  _atom_site_symmetry_multiplicity
  _atom_site_fract_x
  _atom_site_fract_y
  _atom_site_fract_z
  _atom_site_occupancy
  C   C1        1.0  0.49400  0.02390  0.42900  1.0000
  C   C2        1.0  0.50600  0.97600  0.57100  1.0000
  I   I1        1.0  0.80200  0.16000  0.07860  1.0000
  I   I2        1.0  0.58700  0.77700  0.14300  1.0000
  I   I3        1.0  0.35100  0.43600  0.22000  1.0000
  I   I4        1.0  0.13600  0.07040  0.29200  1.0000
  I   I5        1.0  0.92900  0.71700  0.35400  1.0000
  I   I6        1.0  0.71900  0.36700  0.43000  1.0000
  I   I7        1.0  0.28100  0.63300  0.57000  1.0000
  I   I8        1.0  0.07140  0.28300  0.64600  1.0000
  I   I9        1.0  0.86400  0.93000  0.70800  1.0000
  I   I10       1.0  0.64900  0.56400  0.78000  1.0000
  I   I11       1.0  0.41300  0.22300  0.85700  1.0000
  I   I12       1.0  0.19800  0.84000  0.92100  1.0000
  Pr  Pr1       1.0  0.47600  0.10800  0.19300  1.0000
  Pr  Pr2       1.0  0.77100  0.03090  0.41100  1.0000
  Pr  Pr3       1.0  0.59000  0.73100  0.47600  1.0000
  Pr  Pr4       1.0  0.41000  0.26900  0.52400  1.0000
  Pr  Pr5       1.0  0.22900  0.96900  0.58900  1.0000
  Pr  Pr6       1.0  0.52400  0.89200  0.80700  1.0000
  Rb  Rb1       1.0  1.00000  0.50000  1.00000  1.0000
