data_image0
_chemical_formula_structural       Cr2Np4O8
_chemical_formula_sum              "Cr2 Np4 O8"
_cell_length_a       6.76633
_cell_length_b       6.76633
_cell_length_c       6.76633
_cell_angle_alpha    117.666
_cell_angle_beta     94.0927
_cell_angle_gamma    117.666

_space_group_name_H-M_alt    "P 1"
_space_group_IT_number       1

loop_
  _space_group_symop_operation_xyz
  'x, y, z'

loop_
  _atom_site_type_symbol
  _atom_site_label
  _atom_site_symmetry_multiplicity
  _atom_site_fract_x
  _atom_site_fract_y
  _atom_site_fract_z
  _atom_site_occupancy
  Cr  Cr1       1.0  0.00000  0.00000  0.00000  1.0000
  Cr  Cr2       1.0  0.75000  0.50000  0.25000  1.0000
  Np  Np1       1.0  0.37500  0.75000  0.12500  1.0000
  Np  Np2       1.0  0.37500  0.25000  0.62500  1.0000
  Np  Np3       1.0  0.37500  0.75000  0.62500  1.0000
  Np  Np4       1.0  0.87500  0.25000  0.62500  1.0000
  O   O1        1.0  0.13100  0.76700  0.36400  1.0000
  O   O2        1.0  0.59700  0.23300  0.36400  1.0000
  O   O3        1.0  0.11400  0.26700  0.38100  1.0000
  O   O4        1.0  0.63600  0.76700  0.40300  1.0000
  O   O5        1.0  0.11400  0.73300  0.84700  1.0000
  O   O6        1.0  0.63600  0.23300  0.86900  1.0000
  O   O7        1.0  0.15300  0.26700  0.88600  1.0000
  O   O8        1.0  0.61900  0.73300  0.88600  1.0000
