data_image0
_chemical_formula_structural       O14P4SrV2
_chemical_formula_sum              "O14 P4 Sr1 V2"
_cell_length_a       4.78951
_cell_length_b       7.12467
_cell_length_c       7.81901
_cell_angle_alpha    89.8773
_cell_angle_beta     92.0656
_cell_angle_gamma    106.862

_space_group_name_H-M_alt    "P 1"
_space_group_IT_number       1

loop_
  _space_group_symop_operation_xyz
  'x, y, z'

loop_
  _atom_site_type_symbol
  _atom_site_label
  _atom_site_symmetry_multiplicity
  _atom_site_fract_x
  _atom_site_fract_y
  _atom_site_fract_z
  _atom_site_occupancy
  O   O1        1.0  0.10500  0.35000  0.07990  1.0000
  O   O2        1.0  0.49400  0.76800  0.11400  1.0000
  O   O3        1.0  0.68700  0.44600  0.21500  1.0000
  O   O4        1.0  0.17800  0.90400  0.29100  1.0000
  O   O5        1.0  0.89600  0.19700  0.34800  1.0000
  O   O6        1.0  0.19400  0.55400  0.35000  1.0000
  O   O7        1.0  0.61500  0.82000  0.43800  1.0000
  O   O8        1.0  0.38500  0.18000  0.56200  1.0000
  O   O9        1.0  0.80600  0.44600  0.65000  1.0000
  O   O10       1.0  0.10400  0.80300  0.65200  1.0000
  O   O11       1.0  0.82200  0.09640  0.70900  1.0000
  O   O12       1.0  0.31300  0.55400  0.78500  1.0000
  O   O13       1.0  0.50600  0.23200  0.88600  1.0000
  O   O14       1.0  0.89500  0.65000  0.92000  1.0000
  P   P1        1.0  0.96000  0.38300  0.24700  1.0000
  P   P2        1.0  0.38200  0.77200  0.29700  1.0000
  P   P3        1.0  0.61800  0.22800  0.70300  1.0000
  P   P4        1.0  0.03960  0.61700  0.75300  1.0000
  Sr  Sr1       1.0  0.00000  0.00000  0.00000  1.0000
  V   V1        1.0  0.50000  0.50000  1.00000  1.0000
  V   V2        1.0  0.00000  0.00000  0.50000  1.0000
