data_image0
_chemical_formula_structural       Fe2O8Te4
_chemical_formula_sum              "Fe2 O8 Te4"
_cell_length_a       6.79732
_cell_length_b       6.79732
_cell_length_c       6.79732
_cell_angle_alpha    124.483
_cell_angle_beta     82.3962
_cell_angle_gamma    124.483

_space_group_name_H-M_alt    "P 1"
_space_group_IT_number       1

loop_
  _space_group_symop_operation_xyz
  'x, y, z'

loop_
  _atom_site_type_symbol
  _atom_site_label
  _atom_site_symmetry_multiplicity
  _atom_site_fract_x
  _atom_site_fract_y
  _atom_site_fract_z
  _atom_site_occupancy
  Fe  Fe1       1.0  0.00000  0.00000  0.00000  1.0000
  Fe  Fe2       1.0  0.75000  0.50000  0.25000  1.0000
  O   O1        1.0  0.09530  0.79300  0.30200  1.0000
  O   O2        1.0  0.50900  0.20700  0.30200  1.0000
  O   O3        1.0  0.05230  0.29300  0.34500  1.0000
  O   O4        1.0  0.69800  0.79300  0.49100  1.0000
  O   O5        1.0  0.05230  0.70700  0.75900  1.0000
  O   O6        1.0  0.69800  0.20700  0.90500  1.0000
  O   O7        1.0  0.24100  0.29300  0.94800  1.0000
  O   O8        1.0  0.65500  0.70700  0.94800  1.0000
  Te  Te1       1.0  0.37500  0.75000  0.12500  1.0000
  Te  Te2       1.0  0.37500  0.25000  0.62500  1.0000
  Te  Te3       1.0  0.87500  0.25000  0.62500  1.0000
  Te  Te4       1.0  0.37500  0.75000  0.62500  1.0000
