data_image0
_chemical_formula_structural       Cr2O8U4
_chemical_formula_sum              "Cr2 O8 U4"
_cell_length_a       7.04323
_cell_length_b       7.04323
_cell_length_c       7.04323
_cell_angle_alpha    120.236
_cell_angle_beta     89.5912
_cell_angle_gamma    120.236

_space_group_name_H-M_alt    "P 1"
_space_group_IT_number       1

loop_
  _space_group_symop_operation_xyz
  'x, y, z'

loop_
  _atom_site_type_symbol
  _atom_site_label
  _atom_site_symmetry_multiplicity
  _atom_site_fract_x
  _atom_site_fract_y
  _atom_site_fract_z
  _atom_site_occupancy
  Cr  Cr1       1.0  0.00000  0.00000  0.00000  1.0000
  Cr  Cr2       1.0  0.75000  0.50000  0.25000  1.0000
  O   O1        1.0  0.60700  0.21900  0.38800  1.0000
  O   O2        1.0  0.16800  0.78100  0.38800  1.0000
  O   O3        1.0  0.61200  0.78100  0.39300  1.0000
  O   O4        1.0  0.13800  0.28100  0.41800  1.0000
  O   O5        1.0  0.61200  0.21900  0.83200  1.0000
  O   O6        1.0  0.13800  0.71900  0.85700  1.0000
  O   O7        1.0  0.14300  0.28100  0.86200  1.0000
  O   O8        1.0  0.58200  0.71900  0.86200  1.0000
  U   U1        1.0  0.37500  0.75000  0.12500  1.0000
  U   U2        1.0  0.87500  0.25000  0.62500  1.0000
  U   U3        1.0  0.37500  0.25000  0.62500  1.0000
  U   U4        1.0  0.37500  0.75000  0.62500  1.0000
