data_image0
_chemical_formula_structural       O8Tc2Zn4
_chemical_formula_sum              "O8 Tc2 Zn4"
_cell_length_a       6.08077
_cell_length_b       6.08077
_cell_length_c       6.08077
_cell_angle_alpha    119.997
_cell_angle_beta     90.0059
_cell_angle_gamma    119.997

_space_group_name_H-M_alt    "P 1"
_space_group_IT_number       1

loop_
  _space_group_symop_operation_xyz
  'x, y, z'

loop_
  _atom_site_type_symbol
  _atom_site_label
  _atom_site_symmetry_multiplicity
  _atom_site_fract_x
  _atom_site_fract_y
  _atom_site_fract_z
  _atom_site_occupancy
  O   O1        1.0  0.62100  0.24200  0.37900  1.0000
  O   O2        1.0  0.13700  0.75800  0.37900  1.0000
  O   O3        1.0  0.62100  0.75800  0.37900  1.0000
  O   O4        1.0  0.12900  0.25800  0.38700  1.0000
  O   O5        1.0  0.62100  0.24200  0.86300  1.0000
  O   O6        1.0  0.12900  0.74200  0.87100  1.0000
  O   O7        1.0  0.12900  0.25800  0.87100  1.0000
  O   O8        1.0  0.61300  0.74200  0.87100  1.0000
  Tc  Tc1       1.0  0.00000  0.00000  0.00000  1.0000
  Tc  Tc2       1.0  0.75000  0.50000  0.25000  1.0000
  Zn  Zn1       1.0  0.37500  0.75000  0.12500  1.0000
  Zn  Zn2       1.0  0.37500  0.75000  0.62500  1.0000
  Zn  Zn3       1.0  0.37500  0.25000  0.62500  1.0000
  Zn  Zn4       1.0  0.87500  0.25000  0.62500  1.0000
