data_image0
_chemical_formula_structural       As7Ni12U2
_chemical_formula_sum              "As7 Ni12 U2"
_cell_length_a       9.3667
_cell_length_b       9.36551
_cell_length_c       3.81114
_cell_angle_alpha    90
_cell_angle_beta     90
_cell_angle_gamma    120.014

_space_group_name_H-M_alt    "P 1"
_space_group_IT_number       1

loop_
  _space_group_symop_operation_xyz
  'x, y, z'

loop_
  _atom_site_type_symbol
  _atom_site_label
  _atom_site_symmetry_multiplicity
  _atom_site_fract_x
  _atom_site_fract_y
  _atom_site_fract_z
  _atom_site_occupancy
  As  As1       1.0  0.99999  0.99998  0.00000  1.0000
  As  As2       1.0  0.28600  0.40300  0.00000  1.0000
  As  As3       1.0  0.11700  0.71400  0.00000  1.0000
  As  As4       1.0  0.59700  0.88300  0.00000  1.0000
  As  As5       1.0  0.40700  0.11200  0.50000  1.0000
  As  As6       1.0  0.88800  0.29500  0.50000  1.0000
  As  As7       1.0  0.70500  0.59300  0.50000  1.0000
  Ni  Ni1       1.0  0.84900  0.12800  0.00000  1.0000
  Ni  Ni2       1.0  0.27900  0.15100  0.00000  1.0000
  Ni  Ni3       1.0  0.05550  0.43900  0.00000  1.0000
  Ni  Ni4       1.0  0.56100  0.61700  0.00000  1.0000
  Ni  Ni5       1.0  0.87200  0.72100  0.00000  1.0000
  Ni  Ni6       1.0  0.38300  0.94500  0.00000  1.0000
  Ni  Ni7       1.0  0.61900  0.04740  0.50000  1.0000
  Ni  Ni8       1.0  0.09990  0.21800  0.50000  1.0000
  Ni  Ni9       1.0  0.42900  0.38100  0.50000  1.0000
  Ni  Ni10      1.0  0.95300  0.57200  0.50000  1.0000
  Ni  Ni11      1.0  0.78200  0.88200  0.50000  1.0000
  Ni  Ni12      1.0  0.11800  0.90000  0.50000  1.0000
  U   U1        1.0  0.66700  0.33300  0.00000  1.0000
  U   U2        1.0  0.33300  0.66700  0.50000  1.0000
