data_image0
_chemical_formula_structural       O8U2Zn4
_chemical_formula_sum              "O8 U2 Zn4"
_cell_length_a       6.26814
_cell_length_b       6.26814
_cell_length_c       6.26814
_cell_angle_alpha    118.177
_cell_angle_beta     93.1878
_cell_angle_gamma    118.177

_space_group_name_H-M_alt    "P 1"
_space_group_IT_number       1

loop_
  _space_group_symop_operation_xyz
  'x, y, z'

loop_
  _atom_site_type_symbol
  _atom_site_label
  _atom_site_symmetry_multiplicity
  _atom_site_fract_x
  _atom_site_fract_y
  _atom_site_fract_z
  _atom_site_occupancy
  O   O1        1.0  0.16200  0.78500  0.37700  1.0000
  O   O2        1.0  0.59200  0.21500  0.37700  1.0000
  O   O3        1.0  0.62300  0.78500  0.40800  1.0000
  O   O4        1.0  0.12700  0.28500  0.41200  1.0000
  O   O5        1.0  0.62300  0.21500  0.83800  1.0000
  O   O6        1.0  0.12700  0.71500  0.84200  1.0000
  O   O7        1.0  0.15800  0.28500  0.87300  1.0000
  O   O8        1.0  0.58800  0.71500  0.87300  1.0000
  U   U1        1.0  0.00000  0.00000  0.00000  1.0000
  U   U2        1.0  0.75000  0.50000  0.25000  1.0000
  Zn  Zn1       1.0  0.37500  0.75000  0.12500  1.0000
  Zn  Zn2       1.0  0.37500  0.25000  0.62500  1.0000
  Zn  Zn3       1.0  0.37500  0.75000  0.62500  1.0000
  Zn  Zn4       1.0  0.87500  0.25000  0.62500  1.0000
