data_image0
_chemical_formula_structural       Ba2Ni4O8
_chemical_formula_sum              "Ba2 Ni4 O8"
_cell_length_a       6.40868
_cell_length_b       6.40868
_cell_length_c       6.40868
_cell_angle_alpha    119.994
_cell_angle_beta     90.01
_cell_angle_gamma    119.994

_space_group_name_H-M_alt    "P 1"
_space_group_IT_number       1

loop_
  _space_group_symop_operation_xyz
  'x, y, z'

loop_
  _atom_site_type_symbol
  _atom_site_label
  _atom_site_symmetry_multiplicity
  _atom_site_fract_x
  _atom_site_fract_y
  _atom_site_fract_z
  _atom_site_occupancy
  Ba  Ba1       1.0  0.00000  0.00000  0.00000  1.0000
  Ba  Ba2       1.0  0.75000  0.50000  0.25000  1.0000
  Ni  Ni1       1.0  0.37500  0.75000  0.12500  1.0000
  Ni  Ni2       1.0  0.37500  0.75000  0.62500  1.0000
  Ni  Ni3       1.0  0.37500  0.25000  0.62500  1.0000
  Ni  Ni4       1.0  0.87500  0.25000  0.62500  1.0000
  O   O1        1.0  0.20500  0.80300  0.40200  1.0000
  O   O2        1.0  0.59800  0.19700  0.40200  1.0000
  O   O3        1.0  0.59800  0.80300  0.40200  1.0000
  O   O4        1.0  0.15200  0.30300  0.45500  1.0000
  O   O5        1.0  0.59800  0.19700  0.79500  1.0000
  O   O6        1.0  0.15200  0.69700  0.84800  1.0000
  O   O7        1.0  0.15200  0.30300  0.84800  1.0000
  O   O8        1.0  0.54500  0.69700  0.84800  1.0000
