data_image0
_chemical_formula_structural       Cu3In4N5Sr8
_chemical_formula_sum              "Cu3 In4 N5 Sr8"
_cell_length_a       3.80861
_cell_length_b       11.4993
_cell_length_c       11.4993
_cell_angle_alpha    110.876
_cell_angle_beta     99.5322
_cell_angle_gamma    99.5322

_space_group_name_H-M_alt    "P 1"
_space_group_IT_number       1

loop_
  _space_group_symop_operation_xyz
  'x, y, z'

loop_
  _atom_site_type_symbol
  _atom_site_label
  _atom_site_symmetry_multiplicity
  _atom_site_fract_x
  _atom_site_fract_y
  _atom_site_fract_z
  _atom_site_occupancy
  Cu  Cu1       1.0  0.50000  0.00000  0.00000  1.0000
  Cu  Cu2       1.0  0.50000  0.80700  0.19300  1.0000
  Cu  Cu3       1.0  0.50000  0.19300  0.80700  1.0000
  In  In1       1.0  0.84700  0.34700  0.34700  1.0000
  In  In2       1.0  0.50000  0.58400  0.41600  1.0000
  In  In3       1.0  0.50000  0.41600  0.58400  1.0000
  In  In4       1.0  0.15300  0.65300  0.65300  1.0000
  N   N1        1.0  0.00000  0.00000  0.00000  1.0000
  N   N2        1.0  0.34900  0.65400  0.04300  1.0000
  N   N3        1.0  0.65100  0.95700  0.34600  1.0000
  N   N4        1.0  0.34900  0.04300  0.65400  1.0000
  N   N5        1.0  0.65100  0.34600  0.95700  1.0000
  Sr  Sr1       1.0  0.15200  0.25000  0.05400  1.0000
  Sr  Sr2       1.0  0.85100  0.56200  0.14100  1.0000
  Sr  Sr3       1.0  0.15200  0.05400  0.25000  1.0000
  Sr  Sr4       1.0  0.14900  0.85900  0.43800  1.0000
  Sr  Sr5       1.0  0.85100  0.14100  0.56200  1.0000
  Sr  Sr6       1.0  0.84800  0.94600  0.75000  1.0000
  Sr  Sr7       1.0  0.14900  0.43800  0.85900  1.0000
  Sr  Sr8       1.0  0.84800  0.75000  0.94600  1.0000
