data_image0
_chemical_formula_structural       Be2O8Re4
_chemical_formula_sum              "Be2 O8 Re4"
_cell_length_a       5.69815
_cell_length_b       5.69815
_cell_length_c       5.69815
_cell_angle_alpha    120.007
_cell_angle_beta     89.9883
_cell_angle_gamma    120.007

_space_group_name_H-M_alt    "P 1"
_space_group_IT_number       1

loop_
  _space_group_symop_operation_xyz
  'x, y, z'

loop_
  _atom_site_type_symbol
  _atom_site_label
  _atom_site_symmetry_multiplicity
  _atom_site_fract_x
  _atom_site_fract_y
  _atom_site_fract_z
  _atom_site_occupancy
  Be  Be1       1.0  0.00000  0.00000  0.00000  1.0000
  Be  Be2       1.0  0.75000  0.50000  0.25000  1.0000
  O   O1        1.0  0.11400  0.22800  0.34100  1.0000
  O   O2        1.0  0.63600  0.27200  0.36400  1.0000
  O   O3        1.0  0.09120  0.72800  0.36400  1.0000
  O   O4        1.0  0.63600  0.72800  0.36400  1.0000
  O   O5        1.0  0.11400  0.77200  0.88600  1.0000
  O   O6        1.0  0.11400  0.22800  0.88600  1.0000
  O   O7        1.0  0.65900  0.77200  0.88600  1.0000
  O   O8        1.0  0.63600  0.27200  0.90900  1.0000
  Re  Re1       1.0  0.37500  0.75000  0.12500  1.0000
  Re  Re2       1.0  0.87500  0.25000  0.62500  1.0000
  Re  Re3       1.0  0.37500  0.25000  0.62500  1.0000
  Re  Re4       1.0  0.37500  0.75000  0.62500  1.0000
