data_image0
_chemical_formula_structural       Ca4In2Nb2O12
_chemical_formula_sum              "Ca4 In2 Nb2 O12"
_cell_length_a       5.56428
_cell_length_b       5.72228
_cell_length_c       7.94731
_cell_angle_alpha    90
_cell_angle_beta     89.889
_cell_angle_gamma    90

_space_group_name_H-M_alt    "P 1"
_space_group_IT_number       1

loop_
  _space_group_symop_operation_xyz
  'x, y, z'

loop_
  _atom_site_type_symbol
  _atom_site_label
  _atom_site_symmetry_multiplicity
  _atom_site_fract_x
  _atom_site_fract_y
  _atom_site_fract_z
  _atom_site_occupancy
  Ca  Ca1       1.0  0.99100  0.45300  0.24800  1.0000
  Ca  Ca2       1.0  0.50900  0.95300  0.25200  1.0000
  Ca  Ca3       1.0  0.49100  0.04740  0.74800  1.0000
  Ca  Ca4       1.0  0.00891  0.54700  0.75200  1.0000
  In  In1       1.0  0.00000  0.00000  0.00000  1.0000
  In  In2       1.0  0.50000  0.50000  0.50000  1.0000
  Nb  Nb1       1.0  0.50000  0.50000  0.00000  1.0000
  Nb  Nb2       1.0  0.00000  0.00000  0.50000  1.0000
  O   O1        1.0  0.79500  0.68900  0.05070  1.0000
  O   O2        1.0  0.68400  0.20800  0.05790  1.0000
  O   O3        1.0  0.39500  0.54400  0.24100  1.0000
  O   O4        1.0  0.10500  0.04370  0.25900  1.0000
  O   O5        1.0  0.81600  0.70800  0.44200  1.0000
  O   O6        1.0  0.70500  0.18900  0.44900  1.0000
  O   O7        1.0  0.29500  0.81100  0.55100  1.0000
  O   O8        1.0  0.18400  0.29200  0.55800  1.0000
  O   O9        1.0  0.89500  0.95600  0.74100  1.0000
  O   O10       1.0  0.60500  0.45600  0.75900  1.0000
  O   O11       1.0  0.31600  0.79200  0.94200  1.0000
  O   O12       1.0  0.20500  0.31100  0.94900  1.0000
