data_image0
_chemical_formula_structural       Be2O8Os4
_chemical_formula_sum              "Be2 O8 Os4"
_cell_length_a       5.73951
_cell_length_b       5.73951
_cell_length_c       5.73951
_cell_angle_alpha    119.973
_cell_angle_beta     90.0471
_cell_angle_gamma    119.973

_space_group_name_H-M_alt    "P 1"
_space_group_IT_number       1

loop_
  _space_group_symop_operation_xyz
  'x, y, z'

loop_
  _atom_site_type_symbol
  _atom_site_label
  _atom_site_symmetry_multiplicity
  _atom_site_fract_x
  _atom_site_fract_y
  _atom_site_fract_z
  _atom_site_occupancy
  Be  Be1       1.0  0.00000  0.00000  0.00000  1.0000
  Be  Be2       1.0  0.75000  0.50000  0.25000  1.0000
  O   O1        1.0  0.11600  0.23200  0.34800  1.0000
  O   O2        1.0  0.63400  0.26800  0.36600  1.0000
  O   O3        1.0  0.09820  0.73200  0.36600  1.0000
  O   O4        1.0  0.63400  0.73200  0.36600  1.0000
  O   O5        1.0  0.11600  0.76800  0.88400  1.0000
  O   O6        1.0  0.11600  0.23200  0.88400  1.0000
  O   O7        1.0  0.65200  0.76800  0.88400  1.0000
  O   O8        1.0  0.63400  0.26800  0.90200  1.0000
  Os  Os1       1.0  0.37500  0.75000  0.12500  1.0000
  Os  Os2       1.0  0.37500  0.25000  0.62500  1.0000
  Os  Os3       1.0  0.37500  0.75000  0.62500  1.0000
  Os  Os4       1.0  0.87500  0.25000  0.62500  1.0000
