data_image0
_chemical_formula_structural       B2Dy4O8
_chemical_formula_sum              "B2 Dy4 O8"
_cell_length_a       6.05863
_cell_length_b       6.05863
_cell_length_c       6.05863
_cell_angle_alpha    119.996
_cell_angle_beta     90.0076
_cell_angle_gamma    119.996

_space_group_name_H-M_alt    "P 1"
_space_group_IT_number       1

loop_
  _space_group_symop_operation_xyz
  'x, y, z'

loop_
  _atom_site_type_symbol
  _atom_site_label
  _atom_site_symmetry_multiplicity
  _atom_site_fract_x
  _atom_site_fract_y
  _atom_site_fract_z
  _atom_site_occupancy
  B   B1        1.0  0.00000  0.00000  0.00000  1.0000
  B   B2        1.0  0.75000  0.50000  0.25000  1.0000
  Dy  Dy1       1.0  0.37500  0.75000  0.12500  1.0000
  Dy  Dy2       1.0  0.37500  0.75000  0.62500  1.0000
  Dy  Dy3       1.0  0.37500  0.25000  0.62500  1.0000
  Dy  Dy4       1.0  0.87500  0.25000  0.62500  1.0000
  O   O1        1.0  0.10400  0.20700  0.31100  1.0000
  O   O2        1.0  0.64600  0.70700  0.35400  1.0000
  O   O3        1.0  0.64600  0.29300  0.35400  1.0000
  O   O4        1.0  0.06090  0.70700  0.35400  1.0000
  O   O5        1.0  0.10400  0.20700  0.89600  1.0000
  O   O6        1.0  0.68900  0.79300  0.89600  1.0000
  O   O7        1.0  0.10400  0.79300  0.89600  1.0000
  O   O8        1.0  0.64600  0.29300  0.93900  1.0000
