data_image0
_chemical_formula_structural       Ba2O8Rh4
_chemical_formula_sum              "Ba2 O8 Rh4"
_cell_length_a       6.54154
_cell_length_b       6.54154
_cell_length_c       6.54154
_cell_angle_alpha    119.989
_cell_angle_beta     90.0192
_cell_angle_gamma    119.989

_space_group_name_H-M_alt    "P 1"
_space_group_IT_number       1

loop_
  _space_group_symop_operation_xyz
  'x, y, z'

loop_
  _atom_site_type_symbol
  _atom_site_label
  _atom_site_symmetry_multiplicity
  _atom_site_fract_x
  _atom_site_fract_y
  _atom_site_fract_z
  _atom_site_occupancy
  Ba  Ba1       1.0  0.00000  0.00000  0.00000  1.0000
  Ba  Ba2       1.0  0.75000  0.50000  0.25000  1.0000
  O   O1        1.0  0.59800  0.19500  0.40200  1.0000
  O   O2        1.0  0.20700  0.80500  0.40200  1.0000
  O   O3        1.0  0.59800  0.80500  0.40200  1.0000
  O   O4        1.0  0.15200  0.30500  0.45700  1.0000
  O   O5        1.0  0.59800  0.19500  0.79300  1.0000
  O   O6        1.0  0.15200  0.69500  0.84800  1.0000
  O   O7        1.0  0.15200  0.30500  0.84800  1.0000
  O   O8        1.0  0.54300  0.69500  0.84800  1.0000
  Rh  Rh1       1.0  0.37500  0.75000  0.12500  1.0000
  Rh  Rh2       1.0  0.37500  0.75000  0.62500  1.0000
  Rh  Rh3       1.0  0.87500  0.25000  0.62500  1.0000
  Rh  Rh4       1.0  0.37500  0.25000  0.62500  1.0000
