data_image0
_chemical_formula_structural       Mo2O8Pu4
_chemical_formula_sum              "Mo2 O8 Pu4"
_cell_length_a       6.85359
_cell_length_b       6.85359
_cell_length_c       6.85359
_cell_angle_alpha    121.927
_cell_angle_beta     86.6933
_cell_angle_gamma    121.927

_space_group_name_H-M_alt    "P 1"
_space_group_IT_number       1

loop_
  _space_group_symop_operation_xyz
  'x, y, z'

loop_
  _atom_site_type_symbol
  _atom_site_label
  _atom_site_symmetry_multiplicity
  _atom_site_fract_x
  _atom_site_fract_y
  _atom_site_fract_z
  _atom_site_occupancy
  Mo  Mo1       1.0  0.00000  0.00000  0.00000  1.0000
  Mo  Mo2       1.0  0.75000  0.50000  0.25000  1.0000
  O   O1        1.0  0.62300  0.72600  0.34900  1.0000
  O   O2        1.0  0.12700  0.22600  0.35300  1.0000
  O   O3        1.0  0.10300  0.72600  0.37700  1.0000
  O   O4        1.0  0.65100  0.27400  0.37700  1.0000
  O   O5        1.0  0.09890  0.22600  0.87300  1.0000
  O   O6        1.0  0.64700  0.77400  0.87300  1.0000
  O   O7        1.0  0.62300  0.27400  0.89700  1.0000
  O   O8        1.0  0.12700  0.77400  0.90100  1.0000
  Pu  Pu1       1.0  0.37500  0.75000  0.12500  1.0000
  Pu  Pu2       1.0  0.87500  0.25000  0.62500  1.0000
  Pu  Pu3       1.0  0.37500  0.25000  0.62500  1.0000
  Pu  Pu4       1.0  0.37500  0.75000  0.62500  1.0000
