data_image0
_chemical_formula_structural       B2O8Pa4
_chemical_formula_sum              "B2 O8 Pa4"
_cell_length_a       6.29374
_cell_length_b       6.29374
_cell_length_c       6.29374
_cell_angle_alpha    119.505
_cell_angle_beta     90.8591
_cell_angle_gamma    119.505

_space_group_name_H-M_alt    "P 1"
_space_group_IT_number       1

loop_
  _space_group_symop_operation_xyz
  'x, y, z'

loop_
  _atom_site_type_symbol
  _atom_site_label
  _atom_site_symmetry_multiplicity
  _atom_site_fract_x
  _atom_site_fract_y
  _atom_site_fract_z
  _atom_site_occupancy
  B   B1        1.0  0.00000  0.00000  0.00000  1.0000
  B   B2        1.0  0.75000  0.50000  0.25000  1.0000
  O   O1        1.0  0.10100  0.19600  0.29600  1.0000
  O   O2        1.0  0.64900  0.69600  0.34500  1.0000
  O   O3        1.0  0.65500  0.30400  0.35100  1.0000
  O   O4        1.0  0.04600  0.69600  0.35100  1.0000
  O   O5        1.0  0.09500  0.19600  0.89900  1.0000
  O   O6        1.0  0.70400  0.80400  0.89900  1.0000
  O   O7        1.0  0.10100  0.80400  0.90500  1.0000
  O   O8        1.0  0.64900  0.30400  0.95400  1.0000
  Pa  Pa1       1.0  0.37500  0.75000  0.12500  1.0000
  Pa  Pa2       1.0  0.37500  0.75000  0.62500  1.0000
  Pa  Pa3       1.0  0.37500  0.25000  0.62500  1.0000
  Pa  Pa4       1.0  0.87500  0.25000  0.62500  1.0000
