data_image0
_chemical_formula_structural       Cs2O8Rh4
_chemical_formula_sum              "Cs2 O8 Rh4"
_cell_length_a       6.61298
_cell_length_b       6.61298
_cell_length_c       6.61298
_cell_angle_alpha    119.991
_cell_angle_beta     90.0153
_cell_angle_gamma    119.991

_space_group_name_H-M_alt    "P 1"
_space_group_IT_number       1

loop_
  _space_group_symop_operation_xyz
  'x, y, z'

loop_
  _atom_site_type_symbol
  _atom_site_label
  _atom_site_symmetry_multiplicity
  _atom_site_fract_x
  _atom_site_fract_y
  _atom_site_fract_z
  _atom_site_occupancy
  Cs  Cs1       1.0  0.00000  0.00000  0.00000  1.0000
  Cs  Cs2       1.0  0.75000  0.50000  0.25000  1.0000
  O   O1        1.0  0.59300  0.18600  0.40700  1.0000
  O   O2        1.0  0.22200  0.81400  0.40700  1.0000
  O   O3        1.0  0.59300  0.81400  0.40700  1.0000
  O   O4        1.0  0.15700  0.31400  0.47200  1.0000
  O   O5        1.0  0.59300  0.18600  0.77800  1.0000
  O   O6        1.0  0.15700  0.68600  0.84300  1.0000
  O   O7        1.0  0.15700  0.31400  0.84300  1.0000
  O   O8        1.0  0.52800  0.68600  0.84300  1.0000
  Rh  Rh1       1.0  0.37500  0.75000  0.12500  1.0000
  Rh  Rh2       1.0  0.37500  0.25000  0.62500  1.0000
  Rh  Rh3       1.0  0.37500  0.75000  0.62500  1.0000
  Rh  Rh4       1.0  0.87500  0.25000  0.62500  1.0000
