data_image0
_chemical_formula_structural       As2O8Sn4
_chemical_formula_sum              "As2 O8 Sn4"
_cell_length_a       6.76198
_cell_length_b       6.76198
_cell_length_c       6.76198
_cell_angle_alpha    119.924
_cell_angle_beta     90.132
_cell_angle_gamma    119.924

_space_group_name_H-M_alt    "P 1"
_space_group_IT_number       1

loop_
  _space_group_symop_operation_xyz
  'x, y, z'

loop_
  _atom_site_type_symbol
  _atom_site_label
  _atom_site_symmetry_multiplicity
  _atom_site_fract_x
  _atom_site_fract_y
  _atom_site_fract_z
  _atom_site_occupancy
  As  As1       1.0  0.00000  0.00000  0.00000  1.0000
  As  As2       1.0  0.75000  0.50000  0.25000  1.0000
  O   O1        1.0  0.10600  0.21000  0.31600  1.0000
  O   O2        1.0  0.64400  0.71000  0.35500  1.0000
  O   O3        1.0  0.64500  0.29000  0.35600  1.0000
  O   O4        1.0  0.06600  0.71000  0.35600  1.0000
  O   O5        1.0  0.10500  0.21000  0.89400  1.0000
  O   O6        1.0  0.68400  0.79000  0.89400  1.0000
  O   O7        1.0  0.10600  0.79000  0.89500  1.0000
  O   O8        1.0  0.64400  0.29000  0.93400  1.0000
  Sn  Sn1       1.0  0.37500  0.75000  0.12500  1.0000
  Sn  Sn2       1.0  0.87500  0.25000  0.62500  1.0000
  Sn  Sn3       1.0  0.37500  0.75000  0.62500  1.0000
  Sn  Sn4       1.0  0.37500  0.25000  0.62500  1.0000
