data_image0
_chemical_formula_structural       B2Eu4O8
_chemical_formula_sum              "B2 Eu4 O8"
_cell_length_a       6.13826
_cell_length_b       6.13826
_cell_length_c       6.13826
_cell_angle_alpha    120
_cell_angle_beta     89.9995
_cell_angle_gamma    120

_space_group_name_H-M_alt    "P 1"
_space_group_IT_number       1

loop_
  _space_group_symop_operation_xyz
  'x, y, z'

loop_
  _atom_site_type_symbol
  _atom_site_label
  _atom_site_symmetry_multiplicity
  _atom_site_fract_x
  _atom_site_fract_y
  _atom_site_fract_z
  _atom_site_occupancy
  B   B1        1.0  0.00000  0.00000  0.00000  1.0000
  B   B2        1.0  0.75000  0.50000  0.25000  1.0000
  Eu  Eu1       1.0  0.37500  0.75000  0.12500  1.0000
  Eu  Eu2       1.0  0.37500  0.25000  0.62500  1.0000
  Eu  Eu3       1.0  0.37500  0.75000  0.62500  1.0000
  Eu  Eu4       1.0  0.87500  0.25000  0.62500  1.0000
  O   O1        1.0  0.10100  0.20100  0.30200  1.0000
  O   O2        1.0  0.64900  0.29900  0.35100  1.0000
  O   O3        1.0  0.05220  0.70100  0.35100  1.0000
  O   O4        1.0  0.64900  0.70100  0.35100  1.0000
  O   O5        1.0  0.10100  0.79900  0.89900  1.0000
  O   O6        1.0  0.10100  0.20100  0.89900  1.0000
  O   O7        1.0  0.69800  0.79900  0.89900  1.0000
  O   O8        1.0  0.64900  0.29900  0.94800  1.0000
