data_image0
_chemical_formula_structural       N12S10
_chemical_formula_sum              "N12 S10"
_cell_length_a       7.05583
_cell_length_b       7.05583
_cell_length_c       7.38165
_cell_angle_alpha    100.244
_cell_angle_beta     100.244
_cell_angle_gamma    103.681

_space_group_name_H-M_alt    "P 1"
_space_group_IT_number       1

loop_
  _space_group_symop_operation_xyz
  'x, y, z'

loop_
  _atom_site_type_symbol
  _atom_site_label
  _atom_site_symmetry_multiplicity
  _atom_site_fract_x
  _atom_site_fract_y
  _atom_site_fract_z
  _atom_site_occupancy
  N   N1        1.0  0.75900  0.47900  0.01290  1.0000
  N   N2        1.0  0.16300  0.88100  0.07170  1.0000
  N   N3        1.0  0.53700  0.83300  0.16600  1.0000
  N   N4        1.0  0.16700  0.46300  0.33400  1.0000
  N   N5        1.0  0.11900  0.83700  0.42800  1.0000
  N   N6        1.0  0.52100  0.24100  0.48700  1.0000
  N   N7        1.0  0.47900  0.75900  0.51300  1.0000
  N   N8        1.0  0.88100  0.16300  0.57200  1.0000
  N   N9        1.0  0.83300  0.53700  0.66600  1.0000
  N   N10       1.0  0.46300  0.16700  0.83400  1.0000
  N   N11       1.0  0.83700  0.11900  0.92800  1.0000
  N   N12       1.0  0.24100  0.52100  0.98700  1.0000
  S   S1        1.0  0.33000  0.76000  0.00115  1.0000
  S   S2        1.0  0.28400  0.42500  0.16700  1.0000
  S   S3        1.0  0.07810  0.92200  0.25000  1.0000
  S   S4        1.0  0.57500  0.71600  0.33300  1.0000
  S   S5        1.0  0.24000  0.67000  0.49900  1.0000
  S   S6        1.0  0.76000  0.33000  0.50100  1.0000
  S   S7        1.0  0.42500  0.28400  0.66700  1.0000
  S   S8        1.0  0.92200  0.07810  0.75000  1.0000
  S   S9        1.0  0.71600  0.57500  0.83300  1.0000
  S   S10       1.0  0.67000  0.24000  0.99900  1.0000
