data_image0
_chemical_formula_structural       Hg2I12Tl8
_chemical_formula_sum              "Hg2 I12 Tl8"
_cell_length_a       9.46198
_cell_length_b       9.46198
_cell_length_c       9.33743
_cell_angle_alpha    90
_cell_angle_beta     90
_cell_angle_gamma    90

_space_group_name_H-M_alt    "P 1"
_space_group_IT_number       1

loop_
  _space_group_symop_operation_xyz
  'x, y, z'

loop_
  _atom_site_type_symbol
  _atom_site_label
  _atom_site_symmetry_multiplicity
  _atom_site_fract_x
  _atom_site_fract_y
  _atom_site_fract_z
  _atom_site_occupancy
  Hg  Hg1       1.0  0.00000  0.00000  0.00000  1.0000
  Hg  Hg2       1.0  0.50000  0.50000  0.50000  1.0000
  I   I1        1.0  0.32700  0.14200  0.00000  1.0000
  I   I2        1.0  0.85800  0.32700  0.00000  1.0000
  I   I3        1.0  0.14200  0.67300  0.00000  1.0000
  I   I4        1.0  0.67300  0.85800  0.00000  1.0000
  I   I5        1.0  0.50000  0.50000  0.20600  1.0000
  I   I6        1.0  0.00000  0.00000  0.29400  1.0000
  I   I7        1.0  0.35800  0.17300  0.50000  1.0000
  I   I8        1.0  0.82700  0.35800  0.50000  1.0000
  I   I9        1.0  0.17300  0.64200  0.50000  1.0000
  I   I10       1.0  0.64200  0.82700  0.50000  1.0000
  I   I11       1.0  0.00000  0.00000  0.70600  1.0000
  I   I12       1.0  0.50000  0.50000  0.79400  1.0000
  Tl  Tl1       1.0  0.64800  0.14800  0.25000  1.0000
  Tl  Tl2       1.0  0.14800  0.35200  0.25000  1.0000
  Tl  Tl3       1.0  0.85200  0.64800  0.25000  1.0000
  Tl  Tl4       1.0  0.35200  0.85200  0.25000  1.0000
  Tl  Tl5       1.0  0.64800  0.14800  0.75000  1.0000
  Tl  Tl6       1.0  0.14800  0.35200  0.75000  1.0000
  Tl  Tl7       1.0  0.85200  0.64800  0.75000  1.0000
  Tl  Tl8       1.0  0.35200  0.85200  0.75000  1.0000
