data_image0
_chemical_formula_structural       Ba2Na4O12Si4
_chemical_formula_sum              "Ba2 Na4 O12 Si4"
_cell_length_a       11.4104
_cell_length_b       4.74524
_cell_length_c       5.64886
_cell_angle_alpha    90
_cell_angle_beta     91.4205
_cell_angle_gamma    90

_space_group_name_H-M_alt    "P 1"
_space_group_IT_number       1

loop_
  _space_group_symop_operation_xyz
  'x, y, z'

loop_
  _atom_site_type_symbol
  _atom_site_label
  _atom_site_symmetry_multiplicity
  _atom_site_fract_x
  _atom_site_fract_y
  _atom_site_fract_z
  _atom_site_occupancy
  Ba  Ba1       1.0  0.09650  0.24300  0.25300  1.0000
  Ba  Ba2       1.0  0.90400  0.74300  0.74700  1.0000
  Na  Na1       1.0  0.48700  0.25600  0.18500  1.0000
  Na  Na2       1.0  0.32200  0.75400  0.28800  1.0000
  Na  Na3       1.0  0.67800  0.25400  0.71200  1.0000
  Na  Na4       1.0  0.51300  0.75600  0.81500  1.0000
  O   O1        1.0  0.12300  0.72600  0.01210  1.0000
  O   O2        1.0  0.76000  0.63300  0.17700  1.0000
  O   O3        1.0  0.52300  0.73200  0.22400  1.0000
  O   O4        1.0  0.67900  0.13400  0.24900  1.0000
  O   O5        1.0  0.32200  0.25300  0.39600  1.0000
  O   O6        1.0  0.88300  0.26800  0.46600  1.0000
  O   O7        1.0  0.11700  0.76800  0.53400  1.0000
  O   O8        1.0  0.67800  0.75300  0.60400  1.0000
  O   O9        1.0  0.32100  0.63400  0.75100  1.0000
  O   O10       1.0  0.47700  0.23200  0.77600  1.0000
  O   O11       1.0  0.24000  0.13300  0.82300  1.0000
  O   O12       1.0  0.87700  0.22600  0.98800  1.0000
  Si  Si1       1.0  0.80700  0.30300  0.22400  1.0000
  Si  Si2       1.0  0.65300  0.79600  0.32300  1.0000
  Si  Si3       1.0  0.34700  0.29600  0.67700  1.0000
  Si  Si4       1.0  0.19300  0.80300  0.77600  1.0000
