data_image0
_chemical_formula_structural       Rh6Sc2Si14
_chemical_formula_sum              "Rh6 Sc2 Si14"
_cell_length_a       7.56438
_cell_length_b       7.56438
_cell_length_c       7.90351
_cell_angle_alpha    118.59
_cell_angle_beta     118.59
_cell_angle_gamma    60

_space_group_name_H-M_alt    "P 1"
_space_group_IT_number       1

loop_
  _space_group_symop_operation_xyz
  'x, y, z'

loop_
  _atom_site_type_symbol
  _atom_site_label
  _atom_site_symmetry_multiplicity
  _atom_site_fract_x
  _atom_site_fract_y
  _atom_site_fract_z
  _atom_site_occupancy
  Rh  Rh1       1.0  0.42800  0.07210  0.25000  1.0000
  Rh  Rh2       1.0  0.75000  0.42800  0.25000  1.0000
  Rh  Rh3       1.0  0.07210  0.75000  0.25000  1.0000
  Rh  Rh4       1.0  0.92800  0.25000  0.75000  1.0000
  Rh  Rh5       1.0  0.25000  0.57200  0.75000  1.0000
  Rh  Rh6       1.0  0.57200  0.92800  0.75000  1.0000
  Sc  Sc1       1.0  0.00000  0.00000  0.00000  1.0000
  Sc  Sc2       1.0  0.50000  0.50000  0.50000  1.0000
  Si  Si1       1.0  0.56700  0.17200  0.09090  1.0000
  Si  Si2       1.0  0.17200  0.35200  0.09090  1.0000
  Si  Si3       1.0  0.35200  0.56700  0.09090  1.0000
  Si  Si4       1.0  0.75000  0.75000  0.25000  1.0000
  Si  Si5       1.0  0.93300  0.14800  0.40900  1.0000
  Si  Si6       1.0  0.14800  0.32800  0.40900  1.0000
  Si  Si7       1.0  0.32800  0.93300  0.40900  1.0000
  Si  Si8       1.0  0.67200  0.06720  0.59100  1.0000
  Si  Si9       1.0  0.85200  0.67200  0.59100  1.0000
  Si  Si10      1.0  0.06720  0.85200  0.59100  1.0000
  Si  Si11      1.0  0.25000  0.25000  0.75000  1.0000
  Si  Si12      1.0  0.64800  0.43300  0.90900  1.0000
  Si  Si13      1.0  0.82800  0.64800  0.90900  1.0000
  Si  Si14      1.0  0.43300  0.82800  0.90900  1.0000
