data_image0
_chemical_formula_structural       Cd2Cl12K8
_chemical_formula_sum              "Cd2 Cl12 K8"
_cell_length_a       8.59253
_cell_length_b       8.59253
_cell_length_c       8.59253
_cell_angle_alpha    89.6447
_cell_angle_beta     89.6447
_cell_angle_gamma    89.6447

_space_group_name_H-M_alt    "P 1"
_space_group_IT_number       1

loop_
  _space_group_symop_operation_xyz
  'x, y, z'

loop_
  _atom_site_type_symbol
  _atom_site_label
  _atom_site_symmetry_multiplicity
  _atom_site_fract_x
  _atom_site_fract_y
  _atom_site_fract_z
  _atom_site_occupancy
  Cd  Cd1       1.0  0.00000  0.00000  0.00000  1.0000
  Cd  Cd2       1.0  0.50000  0.50000  0.50000  1.0000
  Cl  Cl1       1.0  0.70300  0.93100  0.05630  1.0000
  Cl  Cl2       1.0  0.94400  0.29700  0.06950  1.0000
  Cl  Cl3       1.0  0.55600  0.43100  0.20300  1.0000
  Cl  Cl4       1.0  0.06950  0.94400  0.29700  1.0000
  Cl  Cl5       1.0  0.20300  0.55600  0.43100  1.0000
  Cl  Cl6       1.0  0.56900  0.79700  0.44400  1.0000
  Cl  Cl7       1.0  0.43100  0.20300  0.55600  1.0000
  Cl  Cl8       1.0  0.79700  0.44400  0.56900  1.0000
  Cl  Cl9       1.0  0.93100  0.05630  0.70300  1.0000
  Cl  Cl10      1.0  0.44400  0.56900  0.79700  1.0000
  Cl  Cl11      1.0  0.05630  0.70300  0.93100  1.0000
  Cl  Cl12      1.0  0.29700  0.06950  0.94400  1.0000
  K   K1        1.0  0.37100  0.75000  0.12900  1.0000
  K   K2        1.0  0.25000  0.25000  0.25000  1.0000
  K   K3        1.0  0.87100  0.62900  0.25000  1.0000
  K   K4        1.0  0.75000  0.12900  0.37100  1.0000
  K   K5        1.0  0.25000  0.87100  0.62900  1.0000
  K   K6        1.0  0.12900  0.37100  0.75000  1.0000
  K   K7        1.0  0.75000  0.75000  0.75000  1.0000
  K   K8        1.0  0.62900  0.25000  0.87100  1.0000
