data_image0
_chemical_formula_structural       B4Ni6O12
_chemical_formula_sum              "B4 Ni6 O12"
_cell_length_a       5.3535
_cell_length_b       4.44618
_cell_length_c       8.27552
_cell_angle_alpha    90
_cell_angle_beta     90
_cell_angle_gamma    90

_space_group_name_H-M_alt    "P 1"
_space_group_IT_number       1

loop_
  _space_group_symop_operation_xyz
  'x, y, z'

loop_
  _atom_site_type_symbol
  _atom_site_label
  _atom_site_symmetry_multiplicity
  _atom_site_fract_x
  _atom_site_fract_y
  _atom_site_fract_z
  _atom_site_occupancy
  B   B1        1.0  0.74500  0.45600  0.00000  1.0000
  B   B2        1.0  0.25500  0.54400  0.00000  1.0000
  B   B3        1.0  0.24400  0.04360  0.50000  1.0000
  B   B4        1.0  0.75500  0.95600  0.50000  1.0000
  Ni  Ni1       1.0  0.00000  0.00000  0.00000  1.0000
  Ni  Ni2       1.0  0.50000  0.00000  0.18400  1.0000
  Ni  Ni3       1.0  0.00000  0.50000  0.31600  1.0000
  Ni  Ni4       1.0  0.50000  0.50000  0.50000  1.0000
  Ni  Ni5       1.0  0.00000  0.50000  0.68400  1.0000
  Ni  Ni6       1.0  0.50000  0.00000  0.81600  1.0000
  O   O1        1.0  0.32600  0.24600  0.00000  1.0000
  O   O2        1.0  0.67400  0.75400  0.00000  1.0000
  O   O3        1.0  0.79900  0.29700  0.14100  1.0000
  O   O4        1.0  0.20100  0.70300  0.14100  1.0000
  O   O5        1.0  0.29900  0.20300  0.35900  1.0000
  O   O6        1.0  0.70100  0.79700  0.35900  1.0000
  O   O7        1.0  0.82600  0.25400  0.50000  1.0000
  O   O8        1.0  0.17400  0.74600  0.50000  1.0000
  O   O9        1.0  0.29900  0.20300  0.64100  1.0000
  O   O10       1.0  0.70100  0.79700  0.64100  1.0000
  O   O11       1.0  0.79900  0.29700  0.85900  1.0000
  O   O12       1.0  0.20100  0.70300  0.85900  1.0000
