data_image0
_chemical_formula_structural       O7Sc2Si2
_chemical_formula_sum              "O7 Sc2 Si2"
_cell_length_a       4.67893
_cell_length_b       5.35029
_cell_length_c       5.35029
_cell_angle_alpha    105.095
_cell_angle_beta     97.6195
_cell_angle_gamma    97.6195

_space_group_name_H-M_alt    "P 1"
_space_group_IT_number       1

loop_
  _space_group_symop_operation_xyz
  'x, y, z'

loop_
  _atom_site_type_symbol
  _atom_site_label
  _atom_site_symmetry_multiplicity
  _atom_site_fract_x
  _atom_site_fract_y
  _atom_site_fract_z
  _atom_site_occupancy
  O   O1        1.0  0.00000  0.00000  0.00000  1.0000
  O   O2        1.0  0.71300  0.39600  0.07820  1.0000
  O   O3        1.0  0.22100  0.39600  0.39600  1.0000
  O   O4        1.0  0.71300  0.07820  0.39600  1.0000
  O   O5        1.0  0.28700  0.92200  0.60400  1.0000
  O   O6        1.0  0.77900  0.60400  0.60400  1.0000
  O   O7        1.0  0.28700  0.60400  0.92200  1.0000
  Sc  Sc1       1.0  0.50000  0.69100  0.30900  1.0000
  Sc  Sc2       1.0  0.50000  0.30900  0.69100  1.0000
  Si  Si1       1.0  0.90800  0.22500  0.22500  1.0000
  Si  Si2       1.0  0.09240  0.77500  0.77500  1.0000
