data_image0
_chemical_formula_structural       Cr10S12
_chemical_formula_sum              "Cr10 S12"
_cell_length_a       6.00278
_cell_length_b       6.00276
_cell_length_c       11.2784
_cell_angle_alpha    90.0004
_cell_angle_beta     89.9998
_cell_angle_gamma    120

_space_group_name_H-M_alt    "P 1"
_space_group_IT_number       1

loop_
  _space_group_symop_operation_xyz
  'x, y, z'

loop_
  _atom_site_type_symbol
  _atom_site_label
  _atom_site_symmetry_multiplicity
  _atom_site_fract_x
  _atom_site_fract_y
  _atom_site_fract_z
  _atom_site_occupancy
  Cr  Cr1       1.0  0.00000  0.00000  0.00000  1.0000
  Cr  Cr2       1.0  0.66700  0.33300  0.01030  1.0000
  Cr  Cr3       1.0  0.33300  0.66700  0.25000  1.0000
  Cr  Cr4       1.0  0.00000  0.00000  0.25000  1.0000
  Cr  Cr5       1.0  0.66700  0.33300  0.49000  1.0000
  Cr  Cr6       1.0  0.00000  0.00000  0.50000  1.0000
  Cr  Cr7       1.0  0.33300  0.66700  0.51000  1.0000
  Cr  Cr8       1.0  0.66700  0.33300  0.75000  1.0000
  Cr  Cr9       1.0  0.00000  0.00000  0.75000  1.0000
  Cr  Cr10      1.0  0.33300  0.66700  0.99000  1.0000
  S   S1        1.0  0.66200  0.98900  0.12200  1.0000
  S   S2        1.0  0.01090  0.67300  0.12200  1.0000
  S   S3        1.0  0.32700  0.33800  0.12200  1.0000
  S   S4        1.0  0.32700  0.98900  0.37800  1.0000
  S   S5        1.0  0.01090  0.33800  0.37800  1.0000
  S   S6        1.0  0.66200  0.67300  0.37800  1.0000
  S   S7        1.0  0.33800  0.32700  0.62200  1.0000
  S   S8        1.0  0.98900  0.66200  0.62200  1.0000
  S   S9        1.0  0.67300  0.01090  0.62200  1.0000
  S   S10       1.0  0.67300  0.66200  0.87800  1.0000
  S   S11       1.0  0.98900  0.32700  0.87800  1.0000
  S   S12       1.0  0.33800  0.01090  0.87800  1.0000
