data_image0
_chemical_formula_structural       Cs2Hg4O8
_chemical_formula_sum              "Cs2 Hg4 O8"
_cell_length_a       7.471
_cell_length_b       7.471
_cell_length_c       7.471
_cell_angle_alpha    125.403
_cell_angle_beta     80.8723
_cell_angle_gamma    125.403

_space_group_name_H-M_alt    "P 1"
_space_group_IT_number       1

loop_
  _space_group_symop_operation_xyz
  'x, y, z'

loop_
  _atom_site_type_symbol
  _atom_site_label
  _atom_site_symmetry_multiplicity
  _atom_site_fract_x
  _atom_site_fract_y
  _atom_site_fract_z
  _atom_site_occupancy
  Cs  Cs1       1.0  0.00000  0.00000  0.00000  1.0000
  Cs  Cs2       1.0  0.75000  0.50000  0.25000  1.0000
  Hg  Hg1       1.0  0.37500  0.75000  0.12500  1.0000
  Hg  Hg2       1.0  0.37500  0.75000  0.62500  1.0000
  Hg  Hg3       1.0  0.37500  0.25000  0.62500  1.0000
  Hg  Hg4       1.0  0.87500  0.25000  0.62500  1.0000
  O   O1        1.0  0.20400  0.81500  0.38900  1.0000
  O   O2        1.0  0.57400  0.18500  0.38900  1.0000
  O   O3        1.0  0.61100  0.81500  0.42600  1.0000
  O   O4        1.0  0.13900  0.31500  0.45400  1.0000
  O   O5        1.0  0.61100  0.18500  0.79600  1.0000
  O   O6        1.0  0.13900  0.68500  0.82400  1.0000
  O   O7        1.0  0.17600  0.31500  0.86100  1.0000
  O   O8        1.0  0.54600  0.68500  0.86100  1.0000
