data_image0
_chemical_formula_structural       Hg2Ho4O8
_chemical_formula_sum              "Hg2 Ho4 O8"
_cell_length_a       3.57606
_cell_length_b       7.00373
_cell_length_c       8.72479
_cell_angle_alpha    95.2219
_cell_angle_beta     101.826
_cell_angle_gamma    104.791

_space_group_name_H-M_alt    "P 1"
_space_group_IT_number       1

loop_
  _space_group_symop_operation_xyz
  'x, y, z'

loop_
  _atom_site_type_symbol
  _atom_site_label
  _atom_site_symmetry_multiplicity
  _atom_site_fract_x
  _atom_site_fract_y
  _atom_site_fract_z
  _atom_site_occupancy
  Hg  Hg1       1.0  0.54800  0.93500  0.16100  1.0000
  Hg  Hg2       1.0  0.45200  0.06460  0.83900  1.0000
  Ho  Ho1       1.0  0.85900  0.51900  0.19900  1.0000
  Ho  Ho2       1.0  0.34300  0.22400  0.46200  1.0000
  Ho  Ho3       1.0  0.65700  0.77600  0.53800  1.0000
  Ho  Ho4       1.0  0.14100  0.48100  0.80100  1.0000
  O   O1        1.0  0.35100  0.64800  0.05310  1.0000
  O   O2        1.0  0.74900  0.21500  0.28300  1.0000
  O   O3        1.0  0.43100  0.51300  0.34800  1.0000
  O   O4        1.0  0.12000  0.85400  0.38700  1.0000
  O   O5        1.0  0.88000  0.14600  0.61300  1.0000
  O   O6        1.0  0.56900  0.48700  0.65200  1.0000
  O   O7        1.0  0.25100  0.78500  0.71700  1.0000
  O   O8        1.0  0.64900  0.35200  0.94700  1.0000
