data_image0
_chemical_formula_structural       Cl18P2V2
_chemical_formula_sum              "Cl18 P2 V2"
_cell_length_a       6.18615
_cell_length_b       10.1551
_cell_length_c       10.1551
_cell_angle_alpha    108.408
_cell_angle_beta     90
_cell_angle_gamma    90

_space_group_name_H-M_alt    "P 1"
_space_group_IT_number       1

loop_
  _space_group_symop_operation_xyz
  'x, y, z'

loop_
  _atom_site_type_symbol
  _atom_site_label
  _atom_site_symmetry_multiplicity
  _atom_site_fract_x
  _atom_site_fract_y
  _atom_site_fract_z
  _atom_site_occupancy
  Cl  Cl1       1.0  0.81400  0.80600  0.00433  1.0000
  Cl  Cl2       1.0  0.73900  0.46800  0.03160  1.0000
  Cl  Cl3       1.0  0.81500  0.13200  0.05780  1.0000
  Cl  Cl4       1.0  0.38500  0.32800  0.17200  1.0000
  Cl  Cl5       1.0  0.18600  0.99600  0.19400  1.0000
  Cl  Cl6       1.0  0.22600  0.63400  0.19500  1.0000
  Cl  Cl7       1.0  0.77400  0.80500  0.36600  1.0000
  Cl  Cl8       1.0  0.81500  0.44200  0.36800  1.0000
  Cl  Cl9       1.0  0.61600  0.11000  0.39000  1.0000
  Cl  Cl10      1.0  0.18600  0.30600  0.50400  1.0000
  Cl  Cl11      1.0  0.26100  0.96800  0.53200  1.0000
  Cl  Cl12      1.0  0.18500  0.63200  0.55800  1.0000
  Cl  Cl13      1.0  0.61500  0.82800  0.67200  1.0000
  Cl  Cl14      1.0  0.81400  0.49600  0.69400  1.0000
  Cl  Cl15      1.0  0.77400  0.13400  0.69500  1.0000
  Cl  Cl16      1.0  0.22600  0.30500  0.86600  1.0000
  Cl  Cl17      1.0  0.18500  0.94200  0.86800  1.0000
  Cl  Cl18      1.0  0.38400  0.61000  0.89000  1.0000
  P   P1        1.0  0.00000  0.96900  0.03130  1.0000
  P   P2        1.0  0.00000  0.46900  0.53100  1.0000
  V   V1        1.0  0.38400  0.46900  0.03130  1.0000
  V   V2        1.0  0.61600  0.96900  0.53100  1.0000
