data_image0
_chemical_formula_structural       B4Na8O10
_chemical_formula_sum              "B4 Na8 O10"
_cell_length_a       6.1814
_cell_length_b       6.63245
_cell_length_c       6.63245
_cell_angle_alpha    73.7707
_cell_angle_beta     106.319
_cell_angle_gamma    106.319

_space_group_name_H-M_alt    "P 1"
_space_group_IT_number       1

loop_
  _space_group_symop_operation_xyz
  'x, y, z'

loop_
  _atom_site_type_symbol
  _atom_site_label
  _atom_site_symmetry_multiplicity
  _atom_site_fract_x
  _atom_site_fract_y
  _atom_site_fract_z
  _atom_site_occupancy
  B   B1        1.0  0.83300  0.74600  0.07090  1.0000
  B   B2        1.0  0.66700  0.92900  0.25400  1.0000
  B   B3        1.0  0.33300  0.07090  0.74600  1.0000
  B   B4        1.0  0.16700  0.25400  0.92900  1.0000
  Na  Na1       1.0  0.22900  0.68500  0.03230  1.0000
  Na  Na2       1.0  0.27100  0.96800  0.31500  1.0000
  Na  Na3       1.0  0.58000  0.40500  0.33000  1.0000
  Na  Na4       1.0  0.07980  0.33000  0.40500  1.0000
  Na  Na5       1.0  0.92000  0.67000  0.59500  1.0000
  Na  Na6       1.0  0.42000  0.59500  0.67000  1.0000
  Na  Na7       1.0  0.72900  0.03230  0.68500  1.0000
  Na  Na8       1.0  0.77100  0.31500  0.96800  1.0000
  O   O1        1.0  0.75000  0.92800  0.07160  1.0000
  O   O2        1.0  0.21700  0.31600  0.12000  1.0000
  O   O3        1.0  0.96200  0.65100  0.25900  1.0000
  O   O4        1.0  0.71700  0.12000  0.31600  1.0000
  O   O5        1.0  0.53800  0.74100  0.34900  1.0000
  O   O6        1.0  0.46200  0.25900  0.65100  1.0000
  O   O7        1.0  0.28300  0.88000  0.68400  1.0000
  O   O8        1.0  0.03850  0.34900  0.74100  1.0000
  O   O9        1.0  0.78300  0.68400  0.88000  1.0000
  O   O10       1.0  0.25000  0.07160  0.92800  1.0000
