data_image0
_chemical_formula_structural       Cd8S12Si2
_chemical_formula_sum              "Cd8 S12 Si2"
_cell_length_a       7.10814
_cell_length_b       7.1662
_cell_length_c       12.3619
_cell_angle_alpha    105.89
_cell_angle_beta     106.708
_cell_angle_gamma    60.2676

_space_group_name_H-M_alt    "P 1"
_space_group_IT_number       1

loop_
  _space_group_symop_operation_xyz
  'x, y, z'

loop_
  _atom_site_type_symbol
  _atom_site_label
  _atom_site_symmetry_multiplicity
  _atom_site_fract_x
  _atom_site_fract_y
  _atom_site_fract_z
  _atom_site_occupancy
  Cd  Cd1       1.0  0.11400  0.00000  0.00046  1.0000
  Cd  Cd2       1.0  0.62000  0.51900  0.15200  1.0000
  Cd  Cd3       1.0  0.10800  0.93700  0.30800  1.0000
  Cd  Cd4       1.0  0.42200  0.25600  0.31300  1.0000
  Cd  Cd5       1.0  0.88700  0.50000  0.50000  1.0000
  Cd  Cd6       1.0  0.01290  0.01900  0.65200  1.0000
  Cd  Cd7       1.0  0.26300  0.43700  0.80800  1.0000
  Cd  Cd8       1.0  0.63500  0.75600  0.81300  1.0000
  S   S1        1.0  0.83100  0.87200  0.01230  1.0000
  S   S2        1.0  0.33500  0.36700  0.01490  1.0000
  S   S3        1.0  0.36200  0.92800  0.19400  1.0000
  S   S4        1.0  0.05050  0.59200  0.24300  1.0000
  S   S5        1.0  0.75500  0.30100  0.31500  1.0000
  S   S6        1.0  0.76700  0.89400  0.48200  1.0000
  S   S7        1.0  0.30900  0.37200  0.51200  1.0000
  S   S8        1.0  0.31300  0.86700  0.51500  1.0000
  S   S9        1.0  0.90400  0.42800  0.69400  1.0000
  S   S10       1.0  0.60000  0.09230  0.74300  1.0000
  S   S11       1.0  0.25900  0.80100  0.81500  1.0000
  S   S12       1.0  0.82100  0.39400  0.98200  1.0000
  Si  Si1       1.0  0.02010  0.55900  0.06220  1.0000
  Si  Si2       1.0  0.48300  0.05930  0.56200  1.0000
