data_image0
_chemical_formula_structural       Ag4Cr4O14
_chemical_formula_sum              "Ag4 Cr4 O14"
_cell_length_a       6.83568
_cell_length_b       7.06555
_cell_length_c       6.44745
_cell_angle_alpha    110.772
_cell_angle_beta     95.6323
_cell_angle_gamma    91.2088

_space_group_name_H-M_alt    "P 1"
_space_group_IT_number       1

loop_
  _space_group_symop_operation_xyz
  'x, y, z'

loop_
  _atom_site_type_symbol
  _atom_site_label
  _atom_site_symmetry_multiplicity
  _atom_site_fract_x
  _atom_site_fract_y
  _atom_site_fract_z
  _atom_site_occupancy
  Ag  Ag1       1.0  0.84900  0.81400  0.24800  1.0000
  Ag  Ag2       1.0  0.36600  0.54600  0.26600  1.0000
  Ag  Ag3       1.0  0.63400  0.45400  0.73400  1.0000
  Ag  Ag4       1.0  0.15100  0.18600  0.75200  1.0000
  Cr  Cr1       1.0  0.84500  0.31200  0.20400  1.0000
  Cr  Cr2       1.0  0.33900  0.01930  0.24100  1.0000
  Cr  Cr3       1.0  0.66100  0.98100  0.75900  1.0000
  Cr  Cr4       1.0  0.15500  0.68800  0.79600  1.0000
  O   O1        1.0  0.74700  0.05850  0.04750  1.0000
  O   O2        1.0  0.05870  0.33400  0.11200  1.0000
  O   O3        1.0  0.70000  0.48100  0.15400  1.0000
  O   O4        1.0  0.49900  0.85600  0.26900  1.0000
  O   O5        1.0  0.43500  0.25300  0.33300  1.0000
  O   O6        1.0  0.14600  0.00041  0.36900  1.0000
  O   O7        1.0  0.86800  0.33500  0.46500  1.0000
  O   O8        1.0  0.13200  0.66500  0.53500  1.0000
  O   O9        1.0  0.85400  1.00000  0.63100  1.0000
  O   O10       1.0  0.56500  0.74700  0.66700  1.0000
  O   O11       1.0  0.50100  0.14400  0.73100  1.0000
  O   O12       1.0  0.30000  0.51900  0.84600  1.0000
  O   O13       1.0  0.94100  0.66600  0.88800  1.0000
  O   O14       1.0  0.25300  0.94100  0.95300  1.0000
