data_image0
_chemical_formula_structural       Ba8Cl12O2
_chemical_formula_sum              "Ba8 Cl12 O2"
_cell_length_a       10.0967
_cell_length_b       10.0966
_cell_length_c       7.65005
_cell_angle_alpha    90
_cell_angle_beta     90
_cell_angle_gamma    120

_space_group_name_H-M_alt    "P 1"
_space_group_IT_number       1

loop_
  _space_group_symop_operation_xyz
  'x, y, z'

loop_
  _atom_site_type_symbol
  _atom_site_label
  _atom_site_symmetry_multiplicity
  _atom_site_fract_x
  _atom_site_fract_y
  _atom_site_fract_z
  _atom_site_occupancy
  Ba  Ba1       1.0  0.33300  0.66700  0.43100  1.0000
  Ba  Ba2       1.0  0.39100  0.19500  0.49500  1.0000
  Ba  Ba3       1.0  0.80500  0.19500  0.49500  1.0000
  Ba  Ba4       1.0  0.80500  0.60900  0.49500  1.0000
  Ba  Ba5       1.0  0.66700  0.33300  0.93100  1.0000
  Ba  Ba6       1.0  0.19500  0.80500  0.99500  1.0000
  Ba  Ba7       1.0  0.60900  0.80500  0.99500  1.0000
  Ba  Ba8       1.0  0.19500  0.39100  0.99500  1.0000
  Cl  Cl1       1.0  0.53100  0.06110  0.21100  1.0000
  Cl  Cl2       1.0  0.53100  0.46900  0.21100  1.0000
  Cl  Cl3       1.0  0.93900  0.46900  0.21100  1.0000
  Cl  Cl4       1.0  0.14500  0.85500  0.39200  1.0000
  Cl  Cl5       1.0  0.71000  0.85500  0.39200  1.0000
  Cl  Cl6       1.0  0.14500  0.29000  0.39200  1.0000
  Cl  Cl7       1.0  0.46900  0.93900  0.71100  1.0000
  Cl  Cl8       1.0  0.06110  0.53100  0.71100  1.0000
  Cl  Cl9       1.0  0.46900  0.53100  0.71100  1.0000
  Cl  Cl10      1.0  0.29000  0.14500  0.89200  1.0000
  Cl  Cl11      1.0  0.85500  0.14500  0.89200  1.0000
  Cl  Cl12      1.0  0.85500  0.71000  0.89200  1.0000
  O   O1        1.0  0.33300  0.66700  0.09800  1.0000
  O   O2        1.0  0.66700  0.33300  0.59800  1.0000
