data_image0
_chemical_formula_structural       Cu4F12Hg4S2
_chemical_formula_sum              "Cu4 F12 Hg4 S2"
_cell_length_a       7.55433
_cell_length_b       7.55433
_cell_length_c       7.55433
_cell_angle_alpha    120
_cell_angle_beta     90
_cell_angle_gamma    120

_space_group_name_H-M_alt    "P 1"
_space_group_IT_number       1

loop_
  _space_group_symop_operation_xyz
  'x, y, z'

loop_
  _atom_site_type_symbol
  _atom_site_label
  _atom_site_symmetry_multiplicity
  _atom_site_fract_x
  _atom_site_fract_y
  _atom_site_fract_z
  _atom_site_occupancy
  Cu  Cu1       1.0  0.00000  0.00000  0.00000  1.0000
  Cu  Cu2       1.0  0.00000  0.00000  0.50000  1.0000
  Cu  Cu3       1.0  0.00000  0.50000  0.50000  1.0000
  Cu  Cu4       1.0  0.50000  0.50000  0.50000  1.0000
  F   F1        1.0  0.93200  0.86500  0.18200  1.0000
  F   F2        1.0  0.93200  0.25000  0.18200  1.0000
  F   F3        1.0  0.31800  0.25000  0.18200  1.0000
  F   F4        1.0  0.68200  0.75000  0.43200  1.0000
  F   F5        1.0  0.68200  0.36500  0.43200  1.0000
  F   F6        1.0  0.06760  0.75000  0.43200  1.0000
  F   F7        1.0  0.31800  0.63500  0.56800  1.0000
  F   F8        1.0  0.31800  0.25000  0.56800  1.0000
  F   F9        1.0  0.93200  0.25000  0.56800  1.0000
  F   F10       1.0  0.06760  0.75000  0.81800  1.0000
  F   F11       1.0  0.06760  0.13500  0.81800  1.0000
  F   F12       1.0  0.68200  0.75000  0.81800  1.0000
  Hg  Hg1       1.0  0.50000  0.00000  0.00000  1.0000
  Hg  Hg2       1.0  0.00000  0.50000  0.00000  1.0000
  Hg  Hg3       1.0  0.50000  0.50000  0.00000  1.0000
  Hg  Hg4       1.0  0.50000  0.00000  0.50000  1.0000
  S   S1        1.0  0.37500  0.75000  0.12500  1.0000
  S   S2        1.0  0.62500  0.25000  0.87500  1.0000
