data_image0
_chemical_formula_structural       O12Pt2Sr8
_chemical_formula_sum              "O12 Pt2 Sr8"
_cell_length_a       6.87657
_cell_length_b       6.87657
_cell_length_c       6.87657
_cell_angle_alpha    90.0146
_cell_angle_beta     90.0146
_cell_angle_gamma    90.0146

_space_group_name_H-M_alt    "P 1"
_space_group_IT_number       1

loop_
  _space_group_symop_operation_xyz
  'x, y, z'

loop_
  _atom_site_type_symbol
  _atom_site_label
  _atom_site_symmetry_multiplicity
  _atom_site_fract_x
  _atom_site_fract_y
  _atom_site_fract_z
  _atom_site_occupancy
  O   O1        1.0  0.92700  0.71200  0.05850  1.0000
  O   O2        1.0  0.28800  0.94200  0.07270  1.0000
  O   O3        1.0  0.42700  0.55800  0.21200  1.0000
  O   O4        1.0  0.94200  0.07270  0.28800  1.0000
  O   O5        1.0  0.55800  0.21200  0.42700  1.0000
  O   O6        1.0  0.78800  0.57300  0.44200  1.0000
  O   O7        1.0  0.21200  0.42700  0.55800  1.0000
  O   O8        1.0  0.44200  0.78800  0.57300  1.0000
  O   O9        1.0  0.05850  0.92700  0.71200  1.0000
  O   O10       1.0  0.57300  0.44200  0.78800  1.0000
  O   O11       1.0  0.71200  0.05850  0.92700  1.0000
  O   O12       1.0  0.07270  0.28800  0.94200  1.0000
  Pt  Pt1       1.0  0.00000  0.00000  0.00000  1.0000
  Pt  Pt2       1.0  0.50000  0.50000  0.50000  1.0000
  Sr  Sr1       1.0  0.75000  0.38200  0.11800  1.0000
  Sr  Sr2       1.0  0.25000  0.25000  0.25000  1.0000
  Sr  Sr3       1.0  0.61800  0.88200  0.25000  1.0000
  Sr  Sr4       1.0  0.11800  0.75000  0.38200  1.0000
  Sr  Sr5       1.0  0.88200  0.25000  0.61800  1.0000
  Sr  Sr6       1.0  0.38200  0.11800  0.75000  1.0000
  Sr  Sr7       1.0  0.75000  0.75000  0.75000  1.0000
  Sr  Sr8       1.0  0.25000  0.61800  0.88200  1.0000
