data_image0
_chemical_formula_structural       Cl4O10Sb8
_chemical_formula_sum              "Cl4 O10 Sb8"
_cell_length_a       6.17166
_cell_length_b       5.13528
_cell_length_c       13.5755
_cell_angle_alpha    90
_cell_angle_beta     97.1052
_cell_angle_gamma    90

_space_group_name_H-M_alt    "P 1"
_space_group_IT_number       1

loop_
  _space_group_symop_operation_xyz
  'x, y, z'

loop_
  _atom_site_type_symbol
  _atom_site_label
  _atom_site_symmetry_multiplicity
  _atom_site_fract_x
  _atom_site_fract_y
  _atom_site_fract_z
  _atom_site_occupancy
  Cl  Cl1       1.0  0.50300  0.70600  0.11800  1.0000
  Cl  Cl2       1.0  0.49700  0.20600  0.38200  1.0000
  Cl  Cl3       1.0  0.50300  0.79400  0.61800  1.0000
  Cl  Cl4       1.0  0.49700  0.29400  0.88200  1.0000
  O   O1        1.0  0.00000  0.50000  0.00000  1.0000
  O   O2        1.0  0.92800  0.99200  0.08200  1.0000
  O   O3        1.0  0.07880  0.33300  0.20900  1.0000
  O   O4        1.0  0.92100  0.83300  0.29100  1.0000
  O   O5        1.0  0.07190  0.49200  0.41800  1.0000
  O   O6        1.0  0.00000  0.00000  0.50000  1.0000
  O   O7        1.0  0.92800  0.50800  0.58200  1.0000
  O   O8        1.0  0.07880  0.16700  0.70900  1.0000
  O   O9        1.0  0.92100  0.66700  0.79100  1.0000
  O   O10       1.0  0.07180  0.00832  0.91800  1.0000
  Sb  Sb1       1.0  0.19200  0.22200  0.05190  1.0000
  Sb  Sb2       1.0  0.78900  0.11700  0.20100  1.0000
  Sb  Sb3       1.0  0.21100  0.61700  0.29900  1.0000
  Sb  Sb4       1.0  0.80800  0.72200  0.44800  1.0000
  Sb  Sb5       1.0  0.19200  0.27800  0.55200  1.0000
  Sb  Sb6       1.0  0.78900  0.38300  0.70100  1.0000
  Sb  Sb7       1.0  0.21100  0.88300  0.79900  1.0000
  Sb  Sb8       1.0  0.80800  0.77800  0.94800  1.0000
