data_image0
_chemical_formula_structural       Cl8S2Tl12
_chemical_formula_sum              "Cl8 S2 Tl12"
_cell_length_a       8.56937
_cell_length_b       8.56937
_cell_length_c       9.32031
_cell_angle_alpha    90
_cell_angle_beta     90
_cell_angle_gamma    90

_space_group_name_H-M_alt    "P 1"
_space_group_IT_number       1

loop_
  _space_group_symop_operation_xyz
  'x, y, z'

loop_
  _atom_site_type_symbol
  _atom_site_label
  _atom_site_symmetry_multiplicity
  _atom_site_fract_x
  _atom_site_fract_y
  _atom_site_fract_z
  _atom_site_occupancy
  Cl  Cl1       1.0  0.66800  0.16800  0.25000  1.0000
  Cl  Cl2       1.0  0.16800  0.33200  0.25000  1.0000
  Cl  Cl3       1.0  0.83200  0.66800  0.25000  1.0000
  Cl  Cl4       1.0  0.33200  0.83200  0.25000  1.0000
  Cl  Cl5       1.0  0.66800  0.16800  0.75000  1.0000
  Cl  Cl6       1.0  0.16800  0.33200  0.75000  1.0000
  Cl  Cl7       1.0  0.83200  0.66800  0.75000  1.0000
  Cl  Cl8       1.0  0.33200  0.83200  0.75000  1.0000
  S   S1        1.0  0.50000  0.50000  0.00000  1.0000
  S   S2        1.0  0.00000  0.00000  0.50000  1.0000
  Tl  Tl1       1.0  0.38300  0.17700  0.00000  1.0000
  Tl  Tl2       1.0  0.82300  0.38300  0.00000  1.0000
  Tl  Tl3       1.0  0.17700  0.61700  0.00000  1.0000
  Tl  Tl4       1.0  0.61700  0.82300  0.00000  1.0000
  Tl  Tl5       1.0  0.00000  0.00000  0.19600  1.0000
  Tl  Tl6       1.0  0.50000  0.50000  0.30400  1.0000
  Tl  Tl7       1.0  0.32300  0.11700  0.50000  1.0000
  Tl  Tl8       1.0  0.88300  0.32300  0.50000  1.0000
  Tl  Tl9       1.0  0.11700  0.67700  0.50000  1.0000
  Tl  Tl10      1.0  0.67700  0.88300  0.50000  1.0000
  Tl  Tl11      1.0  0.50000  0.50000  0.69600  1.0000
  Tl  Tl12      1.0  0.00000  0.00000  0.80400  1.0000
