data_image0
_chemical_formula_structural       Li11Mn2O8
_chemical_formula_sum              "Li11 Mn2 O8"
_cell_length_a       6.54861
_cell_length_b       6.54861
_cell_length_c       4.58671
_cell_angle_alpha    89.7007
_cell_angle_beta     89.7007
_cell_angle_gamma    90.6699

_space_group_name_H-M_alt    "P 1"
_space_group_IT_number       1

loop_
  _space_group_symop_operation_xyz
  'x, y, z'

loop_
  _atom_site_type_symbol
  _atom_site_label
  _atom_site_symmetry_multiplicity
  _atom_site_fract_x
  _atom_site_fract_y
  _atom_site_fract_z
  _atom_site_occupancy
  Li  Li1       1.0  0.25100  0.25800  0.19500  1.0000
  Li  Li2       1.0  0.53100  0.03900  0.23000  1.0000
  Li  Li3       1.0  0.96900  0.03070  0.25000  1.0000
  Li  Li4       1.0  0.54300  0.45700  0.25000  1.0000
  Li  Li5       1.0  0.96100  0.46900  0.27000  1.0000
  Li  Li6       1.0  0.74200  0.74900  0.30500  1.0000
  Li  Li7       1.0  0.22400  0.22500  0.70400  1.0000
  Li  Li8       1.0  0.46300  0.96500  0.73100  1.0000
  Li  Li9       1.0  0.47800  0.52200  0.75000  1.0000
  Li  Li10      1.0  0.03530  0.53700  0.76900  1.0000
  Li  Li11      1.0  0.77500  0.77600  0.79600  1.0000
  Mn  Mn1       1.0  0.25100  0.74900  0.25000  1.0000
  Mn  Mn2       1.0  0.76200  0.23800  0.75000  1.0000
  O   O1        1.0  0.50900  0.74600  0.04190  1.0000
  O   O2        1.0  0.98900  0.74100  0.08080  1.0000
  O   O3        1.0  0.25900  0.01090  0.41900  1.0000
  O   O4        1.0  0.25400  0.49100  0.45800  1.0000
  O   O5        1.0  0.72800  0.98600  0.51200  1.0000
  O   O6        1.0  0.75000  0.52100  0.54900  1.0000
  O   O7        1.0  0.47900  0.25000  0.95100  1.0000
  O   O8        1.0  0.01420  0.27200  0.98800  1.0000
