data_image0
_chemical_formula_structural       Ir6Sc2Si14
_chemical_formula_sum              "Ir6 Sc2 Si14"
_cell_length_a       7.55882
_cell_length_b       7.55882
_cell_length_c       7.98032
_cell_angle_alpha    90
_cell_angle_beta     118.268
_cell_angle_gamma    60

_space_group_name_H-M_alt    "P 1"
_space_group_IT_number       1

loop_
  _space_group_symop_operation_xyz
  'x, y, z'

loop_
  _atom_site_type_symbol
  _atom_site_label
  _atom_site_symmetry_multiplicity
  _atom_site_fract_x
  _atom_site_fract_y
  _atom_site_fract_z
  _atom_site_occupancy
  Ir  Ir1       1.0  0.82300  0.92700  0.25000  1.0000
  Ir  Ir2       1.0  0.50000  0.57300  0.25000  1.0000
  Ir  Ir3       1.0  0.17700  0.25000  0.25000  1.0000
  Ir  Ir4       1.0  0.82300  0.75000  0.75000  1.0000
  Ir  Ir5       1.0  0.50000  0.42700  0.75000  1.0000
  Ir  Ir6       1.0  0.17700  0.07300  0.75000  1.0000
  Sc  Sc1       1.0  0.00000  0.00000  0.00000  1.0000
  Sc  Sc2       1.0  0.00000  0.50000  0.50000  1.0000
  Si  Si1       1.0  0.91600  0.64900  0.08800  1.0000
  Si  Si2       1.0  0.73700  0.43500  0.08800  1.0000
  Si  Si3       1.0  0.52300  0.82800  0.08800  1.0000
  Si  Si4       1.0  0.50000  0.25000  0.25000  1.0000
  Si  Si5       1.0  0.47700  0.85100  0.41200  1.0000
  Si  Si6       1.0  0.26300  0.67200  0.41200  1.0000
  Si  Si7       1.0  0.08420  0.06520  0.41200  1.0000
  Si  Si8       1.0  0.91600  0.93500  0.58800  1.0000
  Si  Si9       1.0  0.73700  0.32800  0.58800  1.0000
  Si  Si10      1.0  0.52300  0.14900  0.58800  1.0000
  Si  Si11      1.0  0.50000  0.75000  0.75000  1.0000
  Si  Si12      1.0  0.47700  0.17200  0.91200  1.0000
  Si  Si13      1.0  0.26300  0.56500  0.91200  1.0000
  Si  Si14      1.0  0.08420  0.35100  0.91200  1.0000
