data_image0
_chemical_formula_structural       C4Cu2Na4O12
_chemical_formula_sum              "C4 Cu2 Na4 O12"
_cell_length_a       6.04087
_cell_length_b       8.18195
_cell_length_c       5.57994
_cell_angle_alpha    90
_cell_angle_beta     116.083
_cell_angle_gamma    90

_space_group_name_H-M_alt    "P 1"
_space_group_IT_number       1

loop_
  _space_group_symop_operation_xyz
  'x, y, z'

loop_
  _atom_site_type_symbol
  _atom_site_label
  _atom_site_symmetry_multiplicity
  _atom_site_fract_x
  _atom_site_fract_y
  _atom_site_fract_z
  _atom_site_occupancy
  C   C1        1.0  0.36800  0.76300  0.19200  1.0000
  C   C2        1.0  0.86800  0.73700  0.19200  1.0000
  C   C3        1.0  0.13200  0.26300  0.80800  1.0000
  C   C4        1.0  0.63200  0.23700  0.80800  1.0000
  Cu  Cu1       1.0  0.00000  0.00000  0.00000  1.0000
  Cu  Cu2       1.0  0.50000  0.50000  0.00000  1.0000
  Na  Na1       1.0  0.18100  0.40800  0.35900  1.0000
  Na  Na2       1.0  0.68100  0.09230  0.35900  1.0000
  Na  Na3       1.0  0.31900  0.90800  0.64100  1.0000
  Na  Na4       1.0  0.81900  0.59200  0.64100  1.0000
  O   O1        1.0  0.13200  0.21800  0.03200  1.0000
  O   O2        1.0  0.63200  0.28200  0.03200  1.0000
  O   O3        1.0  0.83500  0.58000  0.21800  1.0000
  O   O4        1.0  0.33500  0.92000  0.21800  1.0000
  O   O5        1.0  0.40200  0.66300  0.37900  1.0000
  O   O6        1.0  0.90200  0.83700  0.37900  1.0000
  O   O7        1.0  0.59800  0.33700  0.62100  1.0000
  O   O8        1.0  0.09800  0.16300  0.62100  1.0000
  O   O9        1.0  0.16500  0.42000  0.78200  1.0000
  O   O10       1.0  0.66500  0.08000  0.78200  1.0000
  O   O11       1.0  0.36800  0.71800  0.96800  1.0000
  O   O12       1.0  0.86800  0.78200  0.96800  1.0000
