data_image0
_chemical_formula_structural       Ba6Cl4Cu4O8
_chemical_formula_sum              "Ba6 Cl4 Cu4 O8"
_cell_length_a       6.55863
_cell_length_b       6.01443
_cell_length_c       10.6066
_cell_angle_alpha    90
_cell_angle_beta     90
_cell_angle_gamma    90

_space_group_name_H-M_alt    "P 1"
_space_group_IT_number       1

loop_
  _space_group_symop_operation_xyz
  'x, y, z'

loop_
  _atom_site_type_symbol
  _atom_site_label
  _atom_site_symmetry_multiplicity
  _atom_site_fract_x
  _atom_site_fract_y
  _atom_site_fract_z
  _atom_site_occupancy
  Ba  Ba1       1.0  0.75000  0.50000  0.20300  1.0000
  Ba  Ba2       1.0  0.25000  0.00000  0.21000  1.0000
  Ba  Ba3       1.0  0.25000  0.50000  0.44600  1.0000
  Ba  Ba4       1.0  0.75000  0.50000  0.55400  1.0000
  Ba  Ba5       1.0  0.75000  0.00000  0.79000  1.0000
  Ba  Ba6       1.0  0.25000  0.50000  0.79700  1.0000
  Cl  Cl1       1.0  0.75000  0.00000  0.08670  1.0000
  Cl  Cl2       1.0  0.25000  0.50000  0.11500  1.0000
  Cl  Cl3       1.0  0.75000  0.50000  0.88500  1.0000
  Cl  Cl4       1.0  0.25000  0.00000  0.91300  1.0000
  Cu  Cu1       1.0  0.75000  0.00000  0.33400  1.0000
  Cu  Cu2       1.0  0.00000  0.00000  0.50000  1.0000
  Cu  Cu3       1.0  0.50000  0.00000  0.50000  1.0000
  Cu  Cu4       1.0  0.25000  0.00000  0.66600  1.0000
  O   O1        1.0  0.53100  0.22300  0.36000  1.0000
  O   O2        1.0  0.96900  0.22300  0.36000  1.0000
  O   O3        1.0  0.53100  0.77700  0.36000  1.0000
  O   O4        1.0  0.96900  0.77700  0.36000  1.0000
  O   O5        1.0  0.03060  0.22300  0.64000  1.0000
  O   O6        1.0  0.46900  0.22300  0.64000  1.0000
  O   O7        1.0  0.03060  0.77700  0.64000  1.0000
  O   O8        1.0  0.46900  0.77700  0.64000  1.0000
