data_image0
_chemical_formula_structural       Br4O10Sb8
_chemical_formula_sum              "Br4 O10 Sb8"
_cell_length_a       6.53604
_cell_length_b       5.15601
_cell_length_c       13.5243
_cell_angle_alpha    90
_cell_angle_beta     97.6763
_cell_angle_gamma    90

_space_group_name_H-M_alt    "P 1"
_space_group_IT_number       1

loop_
  _space_group_symop_operation_xyz
  'x, y, z'

loop_
  _atom_site_type_symbol
  _atom_site_label
  _atom_site_symmetry_multiplicity
  _atom_site_fract_x
  _atom_site_fract_y
  _atom_site_fract_z
  _atom_site_occupancy
  Br  Br1       1.0  0.50200  0.71000  0.11800  1.0000
  Br  Br2       1.0  0.49800  0.21000  0.38200  1.0000
  Br  Br3       1.0  0.50200  0.79000  0.61800  1.0000
  Br  Br4       1.0  0.49800  0.29000  0.88200  1.0000
  O   O1        1.0  0.00000  0.50000  0.00000  1.0000
  O   O2        1.0  0.93000  0.99400  0.08240  1.0000
  O   O3        1.0  0.07510  0.34000  0.20900  1.0000
  O   O4        1.0  0.92500  0.84000  0.29100  1.0000
  O   O5        1.0  0.06950  0.49400  0.41800  1.0000
  O   O6        1.0  0.00000  0.00000  0.50000  1.0000
  O   O7        1.0  0.93000  0.50600  0.58200  1.0000
  O   O8        1.0  0.07510  0.16000  0.70900  1.0000
  O   O9        1.0  0.92500  0.66000  0.79100  1.0000
  O   O10       1.0  0.06950  0.00643  0.91800  1.0000
  Sb  Sb1       1.0  0.18100  0.22200  0.05340  1.0000
  Sb  Sb2       1.0  0.80000  0.12600  0.20100  1.0000
  Sb  Sb3       1.0  0.20000  0.62600  0.29900  1.0000
  Sb  Sb4       1.0  0.81900  0.72200  0.44700  1.0000
  Sb  Sb5       1.0  0.18100  0.27800  0.55300  1.0000
  Sb  Sb6       1.0  0.80000  0.37400  0.70100  1.0000
  Sb  Sb7       1.0  0.20000  0.87400  0.79900  1.0000
  Sb  Sb8       1.0  0.81900  0.77800  0.94700  1.0000
