data_image0
_chemical_formula_structural       O14Ti8
_chemical_formula_sum              "O14 Ti8"
_cell_length_a       5.58237
_cell_length_b       6.88409
_cell_length_c       7.1343
_cell_angle_alpha    64.1839
_cell_angle_beta     108.648
_cell_angle_gamma    104.443

_space_group_name_H-M_alt    "P 1"
_space_group_IT_number       1

loop_
  _space_group_symop_operation_xyz
  'x, y, z'

loop_
  _atom_site_type_symbol
  _atom_site_label
  _atom_site_symmetry_multiplicity
  _atom_site_fract_x
  _atom_site_fract_y
  _atom_site_fract_z
  _atom_site_occupancy
  O   O1        1.0  0.29200  0.44600  0.06780  1.0000
  O   O2        1.0  0.14500  0.83800  0.08410  1.0000
  O   O3        1.0  0.67400  0.72000  0.20200  1.0000
  O   O4        1.0  0.58600  0.11400  0.23000  1.0000
  O   O5        1.0  0.11400  0.03180  0.34900  1.0000
  O   O6        1.0  0.03570  0.39600  0.37500  1.0000
  O   O7        1.0  0.52500  0.32400  0.48100  1.0000
  O   O8        1.0  0.47500  0.67600  0.51900  1.0000
  O   O9        1.0  0.96400  0.60400  0.62500  1.0000
  O   O10       1.0  0.88600  0.96800  0.65100  1.0000
  O   O11       1.0  0.41400  0.88600  0.77000  1.0000
  O   O12       1.0  0.32600  0.28000  0.79800  1.0000
  O   O13       1.0  0.85500  0.16200  0.91600  1.0000
  O   O14       1.0  0.70800  0.55400  0.93200  1.0000
  Ti  Ti1       1.0  0.21800  0.13400  0.08340  1.0000
  Ti  Ti2       1.0  0.68500  0.40300  0.23800  1.0000
  Ti  Ti3       1.0  0.31800  0.59600  0.26600  1.0000
  Ti  Ti4       1.0  0.78600  0.87400  0.40900  1.0000
  Ti  Ti5       1.0  0.21400  0.12600  0.59100  1.0000
  Ti  Ti6       1.0  0.68200  0.40400  0.73400  1.0000
  Ti  Ti7       1.0  0.31500  0.59700  0.76200  1.0000
  Ti  Ti8       1.0  0.78200  0.86600  0.91700  1.0000
