data_image0
_chemical_formula_structural       Cl4Hg10O8
_chemical_formula_sum              "Cl4 Hg10 O8"
_cell_length_a       6.13585
_cell_length_b       8.88652
_cell_length_c       8.88652
_cell_angle_alpha    98.2517
_cell_angle_beta     69.8039
_cell_angle_gamma    110.196

_space_group_name_H-M_alt    "P 1"
_space_group_IT_number       1

loop_
  _space_group_symop_operation_xyz
  'x, y, z'

loop_
  _atom_site_type_symbol
  _atom_site_label
  _atom_site_symmetry_multiplicity
  _atom_site_fract_x
  _atom_site_fract_y
  _atom_site_fract_z
  _atom_site_occupancy
  Cl  Cl1       1.0  0.72500  0.10700  0.10700  1.0000
  Cl  Cl2       1.0  0.22500  0.39300  0.39300  1.0000
  Cl  Cl3       1.0  0.77500  0.60700  0.60700  1.0000
  Cl  Cl4       1.0  0.27500  0.89300  0.89300  1.0000
  Hg  Hg1       1.0  0.25000  0.59000  0.08990  1.0000
  Hg  Hg2       1.0  0.21400  0.14000  0.14000  1.0000
  Hg  Hg3       1.0  0.75000  0.75000  0.25000  1.0000
  Hg  Hg4       1.0  0.71400  0.36000  0.36000  1.0000
  Hg  Hg5       1.0  0.25000  0.91000  0.41000  1.0000
  Hg  Hg6       1.0  0.75000  0.08990  0.59000  1.0000
  Hg  Hg7       1.0  0.28600  0.64000  0.64000  1.0000
  Hg  Hg8       1.0  0.25000  0.25000  0.75000  1.0000
  Hg  Hg9       1.0  0.78600  0.86000  0.86000  1.0000
  Hg  Hg10      1.0  0.75000  0.41000  0.91000  1.0000
  O   O1        1.0  0.62900  0.67600  0.02680  1.0000
  O   O2        1.0  0.87100  0.52700  0.17600  1.0000
  O   O3        1.0  0.02020  0.97300  0.32400  1.0000
  O   O4        1.0  0.48000  0.82400  0.47300  1.0000
  O   O5        1.0  0.52000  0.17600  0.52700  1.0000
  O   O6        1.0  0.98000  0.02680  0.67600  1.0000
  O   O7        1.0  0.12900  0.47300  0.82400  1.0000
  O   O8        1.0  0.37100  0.32400  0.97300  1.0000
