data_image0
_chemical_formula_structural       C6Hg2K2N6S6
_chemical_formula_sum              "C6 Hg2 K2 N6 S6"
_cell_length_a       11.2659
_cell_length_b       4.04593
_cell_length_c       10.9652
_cell_angle_alpha    90
_cell_angle_beta     114.997
_cell_angle_gamma    90

_space_group_name_H-M_alt    "P 1"
_space_group_IT_number       1

loop_
  _space_group_symop_operation_xyz
  'x, y, z'

loop_
  _atom_site_type_symbol
  _atom_site_label
  _atom_site_symmetry_multiplicity
  _atom_site_fract_x
  _atom_site_fract_y
  _atom_site_fract_z
  _atom_site_occupancy
  C   C1        1.0  0.64000  0.25000  0.02350  1.0000
  C   C2        1.0  0.09830  0.75000  0.20000  1.0000
  C   C3        1.0  0.71400  0.75000  0.46600  1.0000
  C   C4        1.0  0.28600  0.25000  0.53400  1.0000
  C   C5        1.0  0.90200  0.25000  0.80000  1.0000
  C   C6        1.0  0.36000  0.75000  0.97700  1.0000
  Hg  Hg1       1.0  0.85100  0.75000  0.26900  1.0000
  Hg  Hg2       1.0  0.14900  0.25000  0.73100  1.0000
  K   K1        1.0  0.40400  0.25000  0.29200  1.0000
  K   K2        1.0  0.59600  0.75000  0.70800  1.0000
  N   N1        1.0  0.37900  0.75000  0.09080  1.0000
  N   N2        1.0  0.21200  0.75000  0.26600  1.0000
  N   N3        1.0  0.60100  0.75000  0.43700  1.0000
  N   N4        1.0  0.39900  0.25000  0.56300  1.0000
  N   N5        1.0  0.78800  0.25000  0.73400  1.0000
  N   N6        1.0  0.62100  0.25000  0.90900  1.0000
  S   S1        1.0  0.94000  0.75000  0.09940  1.0000
  S   S2        1.0  0.66600  0.25000  0.18400  1.0000
  S   S3        1.0  0.12700  0.25000  0.49300  1.0000
  S   S4        1.0  0.87300  0.75000  0.50700  1.0000
  S   S5        1.0  0.33400  0.75000  0.81600  1.0000
  S   S6        1.0  0.06010  0.25000  0.90100  1.0000
