data_image0
_chemical_formula_structural       Ge10Ti12
_chemical_formula_sum              "Ge10 Ti12"
_cell_length_a       5.20512
_cell_length_b       7.96621
_cell_length_c       9.72242
_cell_angle_alpha    114.185
_cell_angle_beta     105.527
_cell_angle_gamma    90

_space_group_name_H-M_alt    "P 1"
_space_group_IT_number       1

loop_
  _space_group_symop_operation_xyz
  'x, y, z'

loop_
  _atom_site_type_symbol
  _atom_site_label
  _atom_site_symmetry_multiplicity
  _atom_site_fract_x
  _atom_site_fract_y
  _atom_site_fract_z
  _atom_site_occupancy
  Ge  Ge1       1.0  0.25000  0.00000  0.00000  1.0000
  Ge  Ge2       1.0  0.75000  0.00000  0.00000  1.0000
  Ge  Ge3       1.0  0.56800  0.47100  0.13600  1.0000
  Ge  Ge4       1.0  0.06780  0.66400  0.13600  1.0000
  Ge  Ge5       1.0  0.71100  0.01030  0.42100  1.0000
  Ge  Ge6       1.0  0.21100  0.41100  0.42100  1.0000
  Ge  Ge7       1.0  0.78900  0.58900  0.57900  1.0000
  Ge  Ge8       1.0  0.28900  0.99000  0.57900  1.0000
  Ge  Ge9       1.0  0.93200  0.33600  0.86400  1.0000
  Ge  Ge10      1.0  0.43200  0.52900  0.86400  1.0000
  Ti  Ti1       1.0  0.06310  0.32100  0.12600  1.0000
  Ti  Ti2       1.0  0.56300  0.80600  0.12600  1.0000
  Ti  Ti3       1.0  0.14200  0.02790  0.28300  1.0000
  Ti  Ti4       1.0  0.64200  0.25500  0.28300  1.0000
  Ti  Ti5       1.0  0.44200  0.69200  0.38400  1.0000
  Ti  Ti6       1.0  0.94200  0.69200  0.38400  1.0000
  Ti  Ti7       1.0  0.05820  0.30800  0.61600  1.0000
  Ti  Ti8       1.0  0.55800  0.30800  0.61600  1.0000
  Ti  Ti9       1.0  0.35800  0.74500  0.71700  1.0000
  Ti  Ti10      1.0  0.85800  0.97200  0.71700  1.0000
  Ti  Ti11      1.0  0.43700  0.19400  0.87400  1.0000
  Ti  Ti12      1.0  0.93700  0.67900  0.87400  1.0000
