data_image0
_chemical_formula_structural       Hg4Nb4O14
_chemical_formula_sum              "Hg4 Nb4 O14"
_cell_length_a       7.44689
_cell_length_b       7.44689
_cell_length_c       7.44689
_cell_angle_alpha    120
_cell_angle_beta     90
_cell_angle_gamma    120

_space_group_name_H-M_alt    "P 1"
_space_group_IT_number       1

loop_
  _space_group_symop_operation_xyz
  'x, y, z'

loop_
  _atom_site_type_symbol
  _atom_site_label
  _atom_site_symmetry_multiplicity
  _atom_site_fract_x
  _atom_site_fract_y
  _atom_site_fract_z
  _atom_site_occupancy
  Hg  Hg1       1.0  0.00000  0.50000  0.00000  1.0000
  Hg  Hg2       1.0  0.00000  0.00000  0.50000  1.0000
  Hg  Hg3       1.0  0.50000  0.00000  0.50000  1.0000
  Hg  Hg4       1.0  0.00000  0.50000  0.50000  1.0000
  Nb  Nb1       1.0  0.00000  0.00000  0.00000  1.0000
  Nb  Nb2       1.0  0.50000  0.00000  0.00000  1.0000
  Nb  Nb3       1.0  0.50000  0.50000  0.00000  1.0000
  Nb  Nb4       1.0  0.50000  0.50000  0.50000  1.0000
  O   O1        1.0  0.81600  0.13300  0.06650  1.0000
  O   O2        1.0  0.43400  0.75000  0.06650  1.0000
  O   O3        1.0  0.81600  0.75000  0.06650  1.0000
  O   O4        1.0  0.56600  0.25000  0.31600  1.0000
  O   O5        1.0  0.56600  0.63300  0.31600  1.0000
  O   O6        1.0  0.18400  0.25000  0.31600  1.0000
  O   O7        1.0  0.12500  0.75000  0.37500  1.0000
  O   O8        1.0  0.87500  0.25000  0.62500  1.0000
  O   O9        1.0  0.43400  0.75000  0.68400  1.0000
  O   O10       1.0  0.81600  0.75000  0.68400  1.0000
  O   O11       1.0  0.43400  0.36700  0.68400  1.0000
  O   O12       1.0  0.18400  0.25000  0.93400  1.0000
  O   O13       1.0  0.56600  0.25000  0.93400  1.0000
  O   O14       1.0  0.18400  0.86700  0.93400  1.0000
