data_image0
_chemical_formula_structural       Ca4O14V4
_chemical_formula_sum              "Ca4 O14 V4"
_cell_length_a       6.64606
_cell_length_b       6.88213
_cell_length_c       6.97755
_cell_angle_alpha    86.3761
_cell_angle_beta     63.8966
_cell_angle_gamma    83.6906

_space_group_name_H-M_alt    "P 1"
_space_group_IT_number       1

loop_
  _space_group_symop_operation_xyz
  'x, y, z'

loop_
  _atom_site_type_symbol
  _atom_site_label
  _atom_site_symmetry_multiplicity
  _atom_site_fract_x
  _atom_site_fract_y
  _atom_site_fract_z
  _atom_site_occupancy
  Ca  Ca1       1.0  0.26900  0.56200  0.26500  1.0000
  Ca  Ca2       1.0  0.74200  0.84200  0.33000  1.0000
  Ca  Ca3       1.0  0.25800  0.15800  0.67000  1.0000
  Ca  Ca4       1.0  0.73100  0.43800  0.73500  1.0000
  O   O1        1.0  0.05060  0.19700  0.05820  1.0000
  O   O2        1.0  0.65500  0.44900  0.09980  1.0000
  O   O3        1.0  0.53100  0.89700  0.13300  1.0000
  O   O4        1.0  0.10300  0.87200  0.27000  1.0000
  O   O5        1.0  0.25000  0.22100  0.32900  1.0000
  O   O6        1.0  0.86900  0.51100  0.35900  1.0000
  O   O7        1.0  0.63900  0.18200  0.42700  1.0000
  O   O8        1.0  0.36100  0.81800  0.57300  1.0000
  O   O9        1.0  0.13100  0.48900  0.64100  1.0000
  O   O10       1.0  0.75000  0.77900  0.67100  1.0000
  O   O11       1.0  0.89700  0.12800  0.73000  1.0000
  O   O12       1.0  0.46900  0.10300  0.86700  1.0000
  O   O13       1.0  0.34500  0.55100  0.90000  1.0000
  O   O14       1.0  0.94900  0.80300  0.94200  1.0000
  V   V1        1.0  0.27300  0.05540  0.15300  1.0000
  V   V2        1.0  0.80400  0.33500  0.23100  1.0000
  V   V3        1.0  0.19600  0.66500  0.76900  1.0000
  V   V4        1.0  0.72700  0.94500  0.84700  1.0000
