data_image0
_chemical_formula_structural       Ho2O8Os4
_chemical_formula_sum              "Ho2 O8 Os4"
_cell_length_a       6.33096
_cell_length_b       6.33096
_cell_length_c       6.33096
_cell_angle_alpha    119.978
_cell_angle_beta     90.0378
_cell_angle_gamma    119.978

_space_group_name_H-M_alt    "P 1"
_space_group_IT_number       1

loop_
  _space_group_symop_operation_xyz
  'x, y, z'

loop_
  _atom_site_type_symbol
  _atom_site_label
  _atom_site_symmetry_multiplicity
  _atom_site_fract_x
  _atom_site_fract_y
  _atom_site_fract_z
  _atom_site_occupancy
  Ho  Ho1       1.0  0.00000  0.00000  0.00000  1.0000
  Ho  Ho2       1.0  0.75000  0.50000  0.25000  1.0000
  O   O1        1.0  0.17100  0.78100  0.39000  1.0000
  O   O2        1.0  0.60900  0.21900  0.39000  1.0000
  O   O3        1.0  0.61000  0.78100  0.39100  1.0000
  O   O4        1.0  0.14000  0.28100  0.42100  1.0000
  O   O5        1.0  0.61000  0.21900  0.82900  1.0000
  O   O6        1.0  0.14000  0.71900  0.85900  1.0000
  O   O7        1.0  0.57900  0.71900  0.86000  1.0000
  O   O8        1.0  0.14100  0.28100  0.86000  1.0000
  Os  Os1       1.0  0.37500  0.75000  0.12500  1.0000
  Os  Os2       1.0  0.87500  0.25000  0.62500  1.0000
  Os  Os3       1.0  0.37500  0.75000  0.62500  1.0000
  Os  Os4       1.0  0.37500  0.25000  0.62500  1.0000
