data_image0
_chemical_formula_structural       Cd8Ge2S12
_chemical_formula_sum              "Cd8 Ge2 S12"
_cell_length_a       7.18787
_cell_length_b       7.21207
_cell_length_c       12.4817
_cell_angle_alpha    90.5549
_cell_angle_beta     106.734
_cell_angle_gamma    60.1109

_space_group_name_H-M_alt    "P 1"
_space_group_IT_number       1

loop_
  _space_group_symop_operation_xyz
  'x, y, z'

loop_
  _atom_site_type_symbol
  _atom_site_label
  _atom_site_symmetry_multiplicity
  _atom_site_fract_x
  _atom_site_fract_y
  _atom_site_fract_z
  _atom_site_occupancy
  Cd  Cd1       1.0  0.08020  0.00170  0.00000  1.0000
  Cd  Cd2       1.0  0.76800  0.68300  0.00298  1.0000
  Cd  Cd3       1.0  0.49000  0.43900  0.19100  1.0000
  Cd  Cd4       1.0  0.51300  0.92200  0.34400  1.0000
  Cd  Cd5       1.0  0.41800  0.50200  0.50000  1.0000
  Cd  Cd6       1.0  0.05180  0.18300  0.50300  1.0000
  Cd  Cd7       1.0  0.76200  0.93900  0.69100  1.0000
  Cd  Cd8       1.0  0.40900  0.42200  0.84400  1.0000
  Ge  Ge1       1.0  0.95700  0.87900  0.25300  1.0000
  Ge  Ge2       1.0  0.91700  0.37900  0.75300  1.0000
  S   S1        1.0  0.43900  0.63800  0.00621  1.0000
  S   S2        1.0  0.58100  0.04920  0.17300  1.0000
  S   S3        1.0  0.08460  0.55700  0.20000  1.0000
  S   S4        1.0  0.08210  0.07920  0.20400  1.0000
  S   S5        1.0  0.66000  0.51200  0.38500  1.0000
  S   S6        1.0  0.01930  0.84500  0.43900  1.0000
  S   S7        1.0  0.42900  0.13800  0.50600  1.0000
  S   S8        1.0  0.04240  0.54900  0.67300  1.0000
  S   S9        1.0  0.05790  0.05700  0.70000  1.0000
  S   S10       1.0  0.54300  0.57900  0.70400  1.0000
  S   S11       1.0  0.71300  0.01210  0.88500  1.0000
  S   S12       1.0  0.07430  0.34500  0.93900  1.0000
