data_image0
_chemical_formula_structural       Nb4O14Sr4
_chemical_formula_sum              "Nb4 O14 Sr4"
_cell_length_a       3.98151
_cell_length_b       5.72178
_cell_length_c       13.4802
_cell_angle_alpha    90
_cell_angle_beta     81.5075
_cell_angle_gamma    90

_space_group_name_H-M_alt    "P 1"
_space_group_IT_number       1

loop_
  _space_group_symop_operation_xyz
  'x, y, z'

loop_
  _atom_site_type_symbol
  _atom_site_label
  _atom_site_symmetry_multiplicity
  _atom_site_fract_x
  _atom_site_fract_y
  _atom_site_fract_z
  _atom_site_occupancy
  Nb  Nb1       1.0  0.94100  0.96200  0.11700  1.0000
  Nb  Nb2       1.0  0.83700  0.49200  0.32600  1.0000
  Nb  Nb3       1.0  0.16300  0.99200  0.67400  1.0000
  Nb  Nb4       1.0  0.05870  0.46200  0.88300  1.0000
  O   O1        1.0  0.99100  0.22000  0.01840  1.0000
  O   O2        1.0  0.45100  0.93600  0.09750  1.0000
  O   O3        1.0  0.90800  0.65100  0.18400  1.0000
  O   O4        1.0  0.88600  0.15800  0.22800  1.0000
  O   O5        1.0  0.34900  0.45600  0.30300  1.0000
  O   O6        1.0  0.79900  0.76100  0.40200  1.0000
  O   O7        1.0  0.78300  0.27900  0.43400  1.0000
  O   O8        1.0  0.21700  0.77900  0.56600  1.0000
  O   O9        1.0  0.20100  0.26100  0.59800  1.0000
  O   O10       1.0  0.65100  0.95600  0.69700  1.0000
  O   O11       1.0  0.11400  0.65800  0.77200  1.0000
  O   O12       1.0  0.09220  0.15100  0.81600  1.0000
  O   O13       1.0  0.54900  0.43600  0.90200  1.0000
  O   O14       1.0  0.00919  0.72000  0.98200  1.0000
  Sr  Sr1       1.0  0.44800  0.46000  0.10400  1.0000
  Sr  Sr2       1.0  0.29400  0.02910  0.41100  1.0000
  Sr  Sr3       1.0  0.70600  0.52900  0.58900  1.0000
  Sr  Sr4       1.0  0.55200  0.96000  0.89600  1.0000
