data_image0
_chemical_formula_structural       O14Sr4Ta4
_chemical_formula_sum              "O14 Sr4 Ta4"
_cell_length_a       13.0969
_cell_length_b       13.0969
_cell_length_c       5.61336
_cell_angle_alpha    90
_cell_angle_beta     90
_cell_angle_gamma    17.4313

_space_group_name_H-M_alt    "P 1"
_space_group_IT_number       1

loop_
  _space_group_symop_operation_xyz
  'x, y, z'

loop_
  _atom_site_type_symbol
  _atom_site_label
  _atom_site_symmetry_multiplicity
  _atom_site_fract_x
  _atom_site_fract_y
  _atom_site_fract_z
  _atom_site_occupancy
  O   O1        1.0  0.78100  0.78100  0.95900  1.0000
  O   O2        1.0  0.21900  0.21900  0.45900  1.0000
  O   O3        1.0  0.88500  0.88500  0.06380  1.0000
  O   O4        1.0  0.11500  0.11500  0.56400  1.0000
  O   O5        1.0  0.34600  0.34600  0.76500  1.0000
  O   O6        1.0  0.65400  0.65400  0.26500  1.0000
  O   O7        1.0  0.45000  0.45000  0.27800  1.0000
  O   O8        1.0  0.55000  0.55000  0.77800  1.0000
  O   O9        1.0  0.79700  0.79700  0.46800  1.0000
  O   O10       1.0  0.20300  0.20300  0.96800  1.0000
  O   O11       1.0  0.90700  0.90700  0.57300  1.0000
  O   O12       1.0  0.09330  0.09330  0.07290  1.0000
  O   O13       1.0  0.00851  0.00851  0.49400  1.0000
  O   O14       1.0  0.99100  0.99100  0.99400  1.0000
  Sr  Sr1       1.0  0.29700  0.29700  0.20900  1.0000
  Sr  Sr2       1.0  0.70300  0.70300  0.70900  1.0000
  Sr  Sr3       1.0  0.44500  0.44500  0.77800  1.0000
  Sr  Sr4       1.0  0.55500  0.55500  0.27800  1.0000
  Ta  Ta1       1.0  0.94200  0.94200  0.27000  1.0000
  Ta  Ta2       1.0  0.05770  0.05770  0.77000  1.0000
  Ta  Ta3       1.0  0.83500  0.83500  0.74200  1.0000
  Ta  Ta4       1.0  0.16500  0.16500  0.24200  1.0000
