data_image0
_chemical_formula_structural       C8K4N8Zn2
_chemical_formula_sum              "C8 K4 N8 Zn2"
_cell_length_a       8.79432
_cell_length_b       8.79432
_cell_length_c       8.79432
_cell_angle_alpha    120
_cell_angle_beta     90
_cell_angle_gamma    120

_space_group_name_H-M_alt    "P 1"
_space_group_IT_number       1

loop_
  _space_group_symop_operation_xyz
  'x, y, z'

loop_
  _atom_site_type_symbol
  _atom_site_label
  _atom_site_symmetry_multiplicity
  _atom_site_fract_x
  _atom_site_fract_y
  _atom_site_fract_z
  _atom_site_occupancy
  C   C1        1.0  0.21700  0.43500  0.15200  1.0000
  C   C2        1.0  0.78300  0.56500  0.21700  1.0000
  C   C3        1.0  0.15200  0.93500  0.21700  1.0000
  C   C4        1.0  0.78300  0.93500  0.21700  1.0000
  C   C5        1.0  0.21700  0.06540  0.78300  1.0000
  C   C6        1.0  0.84800  0.06540  0.78300  1.0000
  C   C7        1.0  0.21700  0.43500  0.78300  1.0000
  C   C8        1.0  0.78300  0.56500  0.84800  1.0000
  K   K1        1.0  0.50000  0.00000  0.00000  1.0000
  K   K2        1.0  0.50000  0.00000  0.50000  1.0000
  K   K3        1.0  0.00000  0.50000  0.50000  1.0000
  K   K4        1.0  0.50000  0.50000  0.50000  1.0000
  N   N1        1.0  0.72800  0.04340  0.27200  1.0000
  N   N2        1.0  0.31500  0.04340  0.27200  1.0000
  N   N3        1.0  0.72800  0.45700  0.27200  1.0000
  N   N4        1.0  0.27200  0.54300  0.31500  1.0000
  N   N5        1.0  0.72800  0.45700  0.68500  1.0000
  N   N6        1.0  0.27200  0.95700  0.72800  1.0000
  N   N7        1.0  0.68500  0.95700  0.72800  1.0000
  N   N8        1.0  0.27200  0.54300  0.72800  1.0000
  Zn  Zn1       1.0  0.87500  0.75000  0.12500  1.0000
  Zn  Zn2       1.0  0.12500  0.25000  0.87500  1.0000
