data_image0
_chemical_formula_structural       Ca8Cl12O2
_chemical_formula_sum              "Ca8 Cl12 O2"
_cell_length_a       9.09585
_cell_length_b       9.0955
_cell_length_c       6.87838
_cell_angle_alpha    90
_cell_angle_beta     90
_cell_angle_gamma    120.001

_space_group_name_H-M_alt    "P 1"
_space_group_IT_number       1

loop_
  _space_group_symop_operation_xyz
  'x, y, z'

loop_
  _atom_site_type_symbol
  _atom_site_label
  _atom_site_symmetry_multiplicity
  _atom_site_fract_x
  _atom_site_fract_y
  _atom_site_fract_z
  _atom_site_occupancy
  Ca  Ca1       1.0  0.19900  0.39700  0.00000  1.0000
  Ca  Ca2       1.0  0.19900  0.80100  0.00000  1.0000
  Ca  Ca3       1.0  0.60300  0.80100  0.00000  1.0000
  Ca  Ca4       1.0  0.33300  0.66700  0.42800  1.0000
  Ca  Ca5       1.0  0.80100  0.60300  0.50000  1.0000
  Ca  Ca6       1.0  0.39700  0.19900  0.50000  1.0000
  Ca  Ca7       1.0  0.80100  0.19900  0.50000  1.0000
  Ca  Ca8       1.0  0.66700  0.33300  0.92800  1.0000
  Cl  Cl1       1.0  0.53700  0.07370  0.20900  1.0000
  Cl  Cl2       1.0  0.53700  0.46300  0.20900  1.0000
  Cl  Cl3       1.0  0.92600  0.46300  0.20900  1.0000
  Cl  Cl4       1.0  0.13700  0.86300  0.38300  1.0000
  Cl  Cl5       1.0  0.72500  0.86300  0.38300  1.0000
  Cl  Cl6       1.0  0.13700  0.27500  0.38300  1.0000
  Cl  Cl7       1.0  0.46300  0.92600  0.70900  1.0000
  Cl  Cl8       1.0  0.07370  0.53700  0.70900  1.0000
  Cl  Cl9       1.0  0.46300  0.53700  0.70900  1.0000
  Cl  Cl10      1.0  0.27500  0.13700  0.88300  1.0000
  Cl  Cl11      1.0  0.86300  0.13700  0.88300  1.0000
  Cl  Cl12      1.0  0.86300  0.72500  0.88300  1.0000
  O   O1        1.0  0.33300  0.66700  0.10600  1.0000
  O   O2        1.0  0.66700  0.33300  0.60600  1.0000
