data_image0
_chemical_formula_structural       In2O7Si2
_chemical_formula_sum              "In2 O7 Si2"
_cell_length_a       4.70694
_cell_length_b       5.45278
_cell_length_c       5.45278
_cell_angle_alpha    104.919
_cell_angle_beta     97.6151
_cell_angle_gamma    97.6151

_space_group_name_H-M_alt    "P 1"
_space_group_IT_number       1

loop_
  _space_group_symop_operation_xyz
  'x, y, z'

loop_
  _atom_site_type_symbol
  _atom_site_label
  _atom_site_symmetry_multiplicity
  _atom_site_fract_x
  _atom_site_fract_y
  _atom_site_fract_z
  _atom_site_occupancy
  In  In1       1.0  0.00000  0.69300  0.30700  1.0000
  In  In2       1.0  0.00000  0.30700  0.69300  1.0000
  O   O1        1.0  0.50000  0.00000  0.00000  1.0000
  O   O2        1.0  0.22000  0.39300  0.07920  1.0000
  O   O3        1.0  0.71700  0.39200  0.39200  1.0000
  O   O4        1.0  0.22000  0.07920  0.39300  1.0000
  O   O5        1.0  0.78000  0.92100  0.60700  1.0000
  O   O6        1.0  0.28300  0.60800  0.60800  1.0000
  O   O7        1.0  0.78000  0.60700  0.92100  1.0000
  Si  Si1       1.0  0.41000  0.22100  0.22100  1.0000
  Si  Si2       1.0  0.59000  0.77900  0.77900  1.0000
