data_image0
_chemical_formula_structural       K4Mo4O14
_chemical_formula_sum              "K4 Mo4 O14"
_cell_length_a       7.46367
_cell_length_b       7.19741
_cell_length_c       6.87653
_cell_angle_alpha    93.4766
_cell_angle_beta     111.451
_cell_angle_gamma    82.5265

_space_group_name_H-M_alt    "P 1"
_space_group_IT_number       1

loop_
  _space_group_symop_operation_xyz
  'x, y, z'

loop_
  _atom_site_type_symbol
  _atom_site_label
  _atom_site_symmetry_multiplicity
  _atom_site_fract_x
  _atom_site_fract_y
  _atom_site_fract_z
  _atom_site_occupancy
  K   K1        1.0  0.56700  0.38400  0.23500  1.0000
  K   K2        1.0  0.84300  0.83800  0.30500  1.0000
  K   K3        1.0  0.15700  0.16200  0.69500  1.0000
  K   K4        1.0  0.43300  0.61600  0.76500  1.0000
  Mo  Mo1       1.0  0.05590  0.34800  0.17700  1.0000
  Mo  Mo2       1.0  0.31400  0.91200  0.25000  1.0000
  Mo  Mo3       1.0  0.68600  0.08830  0.75000  1.0000
  Mo  Mo4       1.0  0.94400  0.65200  0.82300  1.0000
  O   O1        1.0  0.85300  0.53000  0.05810  1.0000
  O   O2        1.0  0.09370  0.81500  0.12300  1.0000
  O   O3        1.0  0.27200  0.15200  0.14600  1.0000
  O   O4        1.0  0.48600  0.76500  0.17400  1.0000
  O   O5        1.0  0.95200  0.20000  0.29100  1.0000
  O   O6        1.0  0.21300  0.46000  0.39300  1.0000
  O   O7        1.0  0.64300  0.09190  0.47900  1.0000
  O   O8        1.0  0.35700  0.90800  0.52100  1.0000
  O   O9        1.0  0.78700  0.54000  0.60700  1.0000
  O   O10       1.0  0.04760  0.80000  0.70900  1.0000
  O   O11       1.0  0.51400  0.23500  0.82600  1.0000
  O   O12       1.0  0.72800  0.84800  0.85400  1.0000
  O   O13       1.0  0.90600  0.18500  0.87700  1.0000
  O   O14       1.0  0.14700  0.47000  0.94200  1.0000
