data_image0
_chemical_formula_structural       Cl18P2Ti2
_chemical_formula_sum              "Cl18 P2 Ti2"
_cell_length_a       8.96368
_cell_length_b       9.52513
_cell_length_c       6.9504
_cell_angle_alpha    95.8929
_cell_angle_beta     95.9025
_cell_angle_gamma    101.002

_space_group_name_H-M_alt    "P 1"
_space_group_IT_number       1

loop_
  _space_group_symop_operation_xyz
  'x, y, z'

loop_
  _atom_site_type_symbol
  _atom_site_label
  _atom_site_symmetry_multiplicity
  _atom_site_fract_x
  _atom_site_fract_y
  _atom_site_fract_z
  _atom_site_occupancy
  Cl  Cl1       1.0  0.79900  0.41700  0.06280  1.0000
  Cl  Cl2       1.0  0.28600  0.24600  0.06490  1.0000
  Cl  Cl3       1.0  0.89100  0.12100  0.15400  1.0000
  Cl  Cl4       1.0  0.39800  0.88200  0.15700  1.0000
  Cl  Cl5       1.0  0.06020  0.76700  0.25600  1.0000
  Cl  Cl6       1.0  0.51600  0.54800  0.28900  1.0000
  Cl  Cl7       1.0  0.57900  0.22100  0.37700  1.0000
  Cl  Cl8       1.0  0.16300  0.43800  0.41900  1.0000
  Cl  Cl9       1.0  0.76000  0.87000  0.47900  1.0000
  Cl  Cl10      1.0  0.24000  0.13000  0.52100  1.0000
  Cl  Cl11      1.0  0.83700  0.56200  0.58100  1.0000
  Cl  Cl12      1.0  0.42100  0.77900  0.62300  1.0000
  Cl  Cl13      1.0  0.48400  0.45200  0.71100  1.0000
  Cl  Cl14      1.0  0.94000  0.23300  0.74400  1.0000
  Cl  Cl15      1.0  0.60200  0.11800  0.84300  1.0000
  Cl  Cl16      1.0  0.10900  0.87900  0.84600  1.0000
  Cl  Cl17      1.0  0.71400  0.75400  0.93500  1.0000
  Cl  Cl18      1.0  0.20100  0.58300  0.93700  1.0000
  P   P1        1.0  0.19400  0.77700  0.04900  1.0000
  P   P2        1.0  0.80600  0.22300  0.95100  1.0000
  Ti  Ti1       1.0  0.36400  0.32200  0.38600  1.0000
  Ti  Ti2       1.0  0.63600  0.67800  0.61400  1.0000
