data_image0
_chemical_formula_structural       Hg2K12S8
_chemical_formula_sum              "Hg2 K12 S8"
_cell_length_a       10.0669
_cell_length_b       10.0667
_cell_length_c       7.70394
_cell_angle_alpha    90
_cell_angle_beta     90
_cell_angle_gamma    120

_space_group_name_H-M_alt    "P 1"
_space_group_IT_number       1

loop_
  _space_group_symop_operation_xyz
  'x, y, z'

loop_
  _atom_site_type_symbol
  _atom_site_label
  _atom_site_symmetry_multiplicity
  _atom_site_fract_x
  _atom_site_fract_y
  _atom_site_fract_z
  _atom_site_occupancy
  Hg  Hg1       1.0  0.66700  0.33300  0.00000  1.0000
  Hg  Hg2       1.0  0.33300  0.66700  0.50000  1.0000
  K   K1        1.0  0.47100  0.94200  0.12300  1.0000
  K   K2        1.0  0.05790  0.52900  0.12300  1.0000
  K   K3        1.0  0.47100  0.52900  0.12300  1.0000
  K   K4        1.0  0.29700  0.14800  0.29400  1.0000
  K   K5        1.0  0.85200  0.14800  0.29400  1.0000
  K   K6        1.0  0.85200  0.70300  0.29400  1.0000
  K   K7        1.0  0.52900  0.05790  0.62300  1.0000
  K   K8        1.0  0.52900  0.47100  0.62300  1.0000
  K   K9        1.0  0.94200  0.47100  0.62300  1.0000
  K   K10       1.0  0.14800  0.85200  0.79400  1.0000
  K   K11       1.0  0.70300  0.85200  0.79400  1.0000
  K   K12       1.0  0.14800  0.29700  0.79400  1.0000
  S   S1        1.0  0.66700  0.33300  0.34500  1.0000
  S   S2        1.0  0.18900  0.37900  0.39700  1.0000
  S   S3        1.0  0.18900  0.81100  0.39700  1.0000
  S   S4        1.0  0.62100  0.81100  0.39700  1.0000
  S   S5        1.0  0.33300  0.66700  0.84500  1.0000
  S   S6        1.0  0.37900  0.18900  0.89700  1.0000
  S   S7        1.0  0.81100  0.18900  0.89700  1.0000
  S   S8        1.0  0.81100  0.62100  0.89700  1.0000
