data_image0
_chemical_formula_structural       B4Mn6O12
_chemical_formula_sum              "B4 Mn6 O12"
_cell_length_a       5.65212
_cell_length_b       8.71324
_cell_length_c       4.64239
_cell_angle_alpha    90
_cell_angle_beta     90
_cell_angle_gamma    90

_space_group_name_H-M_alt    "P 1"
_space_group_IT_number       1

loop_
  _space_group_symop_operation_xyz
  'x, y, z'

loop_
  _atom_site_type_symbol
  _atom_site_label
  _atom_site_symmetry_multiplicity
  _atom_site_fract_x
  _atom_site_fract_y
  _atom_site_fract_z
  _atom_site_occupancy
  B   B1        1.0  0.75900  0.50000  0.03950  1.0000
  B   B2        1.0  0.25900  0.00000  0.46000  1.0000
  B   B3        1.0  0.74100  0.00000  0.54000  1.0000
  B   B4        1.0  0.24100  0.50000  0.96000  1.0000
  Mn  Mn1       1.0  0.00000  0.00000  0.00000  1.0000
  Mn  Mn2       1.0  0.50000  0.18800  0.00000  1.0000
  Mn  Mn3       1.0  0.50000  0.81200  0.00000  1.0000
  Mn  Mn4       1.0  0.00000  0.31200  0.50000  1.0000
  Mn  Mn5       1.0  0.50000  0.50000  0.50000  1.0000
  Mn  Mn6       1.0  0.00000  0.68800  0.50000  1.0000
  O   O1        1.0  0.71300  0.36500  0.19000  1.0000
  O   O2        1.0  0.71300  0.63500  0.19000  1.0000
  O   O3        1.0  0.17900  0.50000  0.24800  1.0000
  O   O4        1.0  0.67900  0.00000  0.25200  1.0000
  O   O5        1.0  0.21300  0.13500  0.31000  1.0000
  O   O6        1.0  0.21300  0.86500  0.31000  1.0000
  O   O7        1.0  0.78700  0.13500  0.69000  1.0000
  O   O8        1.0  0.78700  0.86500  0.69000  1.0000
  O   O9        1.0  0.32100  0.00000  0.74800  1.0000
  O   O10       1.0  0.82100  0.50000  0.75200  1.0000
  O   O11       1.0  0.28700  0.36500  0.81000  1.0000
  O   O12       1.0  0.28700  0.63500  0.81000  1.0000
