data_image0
_chemical_formula_structural       Fe12Ga10
_chemical_formula_sum              "Fe12 Ga10"
_cell_length_a       6.37833
_cell_length_b       6.37833
_cell_length_c       7.67016
_cell_angle_alpha    104.283
_cell_angle_beta     75.7166
_cell_angle_gamma    103.455

_space_group_name_H-M_alt    "P 1"
_space_group_IT_number       1

loop_
  _space_group_symop_operation_xyz
  'x, y, z'

loop_
  _atom_site_type_symbol
  _atom_site_label
  _atom_site_symmetry_multiplicity
  _atom_site_fract_x
  _atom_site_fract_y
  _atom_site_fract_z
  _atom_site_occupancy
  Fe  Fe1       1.0  0.87000  0.13000  0.01350  1.0000
  Fe  Fe2       1.0  0.45900  0.00721  0.16900  1.0000
  Fe  Fe3       1.0  0.99300  0.54100  0.16900  1.0000
  Fe  Fe4       1.0  0.39700  0.60300  0.31000  1.0000
  Fe  Fe5       1.0  0.50000  0.00000  0.50000  1.0000
  Fe  Fe6       1.0  0.28100  0.28100  0.50000  1.0000
  Fe  Fe7       1.0  0.71900  0.71900  0.50000  1.0000
  Fe  Fe8       1.0  0.00000  0.50000  0.50000  1.0000
  Fe  Fe9       1.0  0.60300  0.39700  0.69000  1.0000
  Fe  Fe10      1.0  0.00721  0.45900  0.83100  1.0000
  Fe  Fe11      1.0  0.54100  0.99300  0.83100  1.0000
  Fe  Fe12      1.0  0.13000  0.87000  0.98700  1.0000
  Ga  Ga1       1.0  0.62300  0.37700  0.01940  1.0000
  Ga  Ga2       1.0  0.15900  0.23400  0.20500  1.0000
  Ga  Ga3       1.0  0.76600  0.84100  0.20500  1.0000
  Ga  Ga4       1.0  0.67800  0.32200  0.34500  1.0000
  Ga  Ga5       1.0  0.13100  0.86900  0.40000  1.0000
  Ga  Ga6       1.0  0.86900  0.13100  0.60000  1.0000
  Ga  Ga7       1.0  0.32200  0.67800  0.65500  1.0000
  Ga  Ga8       1.0  0.23400  0.15900  0.79500  1.0000
  Ga  Ga9       1.0  0.84100  0.76600  0.79500  1.0000
  Ga  Ga10      1.0  0.37700  0.62300  0.98100  1.0000
