data_image0
_chemical_formula_structural       Cd2O8Th4
_chemical_formula_sum              "Cd2 O8 Th4"
_cell_length_a       7.47521
_cell_length_b       7.47521
_cell_length_c       7.47521
_cell_angle_alpha    119.987
_cell_angle_beta     90.0228
_cell_angle_gamma    119.987

_space_group_name_H-M_alt    "P 1"
_space_group_IT_number       1

loop_
  _space_group_symop_operation_xyz
  'x, y, z'

loop_
  _atom_site_type_symbol
  _atom_site_label
  _atom_site_symmetry_multiplicity
  _atom_site_fract_x
  _atom_site_fract_y
  _atom_site_fract_z
  _atom_site_occupancy
  Cd  Cd1       1.0  0.00000  0.00000  0.00000  1.0000
  Cd  Cd2       1.0  0.75000  0.50000  0.25000  1.0000
  O   O1        1.0  0.21500  0.81000  0.40500  1.0000
  O   O2        1.0  0.59500  0.19000  0.40500  1.0000
  O   O3        1.0  0.59500  0.81000  0.40500  1.0000
  O   O4        1.0  0.15500  0.31000  0.46500  1.0000
  O   O5        1.0  0.59500  0.19000  0.78500  1.0000
  O   O6        1.0  0.15500  0.69000  0.84500  1.0000
  O   O7        1.0  0.53500  0.69000  0.84500  1.0000
  O   O8        1.0  0.15500  0.31000  0.84500  1.0000
  Th  Th1       1.0  0.37500  0.75000  0.12500  1.0000
  Th  Th2       1.0  0.37500  0.25000  0.62500  1.0000
  Th  Th3       1.0  0.37500  0.75000  0.62500  1.0000
  Th  Th4       1.0  0.87500  0.25000  0.62500  1.0000
