data_image0
_chemical_formula_structural       La6Nb2O14
_chemical_formula_sum              "La6 Nb2 O14"
_cell_length_a       6.72316
_cell_length_b       6.72316
_cell_length_c       7.80263
_cell_angle_alpha    90
_cell_angle_beta     90
_cell_angle_gamma    68.2791

_space_group_name_H-M_alt    "P 1"
_space_group_IT_number       1

loop_
  _space_group_symop_operation_xyz
  'x, y, z'

loop_
  _atom_site_type_symbol
  _atom_site_label
  _atom_site_symmetry_multiplicity
  _atom_site_fract_x
  _atom_site_fract_y
  _atom_site_fract_z
  _atom_site_occupancy
  La  La1       1.0  0.00000  0.00000  0.00000  1.0000
  La  La2       1.0  0.47700  0.06940  0.25000  1.0000
  La  La3       1.0  0.93100  0.52300  0.25000  1.0000
  La  La4       1.0  0.00000  0.00000  0.50000  1.0000
  La  La5       1.0  0.06940  0.47700  0.75000  1.0000
  La  La6       1.0  0.52300  0.93100  0.75000  1.0000
  Nb  Nb1       1.0  0.50000  0.50000  0.00000  1.0000
  Nb  Nb2       1.0  0.50000  0.50000  0.50000  1.0000
  O   O1        1.0  0.18500  0.56300  0.03290  1.0000
  O   O2        1.0  0.43700  0.81500  0.03290  1.0000
  O   O3        1.0  0.10700  0.15300  0.25000  1.0000
  O   O4        1.0  0.56500  0.43500  0.25000  1.0000
  O   O5        1.0  0.84700  0.89300  0.25000  1.0000
  O   O6        1.0  0.18500  0.56300  0.46700  1.0000
  O   O7        1.0  0.43700  0.81500  0.46700  1.0000
  O   O8        1.0  0.56300  0.18500  0.53300  1.0000
  O   O9        1.0  0.81500  0.43700  0.53300  1.0000
  O   O10       1.0  0.15300  0.10700  0.75000  1.0000
  O   O11       1.0  0.43500  0.56500  0.75000  1.0000
  O   O12       1.0  0.89300  0.84700  0.75000  1.0000
  O   O13       1.0  0.56300  0.18500  0.96700  1.0000
  O   O14       1.0  0.81500  0.43700  0.96700  1.0000
