data_image0
_chemical_formula_structural       Nb14P8
_chemical_formula_sum              "Nb14 P8"
_cell_length_a       3.45169
_cell_length_b       7.72095
_cell_length_c       13.9341
_cell_angle_alpha    104.417
_cell_angle_beta     90
_cell_angle_gamma    102.916

_space_group_name_H-M_alt    "P 1"
_space_group_IT_number       1

loop_
  _space_group_symop_operation_xyz
  'x, y, z'

loop_
  _atom_site_type_symbol
  _atom_site_label
  _atom_site_symmetry_multiplicity
  _atom_site_fract_x
  _atom_site_fract_y
  _atom_site_fract_z
  _atom_site_occupancy
  Nb  Nb1       1.0  0.00000  0.00000  0.00000  1.0000
  Nb  Nb2       1.0  0.33800  0.67600  0.02770  1.0000
  Nb  Nb3       1.0  0.56900  0.13700  0.17300  1.0000
  Nb  Nb4       1.0  0.79000  0.58100  0.20000  1.0000
  Nb  Nb5       1.0  0.19500  0.39000  0.31200  1.0000
  Nb  Nb6       1.0  0.99700  0.99300  0.33500  1.0000
  Nb  Nb7       1.0  0.82500  0.65000  0.46000  1.0000
  Nb  Nb8       1.0  0.50000  0.00000  0.50000  1.0000
  Nb  Nb9       1.0  0.17500  0.35000  0.54000  1.0000
  Nb  Nb10      1.0  0.00339  0.00679  0.66500  1.0000
  Nb  Nb11      1.0  0.80500  0.61000  0.68800  1.0000
  Nb  Nb12      1.0  0.21000  0.41900  0.80000  1.0000
  Nb  Nb13      1.0  0.43100  0.86300  0.82700  1.0000
  Nb  Nb14      1.0  0.66200  0.32400  0.97200  1.0000
  P   P1        1.0  0.17400  0.34800  0.11200  1.0000
  P   P2        1.0  0.93600  0.87200  0.15100  1.0000
  P   P3        1.0  0.37000  0.73900  0.33600  1.0000
  P   P4        1.0  0.62600  0.25300  0.39800  1.0000
  P   P5        1.0  0.37400  0.74700  0.60200  1.0000
  P   P6        1.0  0.63000  0.26100  0.66400  1.0000
  P   P7        1.0  0.06390  0.12800  0.84900  1.0000
  P   P8        1.0  0.82600  0.65200  0.88800  1.0000
