data_image0
_chemical_formula_structural       Cu6Ho4Rb2S10
_chemical_formula_sum              "Cu6 Ho4 Rb2 S10"
_cell_length_a       3.93126
_cell_length_b       7.23208
_cell_length_c       16.4435
_cell_angle_alpha    90
_cell_angle_beta     90
_cell_angle_gamma    74.229

_space_group_name_H-M_alt    "P 1"
_space_group_IT_number       1

loop_
  _space_group_symop_operation_xyz
  'x, y, z'

loop_
  _atom_site_type_symbol
  _atom_site_label
  _atom_site_symmetry_multiplicity
  _atom_site_fract_x
  _atom_site_fract_y
  _atom_site_fract_z
  _atom_site_occupancy
  Cu  Cu1       1.0  0.08300  0.83400  0.03890  1.0000
  Cu  Cu2       1.0  0.84700  0.30600  0.25000  1.0000
  Cu  Cu3       1.0  0.08300  0.83400  0.46100  1.0000
  Cu  Cu4       1.0  0.91700  0.16600  0.53900  1.0000
  Cu  Cu5       1.0  0.15300  0.69400  0.75000  1.0000
  Cu  Cu6       1.0  0.91700  0.16600  0.96100  1.0000
  Ho  Ho1       1.0  0.30800  0.38400  0.09320  1.0000
  Ho  Ho2       1.0  0.30800  0.38400  0.40700  1.0000
  Ho  Ho3       1.0  0.69200  0.61600  0.59300  1.0000
  Ho  Ho4       1.0  0.69200  0.61600  0.90700  1.0000
  Rb  Rb1       1.0  0.56600  0.86800  0.25000  1.0000
  Rb  Rb2       1.0  0.43400  0.13200  0.75000  1.0000
  S   S1        1.0  0.66800  0.66400  0.06940  1.0000
  S   S2        1.0  0.93800  0.12300  0.11500  1.0000
  S   S3        1.0  0.26100  0.47900  0.25000  1.0000
  S   S4        1.0  0.93800  0.12300  0.38500  1.0000
  S   S5        1.0  0.66800  0.66400  0.43100  1.0000
  S   S6        1.0  0.33200  0.33600  0.56900  1.0000
  S   S7        1.0  0.06150  0.87700  0.61500  1.0000
  S   S8        1.0  0.73900  0.52100  0.75000  1.0000
  S   S9        1.0  0.06150  0.87700  0.88500  1.0000
  S   S10       1.0  0.33200  0.33600  0.93100  1.0000
