data_image0
_chemical_formula_structural       Cd4O14Re4
_chemical_formula_sum              "Cd4 O14 Re4"
_cell_length_a       7.26053
_cell_length_b       7.26053
_cell_length_c       7.26053
_cell_angle_alpha    120
_cell_angle_beta     90
_cell_angle_gamma    120

_space_group_name_H-M_alt    "P 1"
_space_group_IT_number       1

loop_
  _space_group_symop_operation_xyz
  'x, y, z'

loop_
  _atom_site_type_symbol
  _atom_site_label
  _atom_site_symmetry_multiplicity
  _atom_site_fract_x
  _atom_site_fract_y
  _atom_site_fract_z
  _atom_site_occupancy
  Cd  Cd1       1.0  0.00000  0.50000  0.00000  1.0000
  Cd  Cd2       1.0  0.50000  0.00000  0.50000  1.0000
  Cd  Cd3       1.0  0.00000  0.00000  0.50000  1.0000
  Cd  Cd4       1.0  0.00000  0.50000  0.50000  1.0000
  O   O1        1.0  0.43300  0.75000  0.06710  1.0000
  O   O2        1.0  0.81700  0.75000  0.06710  1.0000
  O   O3        1.0  0.81700  0.13400  0.06710  1.0000
  O   O4        1.0  0.18300  0.25000  0.31700  1.0000
  O   O5        1.0  0.56700  0.25000  0.31700  1.0000
  O   O6        1.0  0.56700  0.63400  0.31700  1.0000
  O   O7        1.0  0.12500  0.75000  0.37500  1.0000
  O   O8        1.0  0.87500  0.25000  0.62500  1.0000
  O   O9        1.0  0.43300  0.36600  0.68300  1.0000
  O   O10       1.0  0.43300  0.75000  0.68300  1.0000
  O   O11       1.0  0.81700  0.75000  0.68300  1.0000
  O   O12       1.0  0.18300  0.25000  0.93300  1.0000
  O   O13       1.0  0.18300  0.86600  0.93300  1.0000
  O   O14       1.0  0.56700  0.25000  0.93300  1.0000
  Re  Re1       1.0  0.00000  0.00000  0.00000  1.0000
  Re  Re2       1.0  0.50000  0.00000  0.00000  1.0000
  Re  Re3       1.0  0.50000  0.50000  0.00000  1.0000
  Re  Re4       1.0  0.50000  0.50000  0.50000  1.0000
