data_image0
_chemical_formula_structural       F6K6O8Ti2
_chemical_formula_sum              "F6 K6 O8 Ti2"
_cell_length_a       6.13221
_cell_length_b       6.13221
_cell_length_c       8.75914
_cell_angle_alpha    90
_cell_angle_beta     90
_cell_angle_gamma    83.0661

_space_group_name_H-M_alt    "P 1"
_space_group_IT_number       1

loop_
  _space_group_symop_operation_xyz
  'x, y, z'

loop_
  _atom_site_type_symbol
  _atom_site_label
  _atom_site_symmetry_multiplicity
  _atom_site_fract_x
  _atom_site_fract_y
  _atom_site_fract_z
  _atom_site_occupancy
  F   F1        1.0  0.75700  0.24300  0.02910  1.0000
  F   F2        1.0  0.98300  0.01680  0.25000  1.0000
  F   F3        1.0  0.75700  0.24300  0.47300  1.0000
  F   F4        1.0  0.24300  0.75700  0.52900  1.0000
  F   F5        1.0  0.01680  0.98300  0.75000  1.0000
  F   F6        1.0  0.24300  0.75700  0.97300  1.0000
  K   K1        1.0  0.20100  0.20200  0.00083  1.0000
  K   K2        1.0  0.79800  0.79900  0.00083  1.0000
  K   K3        1.0  0.30100  0.69900  0.25000  1.0000
  K   K4        1.0  0.20200  0.20100  0.50100  1.0000
  K   K5        1.0  0.79900  0.79800  0.50100  1.0000
  K   K6        1.0  0.69900  0.30100  0.75000  1.0000
  O   O1        1.0  0.42200  0.27900  0.25100  1.0000
  O   O2        1.0  0.72100  0.57800  0.25100  1.0000
  O   O3        1.0  0.52100  0.04730  0.25100  1.0000
  O   O4        1.0  0.95300  0.47900  0.25100  1.0000
  O   O5        1.0  0.27900  0.42200  0.75100  1.0000
  O   O6        1.0  0.57800  0.72100  0.75100  1.0000
  O   O7        1.0  0.04730  0.52100  0.75100  1.0000
  O   O8        1.0  0.47900  0.95300  0.75100  1.0000
  Ti  Ti1       1.0  0.73800  0.26200  0.25100  1.0000
  Ti  Ti2       1.0  0.26200  0.73800  0.75100  1.0000
