data_image0
_chemical_formula_structural       In4Rb8S10
_chemical_formula_sum              "In4 Rb8 S10"
_cell_length_a       9.46689
_cell_length_b       11.1185
_cell_length_c       7.69712
_cell_angle_alpha    111.441
_cell_angle_beta     94.5386
_cell_angle_gamma    103.716

_space_group_name_H-M_alt    "P 1"
_space_group_IT_number       1

loop_
  _space_group_symop_operation_xyz
  'x, y, z'

loop_
  _atom_site_type_symbol
  _atom_site_label
  _atom_site_symmetry_multiplicity
  _atom_site_fract_x
  _atom_site_fract_y
  _atom_site_fract_z
  _atom_site_occupancy
  In  In1       1.0  0.59200  0.17000  0.04480  1.0000
  In  In2       1.0  0.00051  0.34000  0.37300  1.0000
  In  In3       1.0  0.99900  0.66000  0.62700  1.0000
  In  In4       1.0  0.40800  0.83000  0.95500  1.0000
  Rb  Rb1       1.0  0.81800  0.91000  0.02120  1.0000
  Rb  Rb2       1.0  0.81400  0.54400  0.08800  1.0000
  Rb  Rb3       1.0  0.20800  0.91600  0.41900  1.0000
  Rb  Rb4       1.0  0.53000  0.66200  0.43600  1.0000
  Rb  Rb5       1.0  0.47000  0.33800  0.56400  1.0000
  Rb  Rb6       1.0  0.79200  0.08400  0.58100  1.0000
  Rb  Rb7       1.0  0.18600  0.45600  0.91200  1.0000
  Rb  Rb8       1.0  0.18200  0.09040  0.97900  1.0000
  S   S1        1.0  0.86400  0.23100  0.03470  1.0000
  S   S2        1.0  0.47800  0.34800  0.07610  1.0000
  S   S3        1.0  0.52200  0.04460  0.25600  1.0000
  S   S4        1.0  0.15800  0.56500  0.39400  1.0000
  S   S5        1.0  0.10800  0.18200  0.44100  1.0000
  S   S6        1.0  0.89200  0.81800  0.55900  1.0000
  S   S7        1.0  0.84200  0.43500  0.60600  1.0000
  S   S8        1.0  0.47800  0.95500  0.74400  1.0000
  S   S9        1.0  0.52200  0.65200  0.92400  1.0000
  S   S10       1.0  0.13600  0.76900  0.96500  1.0000
