data_image0
_chemical_formula_structural       Cl2N10S10
_chemical_formula_sum              "Cl2 N10 S10"
_cell_length_a       7.18046
_cell_length_b       7.94957
_cell_length_c       8.19326
_cell_angle_alpha    60.9791
_cell_angle_beta     93.6374
_cell_angle_gamma    97.5144

_space_group_name_H-M_alt    "P 1"
_space_group_IT_number       1

loop_
  _space_group_symop_operation_xyz
  'x, y, z'

loop_
  _atom_site_type_symbol
  _atom_site_label
  _atom_site_symmetry_multiplicity
  _atom_site_fract_x
  _atom_site_fract_y
  _atom_site_fract_z
  _atom_site_occupancy
  Cl  Cl1       1.0  0.00000  0.00000  0.00000  1.0000
  Cl  Cl2       1.0  0.50000  0.00000  0.00000  1.0000
  N   N1        1.0  0.80200  0.29600  0.10200  1.0000
  N   N2        1.0  0.69800  0.60200  0.10200  1.0000
  N   N3        1.0  0.25000  0.39700  0.20500  1.0000
  N   N4        1.0  0.77200  0.09860  0.45700  1.0000
  N   N5        1.0  0.72800  0.44400  0.45700  1.0000
  N   N6        1.0  0.27200  0.55600  0.54300  1.0000
  N   N7        1.0  0.22800  0.90100  0.54300  1.0000
  N   N8        1.0  0.75000  0.60300  0.79500  1.0000
  N   N9        1.0  0.30200  0.39800  0.89800  1.0000
  N   N10       1.0  0.19800  0.70400  0.89800  1.0000
  S   S1        1.0  0.28800  0.26600  0.11600  1.0000
  S   S2        1.0  0.21200  0.61800  0.11600  1.0000
  S   S3        1.0  0.79600  0.08710  0.27200  1.0000
  S   S4        1.0  0.70400  0.64100  0.27200  1.0000
  S   S5        1.0  0.25000  0.78000  0.44000  1.0000
  S   S6        1.0  0.75000  0.22000  0.56000  1.0000
  S   S7        1.0  0.29600  0.35900  0.72800  1.0000
  S   S8        1.0  0.20400  0.91300  0.72800  1.0000
  S   S9        1.0  0.78800  0.38200  0.88400  1.0000
  S   S10       1.0  0.71200  0.73400  0.88400  1.0000
