data_image0
_chemical_formula_structural       I2Se16Ta4
_chemical_formula_sum              "I2 Se16 Ta4"
_cell_length_a       9.40504
_cell_length_b       9.40504
_cell_length_c       9.40504
_cell_angle_alpha    93.0699
_cell_angle_beta     118.244
_cell_angle_gamma    118.244

_space_group_name_H-M_alt    "P 1"
_space_group_IT_number       1

loop_
  _space_group_symop_operation_xyz
  'x, y, z'

loop_
  _atom_site_type_symbol
  _atom_site_label
  _atom_site_symmetry_multiplicity
  _atom_site_fract_x
  _atom_site_fract_y
  _atom_site_fract_z
  _atom_site_occupancy
  I   I1        1.0  0.00000  0.15400  0.15400  1.0000
  I   I2        1.0  0.00000  0.84600  0.84600  1.0000
  Se  Se1       1.0  0.19300  0.43200  0.00017  1.0000
  Se  Se2       1.0  0.76000  0.41600  0.08340  1.0000
  Se  Se3       1.0  0.19300  0.76000  0.19300  1.0000
  Se  Se4       1.0  0.80700  0.80700  0.24000  1.0000
  Se  Se5       1.0  0.66700  0.08340  0.32400  1.0000
  Se  Se6       1.0  0.66700  0.58400  0.34300  1.0000
  Se  Se7       1.0  0.33300  0.65700  0.41600  1.0000
  Se  Se8       1.0  0.43200  0.24000  0.43200  1.0000
  Se  Se9       1.0  0.80700  0.00000  0.56800  1.0000
  Se  Se10      1.0  0.24000  0.91700  0.58400  1.0000
  Se  Se11      1.0  0.24000  0.32400  0.65700  1.0000
  Se  Se12      1.0  0.76000  0.34300  0.67600  1.0000
  Se  Se13      1.0  0.56800  0.56800  0.76000  1.0000
  Se  Se14      1.0  0.56800  0.00017  0.80700  1.0000
  Se  Se15      1.0  0.33300  0.67600  0.91700  1.0000
  Se  Se16      1.0  0.43200  0.19300  0.00000  1.0000
  Ta  Ta1       1.0  0.50000  0.50000  0.00000  1.0000
  Ta  Ta2       1.0  0.50000  0.75000  0.25000  1.0000
  Ta  Ta3       1.0  0.50000  0.00000  0.50000  1.0000
  Ta  Ta4       1.0  0.50000  0.25000  0.75000  1.0000
