data_image0
_chemical_formula_structural       Hg4O14P4
_chemical_formula_sum              "Hg4 O14 P4"
_cell_length_a       6.70601
_cell_length_b       6.80568
_cell_length_c       6.97605
_cell_angle_alpha    99.8703
_cell_angle_beta     113.493
_cell_angle_gamma    80.8541

_space_group_name_H-M_alt    "P 1"
_space_group_IT_number       1

loop_
  _space_group_symop_operation_xyz
  'x, y, z'

loop_
  _atom_site_type_symbol
  _atom_site_label
  _atom_site_symmetry_multiplicity
  _atom_site_fract_x
  _atom_site_fract_y
  _atom_site_fract_z
  _atom_site_occupancy
  Hg  Hg1       1.0  0.89400  0.82900  0.24500  1.0000
  Hg  Hg2       1.0  0.29500  0.32800  0.36000  1.0000
  Hg  Hg3       1.0  0.70500  0.67200  0.64000  1.0000
  Hg  Hg4       1.0  0.10600  0.17100  0.75500  1.0000
  O   O1        1.0  0.60200  0.25000  0.03050  1.0000
  O   O2        1.0  0.24400  0.07600  0.11300  1.0000
  O   O3        1.0  0.90900  0.48300  0.21400  1.0000
  O   O4        1.0  0.23200  0.74500  0.23900  1.0000
  O   O5        1.0  0.59600  0.88500  0.34100  1.0000
  O   O6        1.0  0.93200  0.16800  0.36100  1.0000
  O   O7        1.0  0.62200  0.44500  0.36100  1.0000
  O   O8        1.0  0.37800  0.55500  0.63900  1.0000
  O   O9        1.0  0.06760  0.83200  0.63900  1.0000
  O   O10       1.0  0.40400  0.11500  0.65900  1.0000
  O   O11       1.0  0.76800  0.25500  0.76100  1.0000
  O   O12       1.0  0.09060  0.51700  0.78600  1.0000
  O   O13       1.0  0.75600  0.92400  0.88700  1.0000
  O   O14       1.0  0.39800  0.75000  0.96900  1.0000
  P   P1        1.0  0.36300  0.86700  0.17900  1.0000
  P   P2        1.0  0.77600  0.34100  0.25200  1.0000
  P   P3        1.0  0.22400  0.65900  0.74800  1.0000
  P   P4        1.0  0.63700  0.13300  0.82100  1.0000
