data_image0
_chemical_formula_structural       N12Ta10
_chemical_formula_sum              "N12 Ta10"
_cell_length_a       5.19949
_cell_length_b       5.19949
_cell_length_c       10.4044
_cell_angle_alpha    90
_cell_angle_beta     90
_cell_angle_gamma    120

_space_group_name_H-M_alt    "P 1"
_space_group_IT_number       1

loop_
  _space_group_symop_operation_xyz
  'x, y, z'

loop_
  _atom_site_type_symbol
  _atom_site_label
  _atom_site_symmetry_multiplicity
  _atom_site_fract_x
  _atom_site_fract_y
  _atom_site_fract_z
  _atom_site_occupancy
  N   N1        1.0  0.66100  0.00000  0.12200  1.0000
  N   N2        1.0  0.00000  0.66100  0.12200  1.0000
  N   N3        1.0  0.33900  0.33900  0.12200  1.0000
  N   N4        1.0  0.66100  0.00000  0.37800  1.0000
  N   N5        1.0  0.00000  0.66100  0.37800  1.0000
  N   N6        1.0  0.33900  0.33900  0.37800  1.0000
  N   N7        1.0  0.33900  0.00000  0.62200  1.0000
  N   N8        1.0  0.00000  0.33900  0.62200  1.0000
  N   N9        1.0  0.66100  0.66100  0.62200  1.0000
  N   N10       1.0  0.33900  0.00000  0.87800  1.0000
  N   N11       1.0  0.00000  0.33900  0.87800  1.0000
  N   N12       1.0  0.66100  0.66100  0.87800  1.0000
  Ta  Ta1       1.0  0.66700  0.33300  0.00000  1.0000
  Ta  Ta2       1.0  0.33300  0.66700  0.00000  1.0000
  Ta  Ta3       1.0  0.67600  0.67600  0.25000  1.0000
  Ta  Ta4       1.0  0.32400  0.00000  0.25000  1.0000
  Ta  Ta5       1.0  0.00000  0.32400  0.25000  1.0000
  Ta  Ta6       1.0  0.66700  0.33300  0.50000  1.0000
  Ta  Ta7       1.0  0.33300  0.66700  0.50000  1.0000
  Ta  Ta8       1.0  0.32400  0.32400  0.75000  1.0000
  Ta  Ta9       1.0  0.67600  0.00000  0.75000  1.0000
  Ta  Ta10      1.0  0.00000  0.67600  0.75000  1.0000
