data_image0
_chemical_formula_structural       P12Pt8Sr2
_chemical_formula_sum              "P12 Pt8 Sr2"
_cell_length_a       5.79891
_cell_length_b       5.79891
_cell_length_c       11.5406
_cell_angle_alpha    90.4623
_cell_angle_beta     90.4623
_cell_angle_gamma    88.0577

_space_group_name_H-M_alt    "P 1"
_space_group_IT_number       1

loop_
  _space_group_symop_operation_xyz
  'x, y, z'

loop_
  _atom_site_type_symbol
  _atom_site_label
  _atom_site_symmetry_multiplicity
  _atom_site_fract_x
  _atom_site_fract_y
  _atom_site_fract_z
  _atom_site_occupancy
  P   P1        1.0  0.11700  0.60900  0.05090  1.0000
  P   P2        1.0  0.61600  0.88400  0.05260  1.0000
  P   P3        1.0  0.13200  0.08740  0.19500  1.0000
  P   P4        1.0  0.91300  0.86800  0.30500  1.0000
  P   P5        1.0  0.11600  0.38400  0.44700  1.0000
  P   P6        1.0  0.39100  0.88300  0.44900  1.0000
  P   P7        1.0  0.60900  0.11700  0.55100  1.0000
  P   P8        1.0  0.88400  0.61600  0.55300  1.0000
  P   P9        1.0  0.08740  0.13200  0.69500  1.0000
  P   P10       1.0  0.86800  0.91300  0.80500  1.0000
  P   P11       1.0  0.38400  0.11600  0.94700  1.0000
  P   P12       1.0  0.88300  0.39100  0.94900  1.0000
  Pt  Pt1       1.0  0.00000  0.00000  0.00000  1.0000
  Pt  Pt2       1.0  0.50000  0.50000  0.00000  1.0000
  Pt  Pt3       1.0  0.08230  0.49300  0.25000  1.0000
  Pt  Pt4       1.0  0.50700  0.91800  0.25000  1.0000
  Pt  Pt5       1.0  0.50000  0.50000  0.50000  1.0000
  Pt  Pt6       1.0  0.00000  0.00000  0.50000  1.0000
  Pt  Pt7       1.0  0.49300  0.08230  0.75000  1.0000
  Pt  Pt8       1.0  0.91800  0.50700  0.75000  1.0000
  Sr  Sr1       1.0  0.60500  0.39500  0.25000  1.0000
  Sr  Sr2       1.0  0.39500  0.60500  0.75000  1.0000
