data_image0
_chemical_formula_structural       Al4Cd2Cl16
_chemical_formula_sum              "Al4 Cd2 Cl16"
_cell_length_a       12.9542
_cell_length_b       6.61505
_cell_length_c       7.08882
_cell_angle_alpha    90
_cell_angle_beta     92.7395
_cell_angle_gamma    90

_space_group_name_H-M_alt    "P 1"
_space_group_IT_number       1

loop_
  _space_group_symop_operation_xyz
  'x, y, z'

loop_
  _atom_site_type_symbol
  _atom_site_label
  _atom_site_symmetry_multiplicity
  _atom_site_fract_x
  _atom_site_fract_y
  _atom_site_fract_z
  _atom_site_occupancy
  Al  Al1       1.0  0.74100  0.56700  0.14900  1.0000
  Al  Al2       1.0  0.24100  0.43300  0.14900  1.0000
  Al  Al3       1.0  0.54300  0.93400  0.56200  1.0000
  Al  Al4       1.0  0.04270  0.06590  0.56200  1.0000
  Cd  Cd1       1.0  0.00114  0.25300  0.00177  1.0000
  Cd  Cd2       1.0  0.50100  0.74700  0.00177  1.0000
  Cl  Cl1       1.0  0.70200  0.87100  0.05240  1.0000
  Cl  Cl2       1.0  0.20200  0.12900  0.05240  1.0000
  Cl  Cl3       1.0  0.08800  0.57500  0.15900  1.0000
  Cl  Cl4       1.0  0.58800  0.42500  0.15900  1.0000
  Cl  Cl5       1.0  0.94300  0.05590  0.30300  1.0000
  Cl  Cl6       1.0  0.44300  0.94400  0.30300  1.0000
  Cl  Cl7       1.0  0.32700  0.44000  0.40700  1.0000
  Cl  Cl8       1.0  0.82700  0.56000  0.40700  1.0000
  Cl  Cl9       1.0  0.68400  0.08470  0.53700  1.0000
  Cl  Cl10      1.0  0.18400  0.91500  0.53700  1.0000
  Cl  Cl11      1.0  0.56000  0.62100  0.65500  1.0000
  Cl  Cl12      1.0  0.06010  0.37900  0.65500  1.0000
  Cl  Cl13      1.0  0.45200  0.06650  0.78500  1.0000
  Cl  Cl14      1.0  0.95200  0.93400  0.78500  1.0000
  Cl  Cl15      1.0  0.31800  0.58400  0.92000  1.0000
  Cl  Cl16      1.0  0.81800  0.41600  0.92000  1.0000
