data_image0
_chemical_formula_structural       O16P4W2
_chemical_formula_sum              "O16 P4 W2"
_cell_length_a       5.15546
_cell_length_b       6.92608
_cell_length_c       7.90738
_cell_angle_alpha    102.078
_cell_angle_beta     109.026
_cell_angle_gamma    90

_space_group_name_H-M_alt    "P 1"
_space_group_IT_number       1

loop_
  _space_group_symop_operation_xyz
  'x, y, z'

loop_
  _atom_site_type_symbol
  _atom_site_label
  _atom_site_symmetry_multiplicity
  _atom_site_fract_x
  _atom_site_fract_y
  _atom_site_fract_z
  _atom_site_occupancy
  O   O1        1.0  0.02190  0.76200  0.04380  1.0000
  O   O2        1.0  0.37000  0.50200  0.21600  1.0000
  O   O3        1.0  0.84600  0.50200  0.21600  1.0000
  O   O4        1.0  0.37500  0.10900  0.21700  1.0000
  O   O5        1.0  0.84300  0.10900  0.21700  1.0000
  O   O6        1.0  0.62300  0.81300  0.24600  1.0000
  O   O7        1.0  0.23800  0.88200  0.47500  1.0000
  O   O8        1.0  0.24300  0.36600  0.48600  1.0000
  O   O9        1.0  0.75700  0.63400  0.51400  1.0000
  O   O10       1.0  0.76200  0.11800  0.52500  1.0000
  O   O11       1.0  0.37700  0.18700  0.75400  1.0000
  O   O12       1.0  0.15700  0.89100  0.78300  1.0000
  O   O13       1.0  0.62500  0.89100  0.78300  1.0000
  O   O14       1.0  0.15400  0.49800  0.78400  1.0000
  O   O15       1.0  0.63000  0.49800  0.78400  1.0000
  O   O16       1.0  0.97800  0.23800  0.95600  1.0000
  P   P1        1.0  0.65600  0.61300  0.31200  1.0000
  P   P2        1.0  0.66200  0.04700  0.32400  1.0000
  P   P3        1.0  0.33800  0.95300  0.67600  1.0000
  P   P4        1.0  0.34400  0.38700  0.68800  1.0000
  W   W1        1.0  0.09530  0.29400  0.19100  1.0000
  W   W2        1.0  0.90500  0.70600  0.80900  1.0000
