data_image0
_chemical_formula_structural       Cl18S2Sb2
_chemical_formula_sum              "Cl18 S2 Sb2"
_cell_length_a       7.38077
_cell_length_b       7.38077
_cell_length_c       13.9356
_cell_angle_alpha    91.5886
_cell_angle_beta     105.513
_cell_angle_gamma    116.275

_space_group_name_H-M_alt    "P 1"
_space_group_IT_number       1

loop_
  _space_group_symop_operation_xyz
  'x, y, z'

loop_
  _atom_site_type_symbol
  _atom_site_label
  _atom_site_symmetry_multiplicity
  _atom_site_fract_x
  _atom_site_fract_y
  _atom_site_fract_z
  _atom_site_occupancy
  Cl  Cl1       1.0  0.30500  0.30500  0.00000  1.0000
  Cl  Cl2       1.0  0.69500  0.69500  0.00000  1.0000
  Cl  Cl3       1.0  0.83300  0.20200  0.03500  1.0000
  Cl  Cl4       1.0  0.14900  0.03200  0.18100  1.0000
  Cl  Cl5       1.0  0.22800  0.57200  0.19900  1.0000
  Cl  Cl6       1.0  0.62700  0.97000  0.19900  1.0000
  Cl  Cl7       1.0  0.64000  0.31000  0.38700  1.0000
  Cl  Cl8       1.0  0.07730  0.74800  0.38700  1.0000
  Cl  Cl9       1.0  0.61500  0.78600  0.40000  1.0000
  Cl  Cl10      1.0  0.11300  0.30100  0.41400  1.0000
  Cl  Cl11      1.0  0.88700  0.69900  0.58600  1.0000
  Cl  Cl12      1.0  0.38500  0.21400  0.60000  1.0000
  Cl  Cl13      1.0  0.92300  0.25200  0.61300  1.0000
  Cl  Cl14      1.0  0.36000  0.69000  0.61300  1.0000
  Cl  Cl15      1.0  0.37300  0.02960  0.80100  1.0000
  Cl  Cl16      1.0  0.77200  0.42800  0.80100  1.0000
  Cl  Cl17      1.0  0.85100  0.96800  0.81900  1.0000
  Cl  Cl18      1.0  0.16700  0.79800  0.96500  1.0000
  S   S1        1.0  0.43500  0.84800  0.28400  1.0000
  S   S2        1.0  0.56500  0.15200  0.71600  1.0000
  Sb  Sb1       1.0  0.00000  0.00000  0.00000  1.0000
  Sb  Sb2       1.0  1.00000  0.50000  0.50000  1.0000
