data_image0
_chemical_formula_structural       Au4O14Se4
_chemical_formula_sum              "Au4 O14 Se4"
_cell_length_a       6.73745
_cell_length_b       11.6722
_cell_length_c       3.94227
_cell_angle_alpha    90
_cell_angle_beta     90
_cell_angle_gamma    90

_space_group_name_H-M_alt    "P 1"
_space_group_IT_number       1

loop_
  _space_group_symop_operation_xyz
  'x, y, z'

loop_
  _atom_site_type_symbol
  _atom_site_label
  _atom_site_symmetry_multiplicity
  _atom_site_fract_x
  _atom_site_fract_y
  _atom_site_fract_z
  _atom_site_occupancy
  Au  Au1       1.0  0.19400  0.06560  0.50200  1.0000
  Au  Au2       1.0  0.69400  0.43400  0.50200  1.0000
  Au  Au3       1.0  0.30600  0.56600  0.50200  1.0000
  Au  Au4       1.0  0.80600  0.93400  0.50200  1.0000
  O   O1        1.0  0.37700  0.12800  0.12400  1.0000
  O   O2        1.0  0.87700  0.37200  0.12400  1.0000
  O   O3        1.0  0.12300  0.62800  0.12400  1.0000
  O   O4        1.0  0.62300  0.87200  0.12400  1.0000
  O   O5        1.0  0.03320  0.21300  0.49200  1.0000
  O   O6        1.0  0.53300  0.28700  0.49200  1.0000
  O   O7        1.0  0.46700  0.71300  0.49200  1.0000
  O   O8        1.0  0.96700  0.78700  0.49200  1.0000
  O   O9        1.0  0.66100  0.08340  0.57200  1.0000
  O   O10       1.0  0.16100  0.41700  0.57200  1.0000
  O   O11       1.0  0.83900  0.58300  0.57200  1.0000
  O   O12       1.0  0.33900  0.91700  0.57200  1.0000
  O   O13       1.0  0.00000  0.00000  0.83100  1.0000
  O   O14       1.0  0.50000  0.50000  0.83100  1.0000
  Se  Se1       1.0  0.61500  0.17400  0.22900  1.0000
  Se  Se2       1.0  0.11500  0.32600  0.22900  1.0000
  Se  Se3       1.0  0.88500  0.67400  0.22900  1.0000
  Se  Se4       1.0  0.38500  0.82600  0.22900  1.0000
