data_image0
_chemical_formula_structural       K2O8Re4
_chemical_formula_sum              "K2 O8 Re4"
_cell_length_a       6.5254
_cell_length_b       6.5254
_cell_length_c       6.5254
_cell_angle_alpha    119.99
_cell_angle_beta     90.0168
_cell_angle_gamma    119.99

_space_group_name_H-M_alt    "P 1"
_space_group_IT_number       1

loop_
  _space_group_symop_operation_xyz
  'x, y, z'

loop_
  _atom_site_type_symbol
  _atom_site_label
  _atom_site_symmetry_multiplicity
  _atom_site_fract_x
  _atom_site_fract_y
  _atom_site_fract_z
  _atom_site_occupancy
  K   K1        1.0  0.00000  0.00000  0.00000  1.0000
  K   K2        1.0  0.75000  0.50000  0.25000  1.0000
  O   O1        1.0  0.59900  0.19700  0.40100  1.0000
  O   O2        1.0  0.20400  0.80300  0.40100  1.0000
  O   O3        1.0  0.59900  0.80300  0.40100  1.0000
  O   O4        1.0  0.15100  0.30300  0.45400  1.0000
  O   O5        1.0  0.59900  0.19700  0.79600  1.0000
  O   O6        1.0  0.15100  0.69700  0.84900  1.0000
  O   O7        1.0  0.15100  0.30300  0.84900  1.0000
  O   O8        1.0  0.54600  0.69700  0.84900  1.0000
  Re  Re1       1.0  0.37500  0.75000  0.12500  1.0000
  Re  Re2       1.0  0.37500  0.75000  0.62500  1.0000
  Re  Re3       1.0  0.87500  0.25000  0.62500  1.0000
  Re  Re4       1.0  0.37500  0.25000  0.62500  1.0000
