data_image0
_chemical_formula_structural       Ba2O14P4Zn2
_chemical_formula_sum              "Ba2 O14 P4 Zn2"
_cell_length_a       5.31133
_cell_length_b       7.25165
_cell_length_c       7.55707
_cell_angle_alpha    102.626
_cell_angle_beta     92.1065
_cell_angle_gamma    93.9796

_space_group_name_H-M_alt    "P 1"
_space_group_IT_number       1

loop_
  _space_group_symop_operation_xyz
  'x, y, z'

loop_
  _atom_site_type_symbol
  _atom_site_label
  _atom_site_symmetry_multiplicity
  _atom_site_fract_x
  _atom_site_fract_y
  _atom_site_fract_z
  _atom_site_occupancy
  Ba  Ba1       1.0  0.20600  0.27200  0.43000  1.0000
  Ba  Ba2       1.0  0.79400  0.72800  0.57000  1.0000
  O   O1        1.0  0.27000  0.62200  0.09370  1.0000
  O   O2        1.0  0.89600  0.16000  0.09460  1.0000
  O   O3        1.0  0.43500  0.23200  0.10500  1.0000
  O   O4        1.0  0.78400  0.49000  0.24400  1.0000
  O   O5        1.0  0.53900  0.89700  0.30100  1.0000
  O   O6        1.0  0.06110  0.88600  0.30200  1.0000
  O   O7        1.0  0.29300  0.65100  0.43300  1.0000
  O   O8        1.0  0.70700  0.34900  0.56700  1.0000
  O   O9        1.0  0.93900  0.11400  0.69800  1.0000
  O   O10       1.0  0.46100  0.10300  0.69900  1.0000
  O   O11       1.0  0.21600  0.51000  0.75600  1.0000
  O   O12       1.0  0.56500  0.76800  0.89500  1.0000
  O   O13       1.0  0.10400  0.84000  0.90500  1.0000
  O   O14       1.0  0.73000  0.37800  0.90600  1.0000
  P   P1        1.0  0.70800  0.31700  0.09950  1.0000
  P   P2        1.0  0.29400  0.76800  0.29000  1.0000
  P   P3        1.0  0.70600  0.23200  0.71000  1.0000
  P   P4        1.0  0.29200  0.68300  0.90000  1.0000
  Zn  Zn1       1.0  0.79600  0.88600  0.10500  1.0000
  Zn  Zn2       1.0  0.20400  0.11400  0.89500  1.0000
