data_image0
_chemical_formula_structural       C8Hg2K4N8
_chemical_formula_sum              "C8 Hg2 K4 N8"
_cell_length_a       8.97178
_cell_length_b       8.97178
_cell_length_c       8.97178
_cell_angle_alpha    120
_cell_angle_beta     90
_cell_angle_gamma    120

_space_group_name_H-M_alt    "P 1"
_space_group_IT_number       1

loop_
  _space_group_symop_operation_xyz
  'x, y, z'

loop_
  _atom_site_type_symbol
  _atom_site_label
  _atom_site_symmetry_multiplicity
  _atom_site_fract_x
  _atom_site_fract_y
  _atom_site_fract_z
  _atom_site_occupancy
  C   C1        1.0  0.09920  0.19800  0.29800  1.0000
  C   C2        1.0  0.65100  0.30200  0.34900  1.0000
  C   C3        1.0  0.04760  0.69800  0.34900  1.0000
  C   C4        1.0  0.65100  0.69800  0.34900  1.0000
  C   C5        1.0  0.09920  0.19800  0.90100  1.0000
  C   C6        1.0  0.09920  0.80200  0.90100  1.0000
  C   C7        1.0  0.70200  0.80200  0.90100  1.0000
  C   C8        1.0  0.65100  0.30200  0.95200  1.0000
  Hg  Hg1       1.0  0.00000  0.00000  0.00000  1.0000
  Hg  Hg2       1.0  0.75000  0.50000  0.25000  1.0000
  K   K1        1.0  0.37500  0.75000  0.12500  1.0000
  K   K2        1.0  0.37500  0.75000  0.62500  1.0000
  K   K3        1.0  0.37500  0.25000  0.62500  1.0000
  K   K4        1.0  0.87500  0.25000  0.62500  1.0000
  N   N1        1.0  0.59700  0.19500  0.40300  1.0000
  N   N2        1.0  0.20800  0.80500  0.40300  1.0000
  N   N3        1.0  0.59700  0.80500  0.40300  1.0000
  N   N4        1.0  0.15300  0.30500  0.45800  1.0000
  N   N5        1.0  0.59700  0.19500  0.79200  1.0000
  N   N6        1.0  0.15300  0.30500  0.84700  1.0000
  N   N7        1.0  0.15300  0.69500  0.84700  1.0000
  N   N8        1.0  0.54200  0.69500  0.84700  1.0000
