data_image0
_chemical_formula_structural       As12Pt8Sr2
_chemical_formula_sum              "As12 Pt8 Sr2"
_cell_length_a       6.04726
_cell_length_b       6.04726
_cell_length_c       12.0906
_cell_angle_alpha    90.7203
_cell_angle_beta     90.7203
_cell_angle_gamma    88.2462

_space_group_name_H-M_alt    "P 1"
_space_group_IT_number       1

loop_
  _space_group_symop_operation_xyz
  'x, y, z'

loop_
  _atom_site_type_symbol
  _atom_site_label
  _atom_site_symmetry_multiplicity
  _atom_site_fract_x
  _atom_site_fract_y
  _atom_site_fract_z
  _atom_site_occupancy
  As  As1       1.0  0.12400  0.61600  0.05480  1.0000
  As  As2       1.0  0.62300  0.87900  0.05620  1.0000
  As  As3       1.0  0.13700  0.09670  0.19200  1.0000
  As  As4       1.0  0.90300  0.86300  0.30800  1.0000
  As  As5       1.0  0.12100  0.37700  0.44400  1.0000
  As  As6       1.0  0.38400  0.87600  0.44500  1.0000
  As  As7       1.0  0.61600  0.12400  0.55500  1.0000
  As  As8       1.0  0.87900  0.62300  0.55600  1.0000
  As  As9       1.0  0.09670  0.13700  0.69200  1.0000
  As  As10      1.0  0.86300  0.90300  0.80800  1.0000
  As  As11      1.0  0.37700  0.12100  0.94400  1.0000
  As  As12      1.0  0.87600  0.38400  0.94500  1.0000
  Pt  Pt1       1.0  0.00000  0.00000  0.00000  1.0000
  Pt  Pt2       1.0  0.50000  0.50000  0.00000  1.0000
  Pt  Pt3       1.0  0.07920  0.49500  0.25000  1.0000
  Pt  Pt4       1.0  0.50500  0.92100  0.25000  1.0000
  Pt  Pt5       1.0  0.00000  0.00000  0.50000  1.0000
  Pt  Pt6       1.0  0.50000  0.50000  0.50000  1.0000
  Pt  Pt7       1.0  0.49500  0.07920  0.75000  1.0000
  Pt  Pt8       1.0  0.92100  0.50500  0.75000  1.0000
  Sr  Sr1       1.0  0.60000  0.40000  0.25000  1.0000
  Sr  Sr2       1.0  0.40000  0.60000  0.75000  1.0000
