data_image0
_chemical_formula_structural       I8Se2Tl12
_chemical_formula_sum              "I8 Se2 Tl12"
_cell_length_a       9.2305
_cell_length_b       9.2305
_cell_length_c       9.74331
_cell_angle_alpha    90
_cell_angle_beta     90
_cell_angle_gamma    90

_space_group_name_H-M_alt    "P 1"
_space_group_IT_number       1

loop_
  _space_group_symop_operation_xyz
  'x, y, z'

loop_
  _atom_site_type_symbol
  _atom_site_label
  _atom_site_symmetry_multiplicity
  _atom_site_fract_x
  _atom_site_fract_y
  _atom_site_fract_z
  _atom_site_occupancy
  I   I1        1.0  0.66300  0.16300  0.25000  1.0000
  I   I2        1.0  0.16300  0.33700  0.25000  1.0000
  I   I3        1.0  0.83700  0.66300  0.25000  1.0000
  I   I4        1.0  0.33700  0.83700  0.25000  1.0000
  I   I5        1.0  0.66300  0.16300  0.75000  1.0000
  I   I6        1.0  0.16300  0.33700  0.75000  1.0000
  I   I7        1.0  0.83700  0.66300  0.75000  1.0000
  I   I8        1.0  0.33700  0.83700  0.75000  1.0000
  Se  Se1       1.0  0.50000  0.50000  0.00000  1.0000
  Se  Se2       1.0  0.00000  0.00000  0.50000  1.0000
  Tl  Tl1       1.0  0.39000  0.18300  0.00000  1.0000
  Tl  Tl2       1.0  0.81700  0.39000  0.00000  1.0000
  Tl  Tl3       1.0  0.18300  0.61000  0.00000  1.0000
  Tl  Tl4       1.0  0.61000  0.81700  0.00000  1.0000
  Tl  Tl5       1.0  0.00000  0.00000  0.19400  1.0000
  Tl  Tl6       1.0  0.50000  0.50000  0.30600  1.0000
  Tl  Tl7       1.0  0.31700  0.11000  0.50000  1.0000
  Tl  Tl8       1.0  0.89000  0.31700  0.50000  1.0000
  Tl  Tl9       1.0  0.11000  0.68300  0.50000  1.0000
  Tl  Tl10      1.0  0.68300  0.89000  0.50000  1.0000
  Tl  Tl11      1.0  0.50000  0.50000  0.69400  1.0000
  Tl  Tl12      1.0  0.00000  0.00000  0.80600  1.0000
