data_image0
_chemical_formula_structural       B14Dy6Mn2
_chemical_formula_sum              "B14 Dy6 Mn2"
_cell_length_a       3.43049
_cell_length_b       8.0424
_cell_length_c       9.28737
_cell_angle_alpha    90
_cell_angle_beta     90
_cell_angle_gamma    77.6856

_space_group_name_H-M_alt    "P 1"
_space_group_IT_number       1

loop_
  _space_group_symop_operation_xyz
  'x, y, z'

loop_
  _atom_site_type_symbol
  _atom_site_label
  _atom_site_symmetry_multiplicity
  _atom_site_fract_x
  _atom_site_fract_y
  _atom_site_fract_z
  _atom_site_occupancy
  B   B1        1.0  0.27200  0.45500  0.03240  1.0000
  B   B2        1.0  0.47800  0.04350  0.09810  1.0000
  B   B3        1.0  0.37000  0.26000  0.15300  1.0000
  B   B4        1.0  0.54000  0.92000  0.25000  1.0000
  B   B5        1.0  0.37000  0.26000  0.34700  1.0000
  B   B6        1.0  0.47800  0.04350  0.40200  1.0000
  B   B7        1.0  0.27200  0.45500  0.46800  1.0000
  B   B8        1.0  0.72800  0.54500  0.53200  1.0000
  B   B9        1.0  0.52200  0.95700  0.59800  1.0000
  B   B10       1.0  0.63000  0.74000  0.65300  1.0000
  B   B11       1.0  0.46000  0.07970  0.75000  1.0000
  B   B12       1.0  0.63000  0.74000  0.84700  1.0000
  B   B13       1.0  0.52200  0.95700  0.90200  1.0000
  B   B14       1.0  0.72800  0.54500  0.96800  1.0000
  Dy  Dy1       1.0  0.10400  0.79200  0.06040  1.0000
  Dy  Dy2       1.0  0.75900  0.48100  0.25000  1.0000
  Dy  Dy3       1.0  0.10400  0.79200  0.44000  1.0000
  Dy  Dy4       1.0  0.89600  0.20800  0.56000  1.0000
  Dy  Dy5       1.0  0.24100  0.51900  0.75000  1.0000
  Dy  Dy6       1.0  0.89600  0.20800  0.94000  1.0000
  Mn  Mn1       1.0  0.94600  0.10700  0.25000  1.0000
  Mn  Mn2       1.0  0.05360  0.89300  0.75000  1.0000
