data_image0
_chemical_formula_structural       Al4Cl16Sr2
_chemical_formula_sum              "Al4 Cl16 Sr2"
_cell_length_a       12.7086
_cell_length_b       7.00951
_cell_length_c       7.12889
_cell_angle_alpha    90
_cell_angle_beta     94.2941
_cell_angle_gamma    90

_space_group_name_H-M_alt    "P 1"
_space_group_IT_number       1

loop_
  _space_group_symop_operation_xyz
  'x, y, z'

loop_
  _atom_site_type_symbol
  _atom_site_label
  _atom_site_symmetry_multiplicity
  _atom_site_fract_x
  _atom_site_fract_y
  _atom_site_fract_z
  _atom_site_occupancy
  Al  Al1       1.0  0.07860  0.73700  0.31500  1.0000
  Al  Al2       1.0  0.57900  0.26300  0.31500  1.0000
  Al  Al3       1.0  0.42100  0.73700  0.68500  1.0000
  Al  Al4       1.0  0.92100  0.26300  0.68500  1.0000
  Cl  Cl1       1.0  0.63600  0.02890  0.15400  1.0000
  Cl  Cl2       1.0  0.13600  0.97100  0.15400  1.0000
  Cl  Cl3       1.0  0.15500  0.47500  0.24600  1.0000
  Cl  Cl4       1.0  0.65500  0.52500  0.24600  1.0000
  Cl  Cl5       1.0  0.41200  0.30800  0.25000  1.0000
  Cl  Cl6       1.0  0.91200  0.69200  0.25000  1.0000
  Cl  Cl7       1.0  0.88800  0.18100  0.39500  1.0000
  Cl  Cl8       1.0  0.38800  0.81900  0.39500  1.0000
  Cl  Cl9       1.0  0.61200  0.18100  0.60500  1.0000
  Cl  Cl10      1.0  0.11200  0.81900  0.60500  1.0000
  Cl  Cl11      1.0  0.08820  0.30800  0.75000  1.0000
  Cl  Cl12      1.0  0.58800  0.69200  0.75000  1.0000
  Cl  Cl13      1.0  0.34500  0.47500  0.75400  1.0000
  Cl  Cl14      1.0  0.84500  0.52500  0.75400  1.0000
  Cl  Cl15      1.0  0.86400  0.02890  0.84600  1.0000
  Cl  Cl16      1.0  0.36400  0.97100  0.84600  1.0000
  Sr  Sr1       1.0  0.75000  0.84300  0.50000  1.0000
  Sr  Sr2       1.0  0.25000  0.15700  0.50000  1.0000
