data_image0
_chemical_formula_structural       Al4Cl16Eu2
_chemical_formula_sum              "Al4 Cl16 Eu2"
_cell_length_a       12.6042
_cell_length_b       6.91761
_cell_length_c       7.02722
_cell_angle_alpha    90
_cell_angle_beta     93.8587
_cell_angle_gamma    90

_space_group_name_H-M_alt    "P 1"
_space_group_IT_number       1

loop_
  _space_group_symop_operation_xyz
  'x, y, z'

loop_
  _atom_site_type_symbol
  _atom_site_label
  _atom_site_symmetry_multiplicity
  _atom_site_fract_x
  _atom_site_fract_y
  _atom_site_fract_z
  _atom_site_occupancy
  Al  Al1       1.0  0.58100  0.26200  0.31700  1.0000
  Al  Al2       1.0  0.08060  0.73800  0.31700  1.0000
  Al  Al3       1.0  0.41900  0.73800  0.68300  1.0000
  Al  Al4       1.0  0.91900  0.26200  0.68300  1.0000
  Cl  Cl1       1.0  0.13800  0.97900  0.15700  1.0000
  Cl  Cl2       1.0  0.63800  0.02140  0.15700  1.0000
  Cl  Cl3       1.0  0.15800  0.47200  0.24700  1.0000
  Cl  Cl4       1.0  0.65800  0.52800  0.24700  1.0000
  Cl  Cl5       1.0  0.41200  0.30900  0.25700  1.0000
  Cl  Cl6       1.0  0.91200  0.69100  0.25700  1.0000
  Cl  Cl7       1.0  0.88400  0.17600  0.39100  1.0000
  Cl  Cl8       1.0  0.38400  0.82400  0.39100  1.0000
  Cl  Cl9       1.0  0.11600  0.82400  0.60900  1.0000
  Cl  Cl10      1.0  0.61600  0.17600  0.60900  1.0000
  Cl  Cl11      1.0  0.08800  0.30900  0.74300  1.0000
  Cl  Cl12      1.0  0.58800  0.69100  0.74300  1.0000
  Cl  Cl13      1.0  0.34200  0.47200  0.75300  1.0000
  Cl  Cl14      1.0  0.84200  0.52800  0.75300  1.0000
  Cl  Cl15      1.0  0.36200  0.97900  0.84300  1.0000
  Cl  Cl16      1.0  0.86200  0.02140  0.84300  1.0000
  Eu  Eu1       1.0  0.75000  0.84400  0.50000  1.0000
  Eu  Eu2       1.0  0.25000  0.15600  0.50000  1.0000
