data_image0
_chemical_formula_structural       B14W2Y6
_chemical_formula_sum              "B14 W2 Y6"
_cell_length_a       3.46801
_cell_length_b       8.18009
_cell_length_c       9.49079
_cell_angle_alpha    90
_cell_angle_beta     90
_cell_angle_gamma    77.7617

_space_group_name_H-M_alt    "P 1"
_space_group_IT_number       1

loop_
  _space_group_symop_operation_xyz
  'x, y, z'

loop_
  _atom_site_type_symbol
  _atom_site_label
  _atom_site_symmetry_multiplicity
  _atom_site_fract_x
  _atom_site_fract_y
  _atom_site_fract_z
  _atom_site_occupancy
  B   B1        1.0  0.27300  0.45500  0.03320  1.0000
  B   B2        1.0  0.48000  0.03940  0.09190  1.0000
  B   B3        1.0  0.36500  0.27000  0.14700  1.0000
  B   B4        1.0  0.54400  0.91200  0.25000  1.0000
  B   B5        1.0  0.36500  0.27000  0.35300  1.0000
  B   B6        1.0  0.48000  0.03940  0.40800  1.0000
  B   B7        1.0  0.27300  0.45500  0.46700  1.0000
  B   B8        1.0  0.72700  0.54500  0.53300  1.0000
  B   B9        1.0  0.52000  0.96100  0.59200  1.0000
  B   B10       1.0  0.63500  0.73000  0.64700  1.0000
  B   B11       1.0  0.45600  0.08800  0.75000  1.0000
  B   B12       1.0  0.63500  0.73000  0.85300  1.0000
  B   B13       1.0  0.52000  0.96100  0.90800  1.0000
  B   B14       1.0  0.72700  0.54500  0.96700  1.0000
  W   W1        1.0  0.94600  0.10700  0.25000  1.0000
  W   W2        1.0  0.05360  0.89300  0.75000  1.0000
  Y   Y1        1.0  0.10700  0.78600  0.06040  1.0000
  Y   Y2        1.0  0.75600  0.48800  0.25000  1.0000
  Y   Y3        1.0  0.10700  0.78600  0.44000  1.0000
  Y   Y4        1.0  0.89300  0.21400  0.56000  1.0000
  Y   Y5        1.0  0.24400  0.51200  0.75000  1.0000
  Y   Y6        1.0  0.89300  0.21400  0.94000  1.0000
