data_image0
_chemical_formula_structural       Ho6O14Ta2
_chemical_formula_sum              "Ho6 O14 Ta2"
_cell_length_a       6.40661
_cell_length_b       6.40661
_cell_length_c       7.40709
_cell_angle_alpha    90
_cell_angle_beta     90
_cell_angle_gamma    70.8904

_space_group_name_H-M_alt    "P 1"
_space_group_IT_number       1

loop_
  _space_group_symop_operation_xyz
  'x, y, z'

loop_
  _atom_site_type_symbol
  _atom_site_label
  _atom_site_symmetry_multiplicity
  _atom_site_fract_x
  _atom_site_fract_y
  _atom_site_fract_z
  _atom_site_occupancy
  Ho  Ho1       1.0  0.00030  0.53600  0.00922  1.0000
  Ho  Ho2       1.0  0.53000  0.47000  0.25000  1.0000
  Ho  Ho3       1.0  0.46400  0.00000  0.49100  1.0000
  Ho  Ho4       1.0  1.00000  0.46400  0.50900  1.0000
  Ho  Ho5       1.0  0.47000  0.53000  0.75000  1.0000
  Ho  Ho6       1.0  0.53600  0.00030  0.99100  1.0000
  O   O1        1.0  0.37100  0.37100  0.00000  1.0000
  O   O2        1.0  0.63900  0.63900  0.00000  1.0000
  O   O3        1.0  0.92900  0.92900  0.00000  1.0000
  O   O4        1.0  0.31300  0.94300  0.20500  1.0000
  O   O5        1.0  0.91700  0.33000  0.22500  1.0000
  O   O6        1.0  0.67000  0.08310  0.27500  1.0000
  O   O7        1.0  0.05660  0.68700  0.29500  1.0000
  O   O8        1.0  0.07050  0.07050  0.50000  1.0000
  O   O9        1.0  0.36100  0.36100  0.50000  1.0000
  O   O10       1.0  0.62900  0.62900  0.50000  1.0000
  O   O11       1.0  0.68700  0.05660  0.70500  1.0000
  O   O12       1.0  0.08310  0.67000  0.72500  1.0000
  O   O13       1.0  0.33000  0.91700  0.77500  1.0000
  O   O14       1.0  0.94300  0.31300  0.79500  1.0000
  Ta  Ta1       1.0  0.00194  0.99800  0.25000  1.0000
  Ta  Ta2       1.0  0.99800  0.00194  0.75000  1.0000
