data_image0
_chemical_formula_structural       Nd6O14Os2
_chemical_formula_sum              "Nd6 O14 Os2"
_cell_length_a       6.6
_cell_length_b       6.6
_cell_length_c       7.53241
_cell_angle_alpha    90
_cell_angle_beta     90
_cell_angle_gamma    68.2624

_space_group_name_H-M_alt    "P 1"
_space_group_IT_number       1

loop_
  _space_group_symop_operation_xyz
  'x, y, z'

loop_
  _atom_site_type_symbol
  _atom_site_label
  _atom_site_symmetry_multiplicity
  _atom_site_fract_x
  _atom_site_fract_y
  _atom_site_fract_z
  _atom_site_occupancy
  Nd  Nd1       1.0  0.00000  0.00000  0.00000  1.0000
  Nd  Nd2       1.0  0.47000  0.08460  0.25000  1.0000
  Nd  Nd3       1.0  0.91500  0.53000  0.25000  1.0000
  Nd  Nd4       1.0  0.00000  0.00000  0.50000  1.0000
  Nd  Nd5       1.0  0.08460  0.47000  0.75000  1.0000
  Nd  Nd6       1.0  0.53000  0.91500  0.75000  1.0000
  O   O1        1.0  0.18700  0.56100  0.04150  1.0000
  O   O2        1.0  0.43900  0.81300  0.04150  1.0000
  O   O3        1.0  0.10300  0.15900  0.25000  1.0000
  O   O4        1.0  0.58700  0.41300  0.25000  1.0000
  O   O5        1.0  0.84100  0.89700  0.25000  1.0000
  O   O6        1.0  0.18700  0.56100  0.45800  1.0000
  O   O7        1.0  0.43900  0.81300  0.45800  1.0000
  O   O8        1.0  0.56100  0.18700  0.54200  1.0000
  O   O9        1.0  0.81300  0.43900  0.54200  1.0000
  O   O10       1.0  0.15900  0.10300  0.75000  1.0000
  O   O11       1.0  0.41300  0.58700  0.75000  1.0000
  O   O12       1.0  0.89700  0.84100  0.75000  1.0000
  O   O13       1.0  0.56100  0.18700  0.95800  1.0000
  O   O14       1.0  0.81300  0.43900  0.95800  1.0000
  Os  Os1       1.0  0.50000  0.50000  0.00000  1.0000
  Os  Os2       1.0  0.50000  0.50000  0.50000  1.0000
