data_image0
_chemical_formula_structural       F12Hg4Ni4O2
_chemical_formula_sum              "F12 Hg4 Ni4 O2"
_cell_length_a       7.26011
_cell_length_b       7.26011
_cell_length_c       7.26011
_cell_angle_alpha    120
_cell_angle_beta     90
_cell_angle_gamma    120

_space_group_name_H-M_alt    "P 1"
_space_group_IT_number       1

loop_
  _space_group_symop_operation_xyz
  'x, y, z'

loop_
  _atom_site_type_symbol
  _atom_site_label
  _atom_site_symmetry_multiplicity
  _atom_site_fract_x
  _atom_site_fract_y
  _atom_site_fract_z
  _atom_site_occupancy
  F   F1        1.0  0.92700  0.25000  0.17700  1.0000
  F   F2        1.0  0.92700  0.85400  0.17700  1.0000
  F   F3        1.0  0.32300  0.25000  0.17700  1.0000
  F   F4        1.0  0.67700  0.35400  0.42700  1.0000
  F   F5        1.0  0.07300  0.75000  0.42700  1.0000
  F   F6        1.0  0.67700  0.75000  0.42700  1.0000
  F   F7        1.0  0.32300  0.25000  0.57300  1.0000
  F   F8        1.0  0.92700  0.25000  0.57300  1.0000
  F   F9        1.0  0.32300  0.64600  0.57300  1.0000
  F   F10       1.0  0.07300  0.14600  0.82300  1.0000
  F   F11       1.0  0.07300  0.75000  0.82300  1.0000
  F   F12       1.0  0.67700  0.75000  0.82300  1.0000
  Hg  Hg1       1.0  0.50000  0.00000  0.00000  1.0000
  Hg  Hg2       1.0  0.00000  0.50000  0.00000  1.0000
  Hg  Hg3       1.0  0.50000  0.50000  0.00000  1.0000
  Hg  Hg4       1.0  0.50000  0.00000  0.50000  1.0000
  Ni  Ni1       1.0  0.00000  0.00000  0.00000  1.0000
  Ni  Ni2       1.0  0.00000  0.00000  0.50000  1.0000
  Ni  Ni3       1.0  0.00000  0.50000  0.50000  1.0000
  Ni  Ni4       1.0  0.50000  0.50000  0.50000  1.0000
  O   O1        1.0  0.37500  0.75000  0.12500  1.0000
  O   O2        1.0  0.62500  0.25000  0.87500  1.0000
