data_image0
_chemical_formula_structural       Al18Ca2Ni2
_chemical_formula_sum              "Al18 Ca2 Ni2"
_cell_length_a       7.56546
_cell_length_b       7.56556
_cell_length_c       7.94628
_cell_angle_alpha    90
_cell_angle_beta     90
_cell_angle_gamma    120

_space_group_name_H-M_alt    "P 1"
_space_group_IT_number       1

loop_
  _space_group_symop_operation_xyz
  'x, y, z'

loop_
  _atom_site_type_symbol
  _atom_site_label
  _atom_site_symmetry_multiplicity
  _atom_site_fract_x
  _atom_site_fract_y
  _atom_site_fract_z
  _atom_site_occupancy
  Al  Al1       1.0  0.20800  0.41600  0.01620  1.0000
  Al  Al2       1.0  0.20800  0.79200  0.01630  1.0000
  Al  Al3       1.0  0.58400  0.79200  0.01630  1.0000
  Al  Al4       1.0  0.52400  0.04770  0.25000  1.0000
  Al  Al5       1.0  0.52400  0.47600  0.25000  1.0000
  Al  Al6       1.0  0.95200  0.47600  0.25000  1.0000
  Al  Al7       1.0  0.20800  0.79200  0.48400  1.0000
  Al  Al8       1.0  0.58400  0.79200  0.48400  1.0000
  Al  Al9       1.0  0.20800  0.41600  0.48400  1.0000
  Al  Al10      1.0  0.79200  0.58400  0.51600  1.0000
  Al  Al11      1.0  0.41600  0.20800  0.51600  1.0000
  Al  Al12      1.0  0.79200  0.20800  0.51600  1.0000
  Al  Al13      1.0  0.04770  0.52400  0.75000  1.0000
  Al  Al14      1.0  0.47600  0.52400  0.75000  1.0000
  Al  Al15      1.0  0.47600  0.95200  0.75000  1.0000
  Al  Al16      1.0  0.41600  0.20800  0.98400  1.0000
  Al  Al17      1.0  0.79200  0.20800  0.98400  1.0000
  Al  Al18      1.0  0.79200  0.58400  0.98400  1.0000
  Ca  Ca1       1.0  0.00000  0.00000  0.25000  1.0000
  Ca  Ca2       1.0  0.00000  0.00017  0.75000  1.0000
  Ni  Ni1       1.0  0.33300  0.66700  0.25000  1.0000
  Ni  Ni2       1.0  0.66700  0.33300  0.75000  1.0000
