data_image0
_chemical_formula_structural       Br12Cd2Rb8
_chemical_formula_sum              "Br12 Cd2 Rb8"
_cell_length_a       9.40439
_cell_length_b       9.40439
_cell_length_c       9.40439
_cell_angle_alpha    89.2244
_cell_angle_beta     90.7756
_cell_angle_gamma    90.7756

_space_group_name_H-M_alt    "P 1"
_space_group_IT_number       1

loop_
  _space_group_symop_operation_xyz
  'x, y, z'

loop_
  _atom_site_type_symbol
  _atom_site_label
  _atom_site_symmetry_multiplicity
  _atom_site_fract_x
  _atom_site_fract_y
  _atom_site_fract_z
  _atom_site_occupancy
  Br  Br1       1.0  0.06930  0.71100  0.05960  1.0000
  Br  Br2       1.0  0.71100  0.94000  0.06930  1.0000
  Br  Br3       1.0  0.56900  0.56000  0.21100  1.0000
  Br  Br4       1.0  0.05950  0.06930  0.28900  1.0000
  Br  Br5       1.0  0.44000  0.21100  0.43100  1.0000
  Br  Br6       1.0  0.21100  0.56900  0.44000  1.0000
  Br  Br7       1.0  0.78900  0.43100  0.56000  1.0000
  Br  Br8       1.0  0.56000  0.78900  0.56900  1.0000
  Br  Br9       1.0  0.94000  0.93100  0.71100  1.0000
  Br  Br10      1.0  0.43100  0.44000  0.78900  1.0000
  Br  Br11      1.0  0.28900  0.05950  0.93100  1.0000
  Br  Br12      1.0  0.93100  0.28900  0.94000  1.0000
  Cd  Cd1       1.0  0.00000  0.00000  0.00000  1.0000
  Cd  Cd2       1.0  0.50000  0.50000  0.50000  1.0000
  Rb  Rb1       1.0  0.25000  0.37400  0.12600  1.0000
  Rb  Rb2       1.0  0.37400  0.87400  0.25000  1.0000
  Rb  Rb3       1.0  0.75000  0.25000  0.25000  1.0000
  Rb  Rb4       1.0  0.87400  0.75000  0.37400  1.0000
  Rb  Rb5       1.0  0.12600  0.25000  0.62600  1.0000
  Rb  Rb6       1.0  0.62600  0.12600  0.75000  1.0000
  Rb  Rb7       1.0  0.25000  0.75000  0.75000  1.0000
  Rb  Rb8       1.0  0.75000  0.62600  0.87400  1.0000
