data_image0
_chemical_formula_structural       Ca4O14Ta4
_chemical_formula_sum              "Ca4 O14 Ta4"
_cell_length_a       7.37193
_cell_length_b       7.37193
_cell_length_c       7.37193
_cell_angle_alpha    120
_cell_angle_beta     90
_cell_angle_gamma    120

_space_group_name_H-M_alt    "P 1"
_space_group_IT_number       1

loop_
  _space_group_symop_operation_xyz
  'x, y, z'

loop_
  _atom_site_type_symbol
  _atom_site_label
  _atom_site_symmetry_multiplicity
  _atom_site_fract_x
  _atom_site_fract_y
  _atom_site_fract_z
  _atom_site_occupancy
  Ca  Ca1       1.0  0.37500  0.75000  0.12500  1.0000
  Ca  Ca2       1.0  0.87500  0.25000  0.62500  1.0000
  Ca  Ca3       1.0  0.37500  0.25000  0.62500  1.0000
  Ca  Ca4       1.0  0.37500  0.75000  0.62500  1.0000
  O   O1        1.0  0.94400  0.50000  0.05600  1.0000
  O   O2        1.0  0.55600  0.11200  0.05600  1.0000
  O   O3        1.0  0.55600  0.50000  0.05600  1.0000
  O   O4        1.0  0.80600  0.00000  0.19400  1.0000
  O   O5        1.0  0.19400  0.00000  0.19400  1.0000
  O   O6        1.0  0.19400  0.38800  0.19400  1.0000
  O   O7        1.0  0.55600  0.50000  0.44400  1.0000
  O   O8        1.0  0.94400  0.50000  0.44400  1.0000
  O   O9        1.0  0.94400  0.88800  0.44400  1.0000
  O   O10       1.0  0.50000  0.00000  0.50000  1.0000
  O   O11       1.0  0.25000  0.50000  0.75000  1.0000
  O   O12       1.0  0.80600  0.00000  0.80600  1.0000
  O   O13       1.0  0.19400  0.00000  0.80600  1.0000
  O   O14       1.0  0.80600  0.61200  0.80600  1.0000
  Ta  Ta1       1.0  0.37500  0.25000  0.12500  1.0000
  Ta  Ta2       1.0  0.87500  0.25000  0.12500  1.0000
  Ta  Ta3       1.0  0.87500  0.75000  0.12500  1.0000
  Ta  Ta4       1.0  0.87500  0.75000  0.62500  1.0000
