data_image0
_chemical_formula_structural       Au12Hg10
_chemical_formula_sum              "Au12 Hg10"
_cell_length_a       7.08293
_cell_length_b       7.08292
_cell_length_c       10.297
_cell_angle_alpha    90
_cell_angle_beta     90
_cell_angle_gamma    120

_space_group_name_H-M_alt    "P 1"
_space_group_IT_number       1

loop_
  _space_group_symop_operation_xyz
  'x, y, z'

loop_
  _atom_site_type_symbol
  _atom_site_label
  _atom_site_symmetry_multiplicity
  _atom_site_fract_x
  _atom_site_fract_y
  _atom_site_fract_z
  _atom_site_occupancy
  Au  Au1       1.0  0.75900  0.75900  0.11000  1.0000
  Au  Au2       1.0  0.24100  0.00000  0.11000  1.0000
  Au  Au3       1.0  0.00000  0.24100  0.11000  1.0000
  Au  Au4       1.0  0.75900  0.75900  0.39000  1.0000
  Au  Au5       1.0  0.24100  0.00000  0.39000  1.0000
  Au  Au6       1.0  0.00000  0.24100  0.39000  1.0000
  Au  Au7       1.0  0.24100  0.24100  0.61000  1.0000
  Au  Au8       1.0  0.75900  0.00000  0.61000  1.0000
  Au  Au9       1.0  0.00000  0.75900  0.61000  1.0000
  Au  Au10      1.0  0.24100  0.24100  0.89000  1.0000
  Au  Au11      1.0  0.75900  0.00000  0.89000  1.0000
  Au  Au12      1.0  0.00000  0.75900  0.89000  1.0000
  Hg  Hg1       1.0  0.66700  0.33300  0.00000  1.0000
  Hg  Hg2       1.0  0.33300  0.66700  0.00000  1.0000
  Hg  Hg3       1.0  0.58700  0.00000  0.25000  1.0000
  Hg  Hg4       1.0  0.00000  0.58700  0.25000  1.0000
  Hg  Hg5       1.0  0.41300  0.41300  0.25000  1.0000
  Hg  Hg6       1.0  0.66700  0.33300  0.50000  1.0000
  Hg  Hg7       1.0  0.33300  0.66700  0.50000  1.0000
  Hg  Hg8       1.0  0.41300  0.00000  0.75000  1.0000
  Hg  Hg9       1.0  0.00000  0.41300  0.75000  1.0000
  Hg  Hg10      1.0  0.58700  0.58700  0.75000  1.0000
