data_image0
_chemical_formula_structural       Ba2P20
_chemical_formula_sum              "Ba2 P20"
_cell_length_a       6.4874
_cell_length_b       7.17684
_cell_length_c       12.0436
_cell_angle_alpha    90
_cell_angle_beta     90
_cell_angle_gamma    63.13

_space_group_name_H-M_alt    "P 1"
_space_group_IT_number       1

loop_
  _space_group_symop_operation_xyz
  'x, y, z'

loop_
  _atom_site_type_symbol
  _atom_site_label
  _atom_site_symmetry_multiplicity
  _atom_site_fract_x
  _atom_site_fract_y
  _atom_site_fract_z
  _atom_site_occupancy
  Ba  Ba1       1.0  0.81300  0.37300  0.00393  1.0000
  Ba  Ba2       1.0  0.18700  0.62700  0.50400  1.0000
  P   P1        1.0  0.06830  0.86300  0.05770  1.0000
  P   P2        1.0  0.55200  0.89500  0.06460  1.0000
  P   P3        1.0  0.38800  0.22400  0.10500  1.0000
  P   P4        1.0  0.38100  0.74800  0.16600  1.0000
  P   P5        1.0  0.87100  0.74800  0.16600  1.0000
  P   P6        1.0  0.90600  0.18700  0.27800  1.0000
  P   P7        1.0  0.40600  0.18800  0.28400  1.0000
  P   P8        1.0  0.26900  0.95800  0.31700  1.0000
  P   P9        1.0  0.77300  0.95800  0.31700  1.0000
  P   P10       1.0  0.80800  0.38300  0.42900  1.0000
  P   P11       1.0  0.93200  0.13700  0.55800  1.0000
  P   P12       1.0  0.44800  0.10500  0.56500  1.0000
  P   P13       1.0  0.61200  0.77600  0.60500  1.0000
  P   P14       1.0  0.12900  0.25200  0.66600  1.0000
  P   P15       1.0  0.61900  0.25200  0.66600  1.0000
  P   P16       1.0  0.09360  0.81300  0.77800  1.0000
  P   P17       1.0  0.59400  0.81200  0.78400  1.0000
  P   P18       1.0  0.22700  0.04180  0.81700  1.0000
  P   P19       1.0  0.73100  0.04180  0.81700  1.0000
  P   P20       1.0  0.19200  0.61700  0.92900  1.0000
