data_image0
_chemical_formula_structural       Ge4Na8Te10
_chemical_formula_sum              "Ge4 Na8 Te10"
_cell_length_a       10.7975
_cell_length_b       9.70995
_cell_length_c       7.96449
_cell_angle_alpha    67.756
_cell_angle_beta     70.7844
_cell_angle_gamma    68.2976

_space_group_name_H-M_alt    "P 1"
_space_group_IT_number       1

loop_
  _space_group_symop_operation_xyz
  'x, y, z'

loop_
  _atom_site_type_symbol
  _atom_site_label
  _atom_site_symmetry_multiplicity
  _atom_site_fract_x
  _atom_site_fract_y
  _atom_site_fract_z
  _atom_site_occupancy
  Ge  Ge1       1.0  0.74600  0.05980  0.08520  1.0000
  Ge  Ge2       1.0  0.85500  0.23800  0.10500  1.0000
  Ge  Ge3       1.0  0.14500  0.76200  0.89500  1.0000
  Ge  Ge4       1.0  0.25400  0.94000  0.91500  1.0000
  Na  Na1       1.0  0.80900  0.63300  0.12600  1.0000
  Na  Na2       1.0  0.42700  0.44100  0.27000  1.0000
  Na  Na3       1.0  0.41300  0.95200  0.32100  1.0000
  Na  Na4       1.0  0.01760  0.73700  0.46500  1.0000
  Na  Na5       1.0  0.98200  0.26300  0.53500  1.0000
  Na  Na6       1.0  0.58700  0.04810  0.67900  1.0000
  Na  Na7       1.0  0.57300  0.55900  0.73000  1.0000
  Na  Na8       1.0  0.19100  0.36700  0.87400  1.0000
  Te  Te1       1.0  0.48100  0.76800  0.01260  1.0000
  Te  Te2       1.0  0.12700  0.52900  0.19300  1.0000
  Te  Te3       1.0  0.09410  0.05710  0.19700  1.0000
  Te  Te4       1.0  0.71400  0.32900  0.39700  1.0000
  Te  Te5       1.0  0.71900  0.84200  0.39700  1.0000
  Te  Te6       1.0  0.28100  0.15800  0.60300  1.0000
  Te  Te7       1.0  0.28600  0.67100  0.60300  1.0000
  Te  Te8       1.0  0.90600  0.94300  0.80300  1.0000
  Te  Te9       1.0  0.87300  0.47100  0.80700  1.0000
  Te  Te10      1.0  0.51900  0.23200  0.98700  1.0000
