data_image0
_chemical_formula_structural       Cd2K12O8
_chemical_formula_sum              "Cd2 K12 O8"
_cell_length_a       8.68038
_cell_length_b       8.68011
_cell_length_c       6.62972
_cell_angle_alpha    90
_cell_angle_beta     90
_cell_angle_gamma    120.001

_space_group_name_H-M_alt    "P 1"
_space_group_IT_number       1

loop_
  _space_group_symop_operation_xyz
  'x, y, z'

loop_
  _atom_site_type_symbol
  _atom_site_label
  _atom_site_symmetry_multiplicity
  _atom_site_fract_x
  _atom_site_fract_y
  _atom_site_fract_z
  _atom_site_occupancy
  Cd  Cd1       1.0  0.33300  0.66700  0.25000  1.0000
  Cd  Cd2       1.0  0.66700  0.33300  0.75000  1.0000
  K   K1        1.0  0.53700  0.46300  0.14200  1.0000
  K   K2        1.0  0.92600  0.46300  0.14200  1.0000
  K   K3        1.0  0.53700  0.07380  0.14200  1.0000
  K   K4        1.0  0.85800  0.71600  0.47200  1.0000
  K   K5        1.0  0.28400  0.14200  0.47200  1.0000
  K   K6        1.0  0.85800  0.14200  0.47200  1.0000
  K   K7        1.0  0.07380  0.53700  0.64200  1.0000
  K   K8        1.0  0.46300  0.53700  0.64200  1.0000
  K   K9        1.0  0.46300  0.92600  0.64200  1.0000
  K   K10       1.0  0.14200  0.28400  0.97200  1.0000
  K   K11       1.0  0.14200  0.85800  0.97200  1.0000
  K   K12       1.0  0.71600  0.85800  0.97200  1.0000
  O   O1        1.0  0.19100  0.80900  0.36200  1.0000
  O   O2        1.0  0.61800  0.80900  0.36200  1.0000
  O   O3        1.0  0.19100  0.38200  0.36200  1.0000
  O   O4        1.0  0.66700  0.33300  0.41500  1.0000
  O   O5        1.0  0.38200  0.19100  0.86200  1.0000
  O   O6        1.0  0.80900  0.19100  0.86200  1.0000
  O   O7        1.0  0.80900  0.61800  0.86200  1.0000
  O   O8        1.0  0.33300  0.66700  0.91500  1.0000
