data_image0
_chemical_formula_structural       B14Cr2Er6
_chemical_formula_sum              "B14 Cr2 Er6"
_cell_length_a       3.41131
_cell_length_b       8.01259
_cell_length_c       9.27524
_cell_angle_alpha    90
_cell_angle_beta     90
_cell_angle_gamma    77.7093

_space_group_name_H-M_alt    "P 1"
_space_group_IT_number       1

loop_
  _space_group_symop_operation_xyz
  'x, y, z'

loop_
  _atom_site_type_symbol
  _atom_site_label
  _atom_site_symmetry_multiplicity
  _atom_site_fract_x
  _atom_site_fract_y
  _atom_site_fract_z
  _atom_site_occupancy
  B   B1        1.0  0.27300  0.45500  0.03260  1.0000
  B   B2        1.0  0.47900  0.04140  0.09580  1.0000
  B   B3        1.0  0.36900  0.26200  0.15100  1.0000
  B   B4        1.0  0.54200  0.91600  0.25000  1.0000
  B   B5        1.0  0.36900  0.26200  0.34900  1.0000
  B   B6        1.0  0.47900  0.04140  0.40400  1.0000
  B   B7        1.0  0.27300  0.45500  0.46700  1.0000
  B   B8        1.0  0.72700  0.54500  0.53300  1.0000
  B   B9        1.0  0.52100  0.95900  0.59600  1.0000
  B   B10       1.0  0.63100  0.73800  0.65100  1.0000
  B   B11       1.0  0.45800  0.08430  0.75000  1.0000
  B   B12       1.0  0.63100  0.73800  0.84900  1.0000
  B   B13       1.0  0.52100  0.95900  0.90400  1.0000
  B   B14       1.0  0.72700  0.54500  0.96700  1.0000
  Cr  Cr1       1.0  0.94700  0.10600  0.25000  1.0000
  Cr  Cr2       1.0  0.05280  0.89400  0.75000  1.0000
  Er  Er1       1.0  0.10500  0.79000  0.05960  1.0000
  Er  Er2       1.0  0.75900  0.48300  0.25000  1.0000
  Er  Er3       1.0  0.10500  0.79000  0.44000  1.0000
  Er  Er4       1.0  0.89500  0.21000  0.56000  1.0000
  Er  Er5       1.0  0.24100  0.51700  0.75000  1.0000
  Er  Er6       1.0  0.89500  0.21000  0.94000  1.0000
