data_image0
_chemical_formula_structural       K2O8Zn4
_chemical_formula_sum              "K2 O8 Zn4"
_cell_length_a       6.44238
_cell_length_b       6.44238
_cell_length_c       6.44238
_cell_angle_alpha    120.041
_cell_angle_beta     89.9295
_cell_angle_gamma    120.041

_space_group_name_H-M_alt    "P 1"
_space_group_IT_number       1

loop_
  _space_group_symop_operation_xyz
  'x, y, z'

loop_
  _atom_site_type_symbol
  _atom_site_label
  _atom_site_symmetry_multiplicity
  _atom_site_fract_x
  _atom_site_fract_y
  _atom_site_fract_z
  _atom_site_occupancy
  K   K1        1.0  0.00000  0.00000  0.00000  1.0000
  K   K2        1.0  0.75000  0.50000  0.25000  1.0000
  O   O1        1.0  0.59900  0.19800  0.40100  1.0000
  O   O2        1.0  0.20200  0.80200  0.40100  1.0000
  O   O3        1.0  0.59900  0.80200  0.40100  1.0000
  O   O4        1.0  0.15100  0.30200  0.45200  1.0000
  O   O5        1.0  0.59900  0.19800  0.79800  1.0000
  O   O6        1.0  0.15100  0.69800  0.84900  1.0000
  O   O7        1.0  0.15100  0.30200  0.84900  1.0000
  O   O8        1.0  0.54800  0.69800  0.84900  1.0000
  Zn  Zn1       1.0  0.37500  0.75000  0.12500  1.0000
  Zn  Zn2       1.0  0.87500  0.25000  0.62500  1.0000
  Zn  Zn3       1.0  0.37500  0.25000  0.62500  1.0000
  Zn  Zn4       1.0  0.37500  0.75000  0.62500  1.0000
