data_image0
_chemical_formula_structural       As12Ba2Pt8
_chemical_formula_sum              "As12 Ba2 Pt8"
_cell_length_a       6.09297
_cell_length_b       6.09297
_cell_length_c       12.1184
_cell_angle_alpha    90.5638
_cell_angle_beta     90.5638
_cell_angle_gamma    87.6157

_space_group_name_H-M_alt    "P 1"
_space_group_IT_number       1

loop_
  _space_group_symop_operation_xyz
  'x, y, z'

loop_
  _atom_site_type_symbol
  _atom_site_label
  _atom_site_symmetry_multiplicity
  _atom_site_fract_x
  _atom_site_fract_y
  _atom_site_fract_z
  _atom_site_occupancy
  As  As1       1.0  0.12300  0.61500  0.05430  1.0000
  As  As2       1.0  0.62300  0.87700  0.05540  1.0000
  As  As3       1.0  0.13700  0.09350  0.19100  1.0000
  As  As4       1.0  0.90700  0.86300  0.30900  1.0000
  As  As5       1.0  0.12300  0.37700  0.44500  1.0000
  As  As6       1.0  0.38500  0.87700  0.44600  1.0000
  As  As7       1.0  0.61500  0.12300  0.55400  1.0000
  As  As8       1.0  0.87700  0.62300  0.55500  1.0000
  As  As9       1.0  0.09350  0.13700  0.69100  1.0000
  As  As10      1.0  0.86300  0.90700  0.80900  1.0000
  As  As11      1.0  0.37700  0.12300  0.94500  1.0000
  As  As12      1.0  0.87700  0.38500  0.94600  1.0000
  Ba  Ba1       1.0  0.60700  0.39300  0.25000  1.0000
  Ba  Ba2       1.0  0.39300  0.60700  0.75000  1.0000
  Pt  Pt1       1.0  0.00000  0.00000  0.00000  1.0000
  Pt  Pt2       1.0  0.50000  0.50000  0.00000  1.0000
  Pt  Pt3       1.0  0.08390  0.49400  0.25000  1.0000
  Pt  Pt4       1.0  0.50600  0.91600  0.25000  1.0000
  Pt  Pt5       1.0  0.00000  0.00000  0.50000  1.0000
  Pt  Pt6       1.0  0.50000  0.50000  0.50000  1.0000
  Pt  Pt7       1.0  0.49400  0.08390  0.75000  1.0000
  Pt  Pt8       1.0  0.91600  0.50600  0.75000  1.0000
