data_image0
_chemical_formula_structural       Cl12Cs8Pb2
_chemical_formula_sum              "Cl12 Cs8 Pb2"
_cell_length_a       9.39261
_cell_length_b       9.39261
_cell_length_c       9.39261
_cell_angle_alpha    88.6662
_cell_angle_beta     88.6662
_cell_angle_gamma    88.6662

_space_group_name_H-M_alt    "P 1"
_space_group_IT_number       1

loop_
  _space_group_symop_operation_xyz
  'x, y, z'

loop_
  _atom_site_type_symbol
  _atom_site_label
  _atom_site_symmetry_multiplicity
  _atom_site_fract_x
  _atom_site_fract_y
  _atom_site_fract_z
  _atom_site_occupancy
  Cl  Cl1       1.0  0.29500  0.93700  0.07320  1.0000
  Cl  Cl2       1.0  0.07320  0.29500  0.93700  1.0000
  Cl  Cl3       1.0  0.93700  0.07320  0.29500  1.0000
  Cl  Cl4       1.0  0.56200  0.20500  0.42700  1.0000
  Cl  Cl5       1.0  0.20500  0.42700  0.56200  1.0000
  Cl  Cl6       1.0  0.42700  0.56300  0.20500  1.0000
  Cl  Cl7       1.0  0.70500  0.06250  0.92700  1.0000
  Cl  Cl8       1.0  0.92700  0.70500  0.06250  1.0000
  Cl  Cl9       1.0  0.06250  0.92700  0.70500  1.0000
  Cl  Cl10      1.0  0.43800  0.79500  0.57300  1.0000
  Cl  Cl11      1.0  0.79500  0.57300  0.43800  1.0000
  Cl  Cl12      1.0  0.57300  0.43800  0.79500  1.0000
  Cs  Cs1       1.0  0.25000  0.25000  0.25000  1.0000
  Cs  Cs2       1.0  0.75000  0.75000  0.75000  1.0000
  Cs  Cs3       1.0  0.62500  0.87500  0.25000  1.0000
  Cs  Cs4       1.0  0.25000  0.62500  0.87500  1.0000
  Cs  Cs5       1.0  0.87500  0.25000  0.62500  1.0000
  Cs  Cs6       1.0  0.37500  0.12500  0.75000  1.0000
  Cs  Cs7       1.0  0.75000  0.37500  0.12500  1.0000
  Cs  Cs8       1.0  0.12500  0.75000  0.37500  1.0000
  Pb  Pb1       1.0  0.00000  0.00000  0.00000  1.0000
  Pb  Pb2       1.0  0.50000  0.50000  0.50000  1.0000
