data_image0
_chemical_formula_structural       Ba2Cd2O14P4
_chemical_formula_sum              "Ba2 Cd2 O14 P4"
_cell_length_a       5.65241
_cell_length_b       7.02895
_cell_length_c       7.58226
_cell_angle_alpha    101.551
_cell_angle_beta     89.8615
_cell_angle_gamma    93.1413

_space_group_name_H-M_alt    "P 1"
_space_group_IT_number       1

loop_
  _space_group_symop_operation_xyz
  'x, y, z'

loop_
  _atom_site_type_symbol
  _atom_site_label
  _atom_site_symmetry_multiplicity
  _atom_site_fract_x
  _atom_site_fract_y
  _atom_site_fract_z
  _atom_site_occupancy
  Ba  Ba1       1.0  0.23400  0.26400  0.43500  1.0000
  Ba  Ba2       1.0  0.76600  0.73600  0.56500  1.0000
  Cd  Cd1       1.0  0.78500  0.85100  0.10000  1.0000
  Cd  Cd2       1.0  0.21500  0.14900  0.90000  1.0000
  O   O1        1.0  0.26700  0.62400  0.10700  1.0000
  O   O2        1.0  0.91600  0.19000  0.11300  1.0000
  O   O3        1.0  0.47800  0.23800  0.12200  1.0000
  O   O4        1.0  0.77000  0.53500  0.21400  1.0000
  O   O5        1.0  0.50600  0.90100  0.31300  1.0000
  O   O6        1.0  0.06150  0.89300  0.31700  1.0000
  O   O7        1.0  0.27400  0.64200  0.44200  1.0000
  O   O8        1.0  0.72600  0.35800  0.55800  1.0000
  O   O9        1.0  0.93800  0.10700  0.68300  1.0000
  O   O10       1.0  0.49400  0.09920  0.68700  1.0000
  O   O11       1.0  0.23000  0.46500  0.78600  1.0000
  O   O12       1.0  0.52200  0.76200  0.87800  1.0000
  O   O13       1.0  0.08360  0.81000  0.88700  1.0000
  O   O14       1.0  0.73300  0.37600  0.89300  1.0000
  P   P1        1.0  0.72300  0.33500  0.09750  1.0000
  P   P2        1.0  0.27900  0.76900  0.30200  1.0000
  P   P3        1.0  0.72100  0.23100  0.69800  1.0000
  P   P4        1.0  0.27700  0.66500  0.90300  1.0000
