data_image0
_chemical_formula_structural       Ba2Mn4O16
_chemical_formula_sum              "Ba2 Mn4 O16"
_cell_length_a       6.9299
_cell_length_b       6.9299
_cell_length_c       8.15971
_cell_angle_alpha    103.71
_cell_angle_beta     103.71
_cell_angle_gamma    116.223

_space_group_name_H-M_alt    "P 1"
_space_group_IT_number       1

loop_
  _space_group_symop_operation_xyz
  'x, y, z'

loop_
  _atom_site_type_symbol
  _atom_site_label
  _atom_site_symmetry_multiplicity
  _atom_site_fract_x
  _atom_site_fract_y
  _atom_site_fract_z
  _atom_site_occupancy
  Ba  Ba1       1.0  0.87500  0.12500  0.25000  1.0000
  Ba  Ba2       1.0  0.12500  0.87500  0.75000  1.0000
  Mn  Mn1       1.0  0.57300  0.42700  0.25000  1.0000
  Mn  Mn2       1.0  0.17700  0.82300  0.25000  1.0000
  Mn  Mn3       1.0  0.82300  0.17700  0.75000  1.0000
  Mn  Mn4       1.0  0.42700  0.57300  0.75000  1.0000
  O   O1        1.0  0.51700  0.20800  0.07780  1.0000
  O   O2        1.0  0.06090  0.87000  0.07780  1.0000
  O   O3        1.0  0.05690  0.54600  0.19600  1.0000
  O   O4        1.0  0.63900  0.65000  0.19600  1.0000
  O   O5        1.0  0.35000  0.36100  0.30400  1.0000
  O   O6        1.0  0.45400  0.94300  0.30400  1.0000
  O   O7        1.0  0.79200  0.48300  0.42200  1.0000
  O   O8        1.0  0.13000  0.93900  0.42200  1.0000
  O   O9        1.0  0.87000  0.06090  0.57800  1.0000
  O   O10       1.0  0.20800  0.51700  0.57800  1.0000
  O   O11       1.0  0.54600  0.05690  0.69600  1.0000
  O   O12       1.0  0.65000  0.63900  0.69600  1.0000
  O   O13       1.0  0.36100  0.35000  0.80400  1.0000
  O   O14       1.0  0.94300  0.45400  0.80400  1.0000
  O   O15       1.0  0.93900  0.13000  0.92200  1.0000
  O   O16       1.0  0.48300  0.79200  0.92200  1.0000
