data_image0
_chemical_formula_structural       Cu2Ir2O12Sr6
_chemical_formula_sum              "Cu2 Ir2 O12 Sr6"
_cell_length_a       6.68743
_cell_length_b       6.71768
_cell_length_c       6.71768
_cell_angle_alpha    91.9578
_cell_angle_beta     91.1325
_cell_angle_gamma    91.1325

_space_group_name_H-M_alt    "P 1"
_space_group_IT_number       1

loop_
  _space_group_symop_operation_xyz
  'x, y, z'

loop_
  _atom_site_type_symbol
  _atom_site_label
  _atom_site_symmetry_multiplicity
  _atom_site_fract_x
  _atom_site_fract_y
  _atom_site_fract_z
  _atom_site_occupancy
  Cu  Cu1       1.0  0.75000  0.80500  0.19500  1.0000
  Cu  Cu2       1.0  0.25000  0.19500  0.80500  1.0000
  Ir  Ir1       1.0  0.50000  0.50000  0.00000  1.0000
  Ir  Ir2       1.0  0.00000  0.00000  0.50000  1.0000
  O   O1        1.0  0.21500  0.39400  0.02800  1.0000
  O   O2        1.0  0.46300  0.78600  0.10300  1.0000
  O   O3        1.0  0.03650  0.89700  0.21400  1.0000
  O   O4        1.0  0.57300  0.43200  0.28200  1.0000
  O   O5        1.0  0.71500  0.02800  0.39400  1.0000
  O   O6        1.0  0.07310  0.28200  0.43200  1.0000
  O   O7        1.0  0.92700  0.71800  0.56800  1.0000
  O   O8        1.0  0.28500  0.97200  0.60600  1.0000
  O   O9        1.0  0.42700  0.56800  0.71800  1.0000
  O   O10       1.0  0.96300  0.10300  0.78600  1.0000
  O   O11       1.0  0.53700  0.21400  0.89700  1.0000
  O   O12       1.0  0.78500  0.60600  0.97200  1.0000
  Sr  Sr1       1.0  0.87800  0.25800  0.11100  1.0000
  Sr  Sr2       1.0  0.37800  0.11100  0.25800  1.0000
  Sr  Sr3       1.0  0.25000  0.60400  0.39600  1.0000
  Sr  Sr4       1.0  0.75000  0.39600  0.60400  1.0000
  Sr  Sr5       1.0  0.62200  0.88900  0.74200  1.0000
  Sr  Sr6       1.0  0.12200  0.74200  0.88900  1.0000
