data_image0
_chemical_formula_structural       Ba2Cu2O14P4
_chemical_formula_sum              "Ba2 Cu2 O14 P4"
_cell_length_a       7.31368
_cell_length_b       7.55428
_cell_length_c       5.21125
_cell_angle_alpha    90.8644
_cell_angle_beta     95.7622
_cell_angle_gamma    103.048

_space_group_name_H-M_alt    "P 1"
_space_group_IT_number       1

loop_
  _space_group_symop_operation_xyz
  'x, y, z'

loop_
  _atom_site_type_symbol
  _atom_site_label
  _atom_site_symmetry_multiplicity
  _atom_site_fract_x
  _atom_site_fract_y
  _atom_site_fract_z
  _atom_site_occupancy
  Ba  Ba1       1.0  0.77300  0.92400  0.20100  1.0000
  Ba  Ba2       1.0  0.22700  0.07610  0.79900  1.0000
  Cu  Cu1       1.0  0.64600  0.40000  0.18500  1.0000
  Cu  Cu2       1.0  0.35400  0.60000  0.81500  1.0000
  O   O1        1.0  0.39000  0.79700  0.07990  1.0000
  O   O2        1.0  0.32700  0.41400  0.08350  1.0000
  O   O3        1.0  0.01250  0.25100  0.22600  1.0000
  O   O4        1.0  0.11500  0.59300  0.27300  1.0000
  O   O5        1.0  0.15500  0.93400  0.29200  1.0000
  O   O6        1.0  0.61100  0.20800  0.43500  1.0000
  O   O7        1.0  0.71300  0.59900  0.44100  1.0000
  O   O8        1.0  0.28700  0.40100  0.55900  1.0000
  O   O9        1.0  0.38900  0.79200  0.56500  1.0000
  O   O10       1.0  0.84500  0.06640  0.70800  1.0000
  O   O11       1.0  0.88500  0.40700  0.72700  1.0000
  O   O12       1.0  0.98700  0.74900  0.77400  1.0000
  O   O13       1.0  0.67300  0.58600  0.91700  1.0000
  O   O14       1.0  0.61000  0.20300  0.92000  1.0000
  P   P1        1.0  0.18400  0.40300  0.28700  1.0000
  P   P2        1.0  0.26600  0.78600  0.30600  1.0000
  P   P3        1.0  0.73400  0.21400  0.69400  1.0000
  P   P4        1.0  0.81600  0.59700  0.71300  1.0000
