data_image0
_chemical_formula_structural       Cd2I12In8
_chemical_formula_sum              "Cd2 I12 In8"
_cell_length_a       9.15143
_cell_length_b       9.15143
_cell_length_c       9.93027
_cell_angle_alpha    90
_cell_angle_beta     90
_cell_angle_gamma    90

_space_group_name_H-M_alt    "P 1"
_space_group_IT_number       1

loop_
  _space_group_symop_operation_xyz
  'x, y, z'

loop_
  _atom_site_type_symbol
  _atom_site_label
  _atom_site_symmetry_multiplicity
  _atom_site_fract_x
  _atom_site_fract_y
  _atom_site_fract_z
  _atom_site_occupancy
  Cd  Cd1       1.0  0.00000  0.00000  0.00000  1.0000
  Cd  Cd2       1.0  0.50000  0.50000  0.50000  1.0000
  I   I1        1.0  0.30700  0.14900  0.00000  1.0000
  I   I2        1.0  0.85100  0.30700  0.00000  1.0000
  I   I3        1.0  0.14900  0.69300  0.00000  1.0000
  I   I4        1.0  0.69300  0.85100  0.00000  1.0000
  I   I5        1.0  0.50000  0.50000  0.20900  1.0000
  I   I6        1.0  0.00000  0.00000  0.29100  1.0000
  I   I7        1.0  0.35100  0.19300  0.50000  1.0000
  I   I8        1.0  0.80700  0.35100  0.50000  1.0000
  I   I9        1.0  0.19300  0.64900  0.50000  1.0000
  I   I10       1.0  0.64900  0.80700  0.50000  1.0000
  I   I11       1.0  0.00000  0.00000  0.70900  1.0000
  I   I12       1.0  0.50000  0.50000  0.79100  1.0000
  In  In1       1.0  0.64600  0.14600  0.25000  1.0000
  In  In2       1.0  0.14600  0.35400  0.25000  1.0000
  In  In3       1.0  0.85400  0.64600  0.25000  1.0000
  In  In4       1.0  0.35400  0.85400  0.25000  1.0000
  In  In5       1.0  0.64600  0.14600  0.75000  1.0000
  In  In6       1.0  0.14600  0.35400  0.75000  1.0000
  In  In7       1.0  0.85400  0.64600  0.75000  1.0000
  In  In8       1.0  0.35400  0.85400  0.75000  1.0000
