data_image0
_chemical_formula_structural       Ba6Bi2Na2O12
_chemical_formula_sum              "Ba6 Bi2 Na2 O12"
_cell_length_a       7.24808
_cell_length_b       7.24808
_cell_length_c       7.24808
_cell_angle_alpha    91.8664
_cell_angle_beta     91.8664
_cell_angle_gamma    91.8664

_space_group_name_H-M_alt    "P 1"
_space_group_IT_number       1

loop_
  _space_group_symop_operation_xyz
  'x, y, z'

loop_
  _atom_site_type_symbol
  _atom_site_label
  _atom_site_symmetry_multiplicity
  _atom_site_fract_x
  _atom_site_fract_y
  _atom_site_fract_z
  _atom_site_occupancy
  Ba  Ba1       1.0  0.75000  0.39800  0.10200  1.0000
  Ba  Ba2       1.0  0.60200  0.89800  0.25000  1.0000
  Ba  Ba3       1.0  0.10200  0.75000  0.39800  1.0000
  Ba  Ba4       1.0  0.89800  0.25000  0.60200  1.0000
  Ba  Ba5       1.0  0.39800  0.10200  0.75000  1.0000
  Ba  Ba6       1.0  0.25000  0.60200  0.89800  1.0000
  Bi  Bi1       1.0  0.00000  0.00000  0.00000  1.0000
  Bi  Bi2       1.0  0.50000  0.50000  0.50000  1.0000
  Na  Na1       1.0  0.25000  0.25000  0.25000  1.0000
  Na  Na2       1.0  0.75000  0.75000  0.75000  1.0000
  O   O1        1.0  0.91700  0.72000  0.05170  1.0000
  O   O2        1.0  0.28000  0.94800  0.08310  1.0000
  O   O3        1.0  0.41700  0.55200  0.22000  1.0000
  O   O4        1.0  0.94800  0.08310  0.28000  1.0000
  O   O5        1.0  0.55200  0.22000  0.41700  1.0000
  O   O6        1.0  0.78000  0.58300  0.44800  1.0000
  O   O7        1.0  0.22000  0.41700  0.55200  1.0000
  O   O8        1.0  0.44800  0.78000  0.58300  1.0000
  O   O9        1.0  0.05170  0.91700  0.72000  1.0000
  O   O10       1.0  0.58300  0.44800  0.78000  1.0000
  O   O11       1.0  0.72000  0.05170  0.91700  1.0000
  O   O12       1.0  0.08310  0.28000  0.94800  1.0000
