data_image0
_chemical_formula_structural       Na10O10Ta2
_chemical_formula_sum              "Na10 O10 Ta2"
_cell_length_a       5.97376
_cell_length_b       5.97376
_cell_length_c       9.98048
_cell_angle_alpha    98.6205
_cell_angle_beta     98.6205
_cell_angle_gamma    116.837

_space_group_name_H-M_alt    "P 1"
_space_group_IT_number       1

loop_
  _space_group_symop_operation_xyz
  'x, y, z'

loop_
  _atom_site_type_symbol
  _atom_site_label
  _atom_site_symmetry_multiplicity
  _atom_site_fract_x
  _atom_site_fract_y
  _atom_site_fract_z
  _atom_site_occupancy
  Na  Na1       1.0  0.78400  0.55500  0.04950  1.0000
  Na  Na2       1.0  0.32400  0.00923  0.07910  1.0000
  Na  Na3       1.0  0.33000  0.67000  0.25000  1.0000
  Na  Na4       1.0  0.99100  0.67600  0.42100  1.0000
  Na  Na5       1.0  0.44500  0.21600  0.45100  1.0000
  Na  Na6       1.0  0.55500  0.78400  0.54900  1.0000
  Na  Na7       1.0  0.00923  0.32400  0.57900  1.0000
  Na  Na8       1.0  0.67000  0.33000  0.75000  1.0000
  Na  Na9       1.0  0.67600  0.99100  0.92100  1.0000
  Na  Na10      1.0  0.21600  0.44500  0.95100  1.0000
  O   O1        1.0  0.59400  0.80800  0.10400  1.0000
  O   O2        1.0  0.96100  0.30400  0.11700  1.0000
  O   O3        1.0  0.09430  0.90600  0.25000  1.0000
  O   O4        1.0  0.69600  0.03870  0.38300  1.0000
  O   O5        1.0  0.19200  0.40600  0.39600  1.0000
  O   O6        1.0  0.80800  0.59400  0.60400  1.0000
  O   O7        1.0  0.30400  0.96100  0.61700  1.0000
  O   O8        1.0  0.90600  0.09430  0.75000  1.0000
  O   O9        1.0  0.03870  0.69600  0.88300  1.0000
  O   O10       1.0  0.40600  0.19200  0.89600  1.0000
  Ta  Ta1       1.0  0.90700  0.09260  0.25000  1.0000
  Ta  Ta2       1.0  0.09260  0.90700  0.75000  1.0000
