data_image0
_chemical_formula_structural       Br12K8Mn2
_chemical_formula_sum              "Br12 K8 Mn2"
_cell_length_a       9.04484
_cell_length_b       9.04484
_cell_length_c       9.04484
_cell_angle_alpha    89.6981
_cell_angle_beta     90.3019
_cell_angle_gamma    90.3019

_space_group_name_H-M_alt    "P 1"
_space_group_IT_number       1

loop_
  _space_group_symop_operation_xyz
  'x, y, z'

loop_
  _atom_site_type_symbol
  _atom_site_label
  _atom_site_symmetry_multiplicity
  _atom_site_fract_x
  _atom_site_fract_y
  _atom_site_fract_z
  _atom_site_occupancy
  Br  Br1       1.0  0.06690  0.71200  0.05620  1.0000
  Br  Br2       1.0  0.71200  0.94400  0.06690  1.0000
  Br  Br3       1.0  0.56700  0.55600  0.21200  1.0000
  Br  Br4       1.0  0.05620  0.06690  0.28800  1.0000
  Br  Br5       1.0  0.44400  0.21200  0.43300  1.0000
  Br  Br6       1.0  0.21200  0.56700  0.44400  1.0000
  Br  Br7       1.0  0.78800  0.43300  0.55600  1.0000
  Br  Br8       1.0  0.55600  0.78800  0.56700  1.0000
  Br  Br9       1.0  0.94400  0.93300  0.71200  1.0000
  Br  Br10      1.0  0.43300  0.44400  0.78800  1.0000
  Br  Br11      1.0  0.28800  0.05620  0.93300  1.0000
  Br  Br12      1.0  0.93300  0.28800  0.94400  1.0000
  K   K1        1.0  0.25000  0.37000  0.13000  1.0000
  K   K2        1.0  0.37000  0.87000  0.25000  1.0000
  K   K3        1.0  0.75000  0.25000  0.25000  1.0000
  K   K4        1.0  0.87000  0.75000  0.37000  1.0000
  K   K5        1.0  0.13000  0.25000  0.63000  1.0000
  K   K6        1.0  0.63000  0.13000  0.75000  1.0000
  K   K7        1.0  0.25000  0.75000  0.75000  1.0000
  K   K8        1.0  0.75000  0.63000  0.87000  1.0000
  Mn  Mn1       1.0  0.00000  0.00000  0.00000  1.0000
  Mn  Mn2       1.0  0.50000  0.50000  0.50000  1.0000
