data_image0
_chemical_formula_structural       Cl16Pt2S4
_chemical_formula_sum              "Cl16 Pt2 S4"
_cell_length_a       6.32641
_cell_length_b       7.20596
_cell_length_c       12.4241
_cell_angle_alpha    90
_cell_angle_beta     99.724
_cell_angle_gamma    90

_space_group_name_H-M_alt    "P 1"
_space_group_IT_number       1

loop_
  _space_group_symop_operation_xyz
  'x, y, z'

loop_
  _atom_site_type_symbol
  _atom_site_label
  _atom_site_symmetry_multiplicity
  _atom_site_fract_x
  _atom_site_fract_y
  _atom_site_fract_z
  _atom_site_occupancy
  Cl  Cl1       1.0  0.78100  0.58800  0.09010  1.0000
  Cl  Cl2       1.0  0.25700  0.84000  0.12400  1.0000
  Cl  Cl3       1.0  0.83600  0.10400  0.14400  1.0000
  Cl  Cl4       1.0  0.30500  0.33800  0.16200  1.0000
  Cl  Cl5       1.0  0.69500  0.83800  0.33800  1.0000
  Cl  Cl6       1.0  0.16400  0.60400  0.35600  1.0000
  Cl  Cl7       1.0  0.74300  0.34000  0.37600  1.0000
  Cl  Cl8       1.0  0.21900  0.08790  0.41000  1.0000
  Cl  Cl9       1.0  0.78100  0.91200  0.59000  1.0000
  Cl  Cl10      1.0  0.25700  0.66000  0.62400  1.0000
  Cl  Cl11      1.0  0.83600  0.39600  0.64400  1.0000
  Cl  Cl12      1.0  0.30500  0.16200  0.66200  1.0000
  Cl  Cl13      1.0  0.69500  0.66200  0.83800  1.0000
  Cl  Cl14      1.0  0.16400  0.89600  0.85600  1.0000
  Cl  Cl15      1.0  0.74300  0.16000  0.87600  1.0000
  Cl  Cl16      1.0  0.21900  0.41200  0.91000  1.0000
  Pt  Pt1       1.0  0.00000  0.00000  0.00000  1.0000
  Pt  Pt2       1.0  0.00000  0.50000  0.50000  1.0000
  S   S1        1.0  0.29700  0.20600  0.01890  1.0000
  S   S2        1.0  0.70300  0.70600  0.48100  1.0000
  S   S3        1.0  0.29700  0.29400  0.51900  1.0000
  S   S4        1.0  0.70300  0.79400  0.98100  1.0000
