data_image0
_chemical_formula_structural       Al2As4O14Rb2
_chemical_formula_sum              "Al2 As4 O14 Rb2"
_cell_length_a       8.1737
_cell_length_b       6.34449
_cell_length_c       6.2345
_cell_angle_alpha    102.861
_cell_angle_beta     104.321
_cell_angle_gamma    96.1526

_space_group_name_H-M_alt    "P 1"
_space_group_IT_number       1

loop_
  _space_group_symop_operation_xyz
  'x, y, z'

loop_
  _atom_site_type_symbol
  _atom_site_label
  _atom_site_symmetry_multiplicity
  _atom_site_fract_x
  _atom_site_fract_y
  _atom_site_fract_z
  _atom_site_occupancy
  Al  Al1       1.0  0.22500  0.69100  0.38100  1.0000
  Al  Al2       1.0  0.77500  0.30900  0.61900  1.0000
  As  As1       1.0  0.81200  0.46800  0.16900  1.0000
  As  As2       1.0  0.33800  0.24700  0.49300  1.0000
  As  As3       1.0  0.66200  0.75300  0.50700  1.0000
  As  As4       1.0  0.18800  0.53200  0.83100  1.0000
  O   O1        1.0  0.27800  0.68800  0.10200  1.0000
  O   O2        1.0  0.64600  0.62600  0.21400  1.0000
  O   O3        1.0  0.98800  0.65500  0.21800  1.0000
  O   O4        1.0  0.21800  0.38300  0.32500  1.0000
  O   O5        1.0  0.82300  0.28600  0.33200  1.0000
  O   O6        1.0  0.22100  0.99500  0.43200  1.0000
  O   O7        1.0  0.53500  0.24900  0.45500  1.0000
  O   O8        1.0  0.46500  0.75100  0.54500  1.0000
  O   O9        1.0  0.77900  0.00515  0.56800  1.0000
  O   O10       1.0  0.17700  0.71400  0.66800  1.0000
  O   O11       1.0  0.78200  0.61700  0.67500  1.0000
  O   O12       1.0  0.01220  0.34500  0.78200  1.0000
  O   O13       1.0  0.35400  0.37400  0.78600  1.0000
  O   O14       1.0  0.72200  0.31200  0.89800  1.0000
  Rb  Rb1       1.0  0.00000  0.00000  0.00000  1.0000
  Rb  Rb2       1.0  0.50000  0.00000  0.00000  1.0000
