data_image0
_chemical_formula_structural       O14Os2Sm6
_chemical_formula_sum              "O14 Os2 Sm6"
_cell_length_a       6.51458
_cell_length_b       6.51458
_cell_length_c       7.46855
_cell_angle_alpha    90
_cell_angle_beta     90
_cell_angle_gamma    68.8892

_space_group_name_H-M_alt    "P 1"
_space_group_IT_number       1

loop_
  _space_group_symop_operation_xyz
  'x, y, z'

loop_
  _atom_site_type_symbol
  _atom_site_label
  _atom_site_symmetry_multiplicity
  _atom_site_fract_x
  _atom_site_fract_y
  _atom_site_fract_z
  _atom_site_occupancy
  O   O1        1.0  0.18400  0.56200  0.04050  1.0000
  O   O2        1.0  0.43800  0.81600  0.04050  1.0000
  O   O3        1.0  0.10600  0.15700  0.25000  1.0000
  O   O4        1.0  0.58900  0.41100  0.25000  1.0000
  O   O5        1.0  0.84300  0.89400  0.25000  1.0000
  O   O6        1.0  0.18400  0.56200  0.45900  1.0000
  O   O7        1.0  0.43800  0.81600  0.45900  1.0000
  O   O8        1.0  0.56200  0.18400  0.54100  1.0000
  O   O9        1.0  0.81600  0.43800  0.54100  1.0000
  O   O10       1.0  0.15700  0.10600  0.75000  1.0000
  O   O11       1.0  0.41100  0.58900  0.75000  1.0000
  O   O12       1.0  0.89400  0.84300  0.75000  1.0000
  O   O13       1.0  0.56200  0.18400  0.95900  1.0000
  O   O14       1.0  0.81600  0.43800  0.95900  1.0000
  Os  Os1       1.0  0.50000  0.50000  0.00000  1.0000
  Os  Os2       1.0  0.50000  0.50000  0.50000  1.0000
  Sm  Sm1       1.0  0.00000  0.00000  0.00000  1.0000
  Sm  Sm2       1.0  0.47400  0.07870  0.25000  1.0000
  Sm  Sm3       1.0  0.92100  0.52600  0.25000  1.0000
  Sm  Sm4       1.0  0.00000  0.00000  0.50000  1.0000
  Sm  Sm5       1.0  0.07870  0.47400  0.75000  1.0000
  Sm  Sm6       1.0  0.52600  0.92100  0.75000  1.0000
