data_image0
_chemical_formula_structural       Ag4Mo4O14
_chemical_formula_sum              "Ag4 Mo4 O14"
_cell_length_a       6.09083
_cell_length_b       7.44632
_cell_length_c       7.64925
_cell_angle_alpha    110.71
_cell_angle_beta     93.0135
_cell_angle_gamma    113.745

_space_group_name_H-M_alt    "P 1"
_space_group_IT_number       1

loop_
  _space_group_symop_operation_xyz
  'x, y, z'

loop_
  _atom_site_type_symbol
  _atom_site_label
  _atom_site_symmetry_multiplicity
  _atom_site_fract_x
  _atom_site_fract_y
  _atom_site_fract_z
  _atom_site_occupancy
  Ag  Ag1       1.0  0.22600  0.73000  0.04260  1.0000
  Ag  Ag2       1.0  0.79900  0.79100  0.27500  1.0000
  Ag  Ag3       1.0  0.20100  0.20900  0.72500  1.0000
  Ag  Ag4       1.0  0.77400  0.27000  0.95700  1.0000
  Mo  Mo1       1.0  0.32800  0.32800  0.24700  1.0000
  Mo  Mo2       1.0  0.75400  0.26600  0.45100  1.0000
  Mo  Mo3       1.0  0.24600  0.73400  0.54900  1.0000
  Mo  Mo4       1.0  0.67200  0.67200  0.75300  1.0000
  O   O1        1.0  0.25000  0.40100  0.06350  1.0000
  O   O2        1.0  0.16000  0.04970  0.15900  1.0000
  O   O3        1.0  0.64500  0.36400  0.23000  1.0000
  O   O4        1.0  0.62000  0.00107  0.27000  1.0000
  O   O5        1.0  0.14700  0.76500  0.34500  1.0000
  O   O6        1.0  0.07560  0.38000  0.39200  1.0000
  O   O7        1.0  0.51300  0.67300  0.47100  1.0000
  O   O8        1.0  0.48700  0.32700  0.52900  1.0000
  O   O9        1.0  0.92400  0.62000  0.60800  1.0000
  O   O10       1.0  0.85300  0.23500  0.65500  1.0000
  O   O11       1.0  0.38000  0.99900  0.73000  1.0000
  O   O12       1.0  0.35500  0.63600  0.77000  1.0000
  O   O13       1.0  0.84000  0.95000  0.84100  1.0000
  O   O14       1.0  0.75000  0.59900  0.93700  1.0000
