data_image0
_chemical_formula_structural       Lu2O8Re4
_chemical_formula_sum              "Lu2 O8 Re4"
_cell_length_a       6.26633
_cell_length_b       6.26633
_cell_length_c       6.26633
_cell_angle_alpha    119.992
_cell_angle_beta     90.0146
_cell_angle_gamma    119.992

_space_group_name_H-M_alt    "P 1"
_space_group_IT_number       1

loop_
  _space_group_symop_operation_xyz
  'x, y, z'

loop_
  _atom_site_type_symbol
  _atom_site_label
  _atom_site_symmetry_multiplicity
  _atom_site_fract_x
  _atom_site_fract_y
  _atom_site_fract_z
  _atom_site_occupancy
  Lu  Lu1       1.0  0.00000  0.00000  0.00000  1.0000
  Lu  Lu2       1.0  0.75000  0.50000  0.25000  1.0000
  O   O1        1.0  0.15100  0.76700  0.38300  1.0000
  O   O2        1.0  0.61600  0.23300  0.38300  1.0000
  O   O3        1.0  0.61700  0.76700  0.38400  1.0000
  O   O4        1.0  0.13300  0.26700  0.40100  1.0000
  O   O5        1.0  0.61700  0.23300  0.84900  1.0000
  O   O6        1.0  0.13300  0.73300  0.86600  1.0000
  O   O7        1.0  0.59900  0.73300  0.86700  1.0000
  O   O8        1.0  0.13400  0.26700  0.86700  1.0000
  Re  Re1       1.0  0.37500  0.75000  0.12500  1.0000
  Re  Re2       1.0  0.87500  0.25000  0.62500  1.0000
  Re  Re3       1.0  0.37500  0.75000  0.62500  1.0000
  Re  Re4       1.0  0.37500  0.25000  0.62500  1.0000
