data_image0
_chemical_formula_structural       O14Si4Sr2V2
_chemical_formula_sum              "O14 Si4 Sr2 V2"
_cell_length_a       6.98036
_cell_length_b       7.56708
_cell_length_c       7.56708
_cell_angle_alpha    139.243
_cell_angle_beta     90
_cell_angle_gamma    90

_space_group_name_H-M_alt    "P 1"
_space_group_IT_number       1

loop_
  _space_group_symop_operation_xyz
  'x, y, z'

loop_
  _atom_site_type_symbol
  _atom_site_label
  _atom_site_symmetry_multiplicity
  _atom_site_fract_x
  _atom_site_fract_y
  _atom_site_fract_z
  _atom_site_occupancy
  O   O1        1.0  0.93700  0.92500  0.61200  1.0000
  O   O2        1.0  0.06310  0.61200  0.92500  1.0000
  O   O3        1.0  0.56300  0.92500  0.61200  1.0000
  O   O4        1.0  0.43700  0.61200  0.92500  1.0000
  O   O5        1.0  0.25000  0.65700  0.36900  1.0000
  O   O6        1.0  0.75000  0.36900  0.65700  1.0000
  O   O7        1.0  0.25000  0.02240  0.00050  1.0000
  O   O8        1.0  0.75000  0.00050  0.02240  1.0000
  O   O9        1.0  0.00000  0.51300  0.51300  1.0000
  O   O10       1.0  0.50000  0.51300  0.51300  1.0000
  O   O11       1.0  0.93700  0.41300  0.10100  1.0000
  O   O12       1.0  0.06300  0.10100  0.41300  1.0000
  O   O13       1.0  0.56300  0.41300  0.10100  1.0000
  O   O14       1.0  0.43700  0.10100  0.41300  1.0000
  Si  Si1       1.0  0.02320  0.62400  0.40200  1.0000
  Si  Si2       1.0  0.97700  0.40200  0.62400  1.0000
  Si  Si3       1.0  0.47700  0.62400  0.40200  1.0000
  Si  Si4       1.0  0.52300  0.40200  0.62400  1.0000
  Sr  Sr1       1.0  0.25000  0.21500  0.81100  1.0000
  Sr  Sr2       1.0  0.75000  0.81100  0.21500  1.0000
  V   V1        1.0  0.25000  0.90700  0.11800  1.0000
  V   V2        1.0  0.75000  0.11800  0.90700  1.0000
