data_image0
_chemical_formula_structural       Mn2Na12S8
_chemical_formula_sum              "Mn2 Na12 S8"
_cell_length_a       8.96634
_cell_length_b       8.96625
_cell_length_c       6.9246
_cell_angle_alpha    90
_cell_angle_beta     90
_cell_angle_gamma    120

_space_group_name_H-M_alt    "P 1"
_space_group_IT_number       1

loop_
  _space_group_symop_operation_xyz
  'x, y, z'

loop_
  _atom_site_type_symbol
  _atom_site_label
  _atom_site_symmetry_multiplicity
  _atom_site_fract_x
  _atom_site_fract_y
  _atom_site_fract_z
  _atom_site_occupancy
  Mn  Mn1       1.0  0.33300  0.66700  0.25100  1.0000
  Mn  Mn2       1.0  0.66700  0.33300  0.75100  1.0000
  Na  Na1       1.0  0.29100  0.14600  0.03740  1.0000
  Na  Na2       1.0  0.85400  0.14600  0.03740  1.0000
  Na  Na3       1.0  0.85400  0.70900  0.03740  1.0000
  Na  Na4       1.0  0.53200  0.06430  0.36700  1.0000
  Na  Na5       1.0  0.53200  0.46800  0.36700  1.0000
  Na  Na6       1.0  0.93600  0.46800  0.36700  1.0000
  Na  Na7       1.0  0.14600  0.85400  0.53700  1.0000
  Na  Na8       1.0  0.70900  0.85400  0.53700  1.0000
  Na  Na9       1.0  0.14600  0.29100  0.53700  1.0000
  Na  Na10      1.0  0.46800  0.93600  0.86700  1.0000
  Na  Na11      1.0  0.06430  0.53200  0.86700  1.0000
  Na  Na12      1.0  0.46800  0.53200  0.86700  1.0000
  S   S1        1.0  0.66700  0.33300  0.09610  1.0000
  S   S2        1.0  0.18700  0.37300  0.14200  1.0000
  S   S3        1.0  0.18700  0.81300  0.14200  1.0000
  S   S4        1.0  0.62600  0.81300  0.14200  1.0000
  S   S5        1.0  0.33300  0.66700  0.59600  1.0000
  S   S6        1.0  0.81300  0.62700  0.64200  1.0000
  S   S7        1.0  0.37400  0.18700  0.64200  1.0000
  S   S8        1.0  0.81300  0.18700  0.64200  1.0000
