data_image0
_chemical_formula_structural       Nd6O14Ru2
_chemical_formula_sum              "Nd6 O14 Ru2"
_cell_length_a       6.58854
_cell_length_b       6.58854
_cell_length_c       7.51799
_cell_angle_alpha    90
_cell_angle_beta     90
_cell_angle_gamma    67.745

_space_group_name_H-M_alt    "P 1"
_space_group_IT_number       1

loop_
  _space_group_symop_operation_xyz
  'x, y, z'

loop_
  _atom_site_type_symbol
  _atom_site_label
  _atom_site_symmetry_multiplicity
  _atom_site_fract_x
  _atom_site_fract_y
  _atom_site_fract_z
  _atom_site_occupancy
  Nd  Nd1       1.0  0.00000  0.00000  0.00000  1.0000
  Nd  Nd2       1.0  0.46700  0.09270  0.25000  1.0000
  Nd  Nd3       1.0  0.90700  0.53300  0.25000  1.0000
  Nd  Nd4       1.0  0.00000  0.00000  0.50000  1.0000
  Nd  Nd5       1.0  0.09270  0.46700  0.75000  1.0000
  Nd  Nd6       1.0  0.53300  0.90700  0.75000  1.0000
  O   O1        1.0  0.18700  0.56000  0.04320  1.0000
  O   O2        1.0  0.44000  0.81300  0.04320  1.0000
  O   O3        1.0  0.10100  0.16100  0.25000  1.0000
  O   O4        1.0  0.58700  0.41300  0.25000  1.0000
  O   O5        1.0  0.83900  0.89900  0.25000  1.0000
  O   O6        1.0  0.18700  0.56000  0.45700  1.0000
  O   O7        1.0  0.44000  0.81300  0.45700  1.0000
  O   O8        1.0  0.56000  0.18700  0.54300  1.0000
  O   O9        1.0  0.81300  0.44000  0.54300  1.0000
  O   O10       1.0  0.16100  0.10100  0.75000  1.0000
  O   O11       1.0  0.41300  0.58700  0.75000  1.0000
  O   O12       1.0  0.89900  0.83900  0.75000  1.0000
  O   O13       1.0  0.56000  0.18700  0.95700  1.0000
  O   O14       1.0  0.81300  0.44000  0.95700  1.0000
  Ru  Ru1       1.0  0.50000  0.50000  0.00000  1.0000
  Ru  Ru2       1.0  0.50000  0.50000  0.50000  1.0000
