data_image0
_chemical_formula_structural       Al4Cl16Ti2
_chemical_formula_sum              "Al4 Cl16 Ti2"
_cell_length_a       13.1539
_cell_length_b       7.5842
_cell_length_c       5.98511
_cell_angle_alpha    90
_cell_angle_beta     88.2726
_cell_angle_gamma    90

_space_group_name_H-M_alt    "P 1"
_space_group_IT_number       1

loop_
  _space_group_symop_operation_xyz
  'x, y, z'

loop_
  _atom_site_type_symbol
  _atom_site_label
  _atom_site_symmetry_multiplicity
  _atom_site_fract_x
  _atom_site_fract_y
  _atom_site_fract_z
  _atom_site_occupancy
  Al  Al1       1.0  0.09080  0.25000  0.38500  1.0000
  Al  Al2       1.0  0.59100  0.25000  0.38500  1.0000
  Al  Al3       1.0  0.90900  0.75000  0.61500  1.0000
  Al  Al4       1.0  0.40900  0.75000  0.61500  1.0000
  Cl  Cl1       1.0  0.65500  0.49000  0.23800  1.0000
  Cl  Cl2       1.0  0.15500  0.00972  0.23800  1.0000
  Cl  Cl3       1.0  0.91500  0.76400  0.24900  1.0000
  Cl  Cl4       1.0  0.41500  0.73600  0.24900  1.0000
  Cl  Cl5       1.0  0.43700  0.25600  0.25500  1.0000
  Cl  Cl6       1.0  0.93700  0.24400  0.25500  1.0000
  Cl  Cl7       1.0  0.17000  0.47900  0.28700  1.0000
  Cl  Cl8       1.0  0.67000  0.02050  0.28700  1.0000
  Cl  Cl9       1.0  0.33000  0.97900  0.71300  1.0000
  Cl  Cl10      1.0  0.83000  0.52100  0.71300  1.0000
  Cl  Cl11      1.0  0.06270  0.75600  0.74500  1.0000
  Cl  Cl12      1.0  0.56300  0.74400  0.74500  1.0000
  Cl  Cl13      1.0  0.58500  0.26400  0.75100  1.0000
  Cl  Cl14      1.0  0.08500  0.23600  0.75100  1.0000
  Cl  Cl15      1.0  0.34500  0.51000  0.76200  1.0000
  Cl  Cl16      1.0  0.84500  0.99000  0.76200  1.0000
  Ti  Ti1       1.0  0.00000  0.00000  0.00000  1.0000
  Ti  Ti2       1.0  0.50000  0.50000  0.00000  1.0000
