data_image0
_chemical_formula_structural       Lu2O8Si4
_chemical_formula_sum              "Lu2 O8 Si4"
_cell_length_a       6.29498
_cell_length_b       6.29498
_cell_length_c       6.29498
_cell_angle_alpha    119.995
_cell_angle_beta     90.0078
_cell_angle_gamma    119.995

_space_group_name_H-M_alt    "P 1"
_space_group_IT_number       1

loop_
  _space_group_symop_operation_xyz
  'x, y, z'

loop_
  _atom_site_type_symbol
  _atom_site_label
  _atom_site_symmetry_multiplicity
  _atom_site_fract_x
  _atom_site_fract_y
  _atom_site_fract_z
  _atom_site_occupancy
  Lu  Lu1       1.0  0.00000  0.00000  0.00000  1.0000
  Lu  Lu2       1.0  0.75000  0.50000  0.25000  1.0000
  O   O1        1.0  0.16200  0.77400  0.38700  1.0000
  O   O2        1.0  0.61300  0.22600  0.38700  1.0000
  O   O3        1.0  0.61300  0.77400  0.38700  1.0000
  O   O4        1.0  0.13700  0.27400  0.41200  1.0000
  O   O5        1.0  0.61300  0.22600  0.83800  1.0000
  O   O6        1.0  0.13700  0.72600  0.86300  1.0000
  O   O7        1.0  0.13700  0.27400  0.86300  1.0000
  O   O8        1.0  0.58800  0.72600  0.86300  1.0000
  Si  Si1       1.0  0.37500  0.75000  0.12500  1.0000
  Si  Si2       1.0  0.37500  0.25000  0.62500  1.0000
  Si  Si3       1.0  0.87500  0.25000  0.62500  1.0000
  Si  Si4       1.0  0.37500  0.75000  0.62500  1.0000
