data_image0
_chemical_formula_structural       Na12P8W2
_chemical_formula_sum              "Na12 P8 W2"
_cell_length_a       9.10111
_cell_length_b       9.10106
_cell_length_c       7.12491
_cell_angle_alpha    90
_cell_angle_beta     90
_cell_angle_gamma    120

_space_group_name_H-M_alt    "P 1"
_space_group_IT_number       1

loop_
  _space_group_symop_operation_xyz
  'x, y, z'

loop_
  _atom_site_type_symbol
  _atom_site_label
  _atom_site_symmetry_multiplicity
  _atom_site_fract_x
  _atom_site_fract_y
  _atom_site_fract_z
  _atom_site_occupancy
  Na  Na1       1.0  0.53200  0.06440  0.10800  1.0000
  Na  Na2       1.0  0.53200  0.46800  0.10800  1.0000
  Na  Na3       1.0  0.93600  0.46800  0.10800  1.0000
  Na  Na4       1.0  0.14700  0.85300  0.28500  1.0000
  Na  Na5       1.0  0.70600  0.85300  0.28500  1.0000
  Na  Na6       1.0  0.14700  0.29400  0.28500  1.0000
  Na  Na7       1.0  0.46800  0.93600  0.60800  1.0000
  Na  Na8       1.0  0.06440  0.53200  0.60800  1.0000
  Na  Na9       1.0  0.46800  0.53200  0.60800  1.0000
  Na  Na10      1.0  0.29400  0.14700  0.78500  1.0000
  Na  Na11      1.0  0.85300  0.14700  0.78500  1.0000
  Na  Na12      1.0  0.85300  0.70600  0.78500  1.0000
  P   P1        1.0  0.33300  0.66700  0.32000  1.0000
  P   P2        1.0  0.80700  0.61300  0.39300  1.0000
  P   P3        1.0  0.38700  0.19300  0.39300  1.0000
  P   P4        1.0  0.80700  0.19300  0.39300  1.0000
  P   P5        1.0  0.66700  0.33300  0.82000  1.0000
  P   P6        1.0  0.19300  0.38700  0.89300  1.0000
  P   P7        1.0  0.19300  0.80700  0.89300  1.0000
  P   P8        1.0  0.61300  0.80700  0.89300  1.0000
  W   W1        1.0  0.66700  0.33300  0.49600  1.0000
  W   W2        1.0  0.33300  0.66700  0.99600  1.0000
