data_image0
_chemical_formula_structural       O14Os2Pr6
_chemical_formula_sum              "O14 Os2 Pr6"
_cell_length_a       6.64612
_cell_length_b       6.64612
_cell_length_c       7.56905
_cell_angle_alpha    90
_cell_angle_beta     90
_cell_angle_gamma    67.9992

_space_group_name_H-M_alt    "P 1"
_space_group_IT_number       1

loop_
  _space_group_symop_operation_xyz
  'x, y, z'

loop_
  _atom_site_type_symbol
  _atom_site_label
  _atom_site_symmetry_multiplicity
  _atom_site_fract_x
  _atom_site_fract_y
  _atom_site_fract_z
  _atom_site_occupancy
  O   O1        1.0  0.18900  0.56000  0.04230  1.0000
  O   O2        1.0  0.44000  0.81100  0.04230  1.0000
  O   O3        1.0  0.10100  0.16000  0.25000  1.0000
  O   O4        1.0  0.58600  0.41400  0.25000  1.0000
  O   O5        1.0  0.84000  0.89900  0.25000  1.0000
  O   O6        1.0  0.18900  0.56000  0.45800  1.0000
  O   O7        1.0  0.44000  0.81100  0.45800  1.0000
  O   O8        1.0  0.56000  0.18900  0.54200  1.0000
  O   O9        1.0  0.81100  0.44000  0.54200  1.0000
  O   O10       1.0  0.16000  0.10100  0.75000  1.0000
  O   O11       1.0  0.41400  0.58600  0.75000  1.0000
  O   O12       1.0  0.89900  0.84000  0.75000  1.0000
  O   O13       1.0  0.56000  0.18900  0.95800  1.0000
  O   O14       1.0  0.81100  0.44000  0.95800  1.0000
  Os  Os1       1.0  0.50000  0.50000  0.00000  1.0000
  Os  Os2       1.0  0.50000  0.50000  0.50000  1.0000
  Pr  Pr1       1.0  0.00000  0.00000  0.00000  1.0000
  Pr  Pr2       1.0  0.46800  0.08820  0.25000  1.0000
  Pr  Pr3       1.0  0.91200  0.53200  0.25000  1.0000
  Pr  Pr4       1.0  0.00000  0.00000  0.50000  1.0000
  Pr  Pr5       1.0  0.08820  0.46800  0.75000  1.0000
  Pr  Pr6       1.0  0.53200  0.91200  0.75000  1.0000
