data_image0
_chemical_formula_structural       Ge4Na8Se10
_chemical_formula_sum              "Ge4 Na8 Se10"
_cell_length_a       7.13342
_cell_length_b       8.19855
_cell_length_c       10.7762
_cell_angle_alpha    73.4701
_cell_angle_beta     70.9083
_cell_angle_gamma    81.8788

_space_group_name_H-M_alt    "P 1"
_space_group_IT_number       1

loop_
  _space_group_symop_operation_xyz
  'x, y, z'

loop_
  _atom_site_type_symbol
  _atom_site_label
  _atom_site_symmetry_multiplicity
  _atom_site_fract_x
  _atom_site_fract_y
  _atom_site_fract_z
  _atom_site_occupancy
  Ge  Ge1       1.0  0.38200  0.15700  0.16800  1.0000
  Ge  Ge2       1.0  0.42600  0.84400  0.23000  1.0000
  Ge  Ge3       1.0  0.57400  0.15600  0.77000  1.0000
  Ge  Ge4       1.0  0.61800  0.84300  0.83200  1.0000
  Na  Na1       1.0  0.00000  0.00000  0.00000  1.0000
  Na  Na2       1.0  0.72700  0.51100  0.10300  1.0000
  Na  Na3       1.0  0.09210  0.47800  0.31500  1.0000
  Na  Na4       1.0  0.79700  0.00000  0.40600  1.0000
  Na  Na5       1.0  0.50000  0.50000  0.50000  1.0000
  Na  Na6       1.0  0.20300  0.00000  0.59400  1.0000
  Na  Na7       1.0  0.90800  0.52200  0.68500  1.0000
  Na  Na8       1.0  0.27300  0.48900  0.89700  1.0000
  Se  Se1       1.0  0.35700  0.74600  0.05160  1.0000
  Se  Se2       1.0  0.05760  0.24600  0.15500  1.0000
  Se  Se3       1.0  0.74200  0.75500  0.25500  1.0000
  Se  Se4       1.0  0.46500  0.25400  0.32800  1.0000
  Se  Se5       1.0  0.16300  0.74700  0.42900  1.0000
  Se  Se6       1.0  0.83700  0.25300  0.57100  1.0000
  Se  Se7       1.0  0.53500  0.74600  0.67200  1.0000
  Se  Se8       1.0  0.25800  0.24500  0.74500  1.0000
  Se  Se9       1.0  0.94200  0.75400  0.84500  1.0000
  Se  Se10      1.0  0.64300  0.25400  0.94800  1.0000
