data_image0
_chemical_formula_structural       C12Gd6Mn4
_chemical_formula_sum              "C12 Gd6 Mn4"
_cell_length_a       8.13401
_cell_length_b       8.13404
_cell_length_c       5.01175
_cell_angle_alpha    90
_cell_angle_beta     90
_cell_angle_gamma    119.999

_space_group_name_H-M_alt    "P 1"
_space_group_IT_number       1

loop_
  _space_group_symop_operation_xyz
  'x, y, z'

loop_
  _atom_site_type_symbol
  _atom_site_label
  _atom_site_symmetry_multiplicity
  _atom_site_fract_x
  _atom_site_fract_y
  _atom_site_fract_z
  _atom_site_occupancy
  C   C1        1.0  0.03660  0.22700  0.25000  1.0000
  C   C2        1.0  0.13600  0.42100  0.25000  1.0000
  C   C3        1.0  0.57900  0.71500  0.25000  1.0000
  C   C4        1.0  0.77300  0.80900  0.25000  1.0000
  C   C5        1.0  0.28500  0.86400  0.25000  1.0000
  C   C6        1.0  0.19100  0.96300  0.25000  1.0000
  C   C7        1.0  0.80900  0.03660  0.75000  1.0000
  C   C8        1.0  0.71500  0.13600  0.75000  1.0000
  C   C9        1.0  0.22700  0.19100  0.75000  1.0000
  C   C10       1.0  0.42100  0.28500  0.75000  1.0000
  C   C11       1.0  0.86400  0.57900  0.75000  1.0000
  C   C12       1.0  0.96300  0.77300  0.75000  1.0000
  Gd  Gd1       1.0  0.68500  0.06550  0.25000  1.0000
  Gd  Gd2       1.0  0.38100  0.31500  0.25000  1.0000
  Gd  Gd3       1.0  0.93500  0.61900  0.25000  1.0000
  Gd  Gd4       1.0  0.06550  0.38100  0.75000  1.0000
  Gd  Gd5       1.0  0.61900  0.68500  0.75000  1.0000
  Gd  Gd6       1.0  0.31500  0.93500  0.75000  1.0000
  Mn  Mn1       1.0  0.00000  0.00000  0.00000  1.0000
  Mn  Mn2       1.0  0.33300  0.66700  0.25000  1.0000
  Mn  Mn3       1.0  0.00000  0.00000  0.50000  1.0000
  Mn  Mn4       1.0  0.66700  0.33300  0.75000  1.0000
