data_image0
_chemical_formula_structural       Cu2O12Pt2Sr6
_chemical_formula_sum              "Cu2 O12 Pt2 Sr6"
_cell_length_a       6.68114
_cell_length_b       6.72537
_cell_length_c       6.72537
_cell_angle_alpha    92.1889
_cell_angle_beta     91.0027
_cell_angle_gamma    91.0027

_space_group_name_H-M_alt    "P 1"
_space_group_IT_number       1

loop_
  _space_group_symop_operation_xyz
  'x, y, z'

loop_
  _atom_site_type_symbol
  _atom_site_label
  _atom_site_symmetry_multiplicity
  _atom_site_fract_x
  _atom_site_fract_y
  _atom_site_fract_z
  _atom_site_occupancy
  Cu  Cu1       1.0  0.25000  0.69900  0.30100  1.0000
  Cu  Cu2       1.0  0.75000  0.30100  0.69900  1.0000
  O   O1        1.0  0.92600  0.21400  0.06990  1.0000
  O   O2        1.0  0.28700  0.47600  0.10400  1.0000
  O   O3        1.0  0.42600  0.06990  0.21400  1.0000
  O   O4        1.0  0.96300  0.60400  0.28600  1.0000
  O   O5        1.0  0.53700  0.71400  0.39600  1.0000
  O   O6        1.0  0.78700  0.10400  0.47600  1.0000
  O   O7        1.0  0.21300  0.89600  0.52400  1.0000
  O   O8        1.0  0.46300  0.28600  0.60400  1.0000
  O   O9        1.0  0.03660  0.39600  0.71400  1.0000
  O   O10       1.0  0.57400  0.93000  0.78600  1.0000
  O   O11       1.0  0.71300  0.52400  0.89600  1.0000
  O   O12       1.0  0.07430  0.78600  0.93000  1.0000
  Pt  Pt1       1.0  0.00000  0.50000  0.00000  1.0000
  Pt  Pt2       1.0  0.50000  0.00000  0.50000  1.0000
  Sr  Sr1       1.0  0.75000  0.89800  0.10200  1.0000
  Sr  Sr2       1.0  0.62300  0.38600  0.24100  1.0000
  Sr  Sr3       1.0  0.12300  0.24100  0.38600  1.0000
  Sr  Sr4       1.0  0.87700  0.75900  0.61400  1.0000
  Sr  Sr5       1.0  0.37700  0.61400  0.75900  1.0000
  Sr  Sr6       1.0  0.25000  0.10200  0.89800  1.0000
