data_image0
_chemical_formula_structural       Bi18I4
_chemical_formula_sum              "Bi18 I4"
_cell_length_a       13.4287
_cell_length_b       15.2321
_cell_length_c       4.43354
_cell_angle_alpha    90
_cell_angle_beta     90
_cell_angle_gamma    115.03

_space_group_name_H-M_alt    "P 1"
_space_group_IT_number       1

loop_
  _space_group_symop_operation_xyz
  'x, y, z'

loop_
  _atom_site_type_symbol
  _atom_site_label
  _atom_site_symmetry_multiplicity
  _atom_site_fract_x
  _atom_site_fract_y
  _atom_site_fract_z
  _atom_site_occupancy
  Bi  Bi1       1.0  0.75900  0.01730  0.25000  1.0000
  Bi  Bi2       1.0  0.56100  0.07190  0.25000  1.0000
  Bi  Bi3       1.0  0.38500  0.18800  0.25000  1.0000
  Bi  Bi4       1.0  0.19400  0.25000  0.25000  1.0000
  Bi  Bi5       1.0  0.81800  0.42800  0.25000  1.0000
  Bi  Bi6       1.0  0.49600  0.66600  0.25000  1.0000
  Bi  Bi7       1.0  0.30200  0.72100  0.25000  1.0000
  Bi  Bi8       1.0  0.12300  0.83700  0.25000  1.0000
  Bi  Bi9       1.0  0.92700  0.89400  0.25000  1.0000
  Bi  Bi10      1.0  0.07290  0.10600  0.75000  1.0000
  Bi  Bi11      1.0  0.87700  0.16300  0.75000  1.0000
  Bi  Bi12      1.0  0.69800  0.27900  0.75000  1.0000
  Bi  Bi13      1.0  0.50400  0.33400  0.75000  1.0000
  Bi  Bi14      1.0  0.18200  0.57200  0.75000  1.0000
  Bi  Bi15      1.0  0.80600  0.75000  0.75000  1.0000
  Bi  Bi16      1.0  0.61500  0.81200  0.75000  1.0000
  Bi  Bi17      1.0  0.43900  0.92800  0.75000  1.0000
  Bi  Bi18      1.0  0.24100  0.98300  0.75000  1.0000
  I   I1        1.0  0.01540  0.37300  0.25000  1.0000
  I   I2        1.0  0.66300  0.53500  0.25000  1.0000
  I   I3        1.0  0.33700  0.46500  0.75000  1.0000
  I   I4        1.0  0.98500  0.62700  0.75000  1.0000
