data_image0
_chemical_formula_structural       Br12Eu8O2
_chemical_formula_sum              "Br12 Eu8 O2"
_cell_length_a       9.67253
_cell_length_b       9.67256
_cell_length_c       7.39745
_cell_angle_alpha    90
_cell_angle_beta     90
_cell_angle_gamma    120

_space_group_name_H-M_alt    "P 1"
_space_group_IT_number       1

loop_
  _space_group_symop_operation_xyz
  'x, y, z'

loop_
  _atom_site_type_symbol
  _atom_site_label
  _atom_site_symmetry_multiplicity
  _atom_site_fract_x
  _atom_site_fract_y
  _atom_site_fract_z
  _atom_site_occupancy
  Br  Br1       1.0  0.53400  0.06740  0.20500  1.0000
  Br  Br2       1.0  0.53400  0.46600  0.20500  1.0000
  Br  Br3       1.0  0.93300  0.46600  0.20500  1.0000
  Br  Br4       1.0  0.13800  0.86200  0.38600  1.0000
  Br  Br5       1.0  0.72300  0.86200  0.38600  1.0000
  Br  Br6       1.0  0.13800  0.27700  0.38600  1.0000
  Br  Br7       1.0  0.46600  0.93300  0.70500  1.0000
  Br  Br8       1.0  0.06740  0.53400  0.70500  1.0000
  Br  Br9       1.0  0.46600  0.53400  0.70500  1.0000
  Br  Br10      1.0  0.27700  0.13800  0.88600  1.0000
  Br  Br11      1.0  0.86200  0.13800  0.88600  1.0000
  Br  Br12      1.0  0.86200  0.72300  0.88600  1.0000
  Eu  Eu1       1.0  0.20200  0.40400  0.00157  1.0000
  Eu  Eu2       1.0  0.20200  0.79800  0.00159  1.0000
  Eu  Eu3       1.0  0.59600  0.79800  0.00159  1.0000
  Eu  Eu4       1.0  0.33300  0.66700  0.41100  1.0000
  Eu  Eu5       1.0  0.79800  0.59600  0.50200  1.0000
  Eu  Eu6       1.0  0.40400  0.20200  0.50200  1.0000
  Eu  Eu7       1.0  0.79800  0.20200  0.50200  1.0000
  Eu  Eu8       1.0  0.66700  0.33300  0.91100  1.0000
  O   O1        1.0  0.33300  0.66700  0.09970  1.0000
  O   O2        1.0  0.66700  0.33300  0.60000  1.0000
