data_image0
_chemical_formula_structural       Fe8Li39O32
_chemical_formula_sum              "Fe8 Li39 O32"
_cell_length_a       9.09599
_cell_length_b       9.08853
_cell_length_c       9.07663
_cell_angle_alpha    89.9851
_cell_angle_beta     89.9556
_cell_angle_gamma    89.9565

_space_group_name_H-M_alt    "P 1"
_space_group_IT_number       1

loop_
  _space_group_symop_operation_xyz
  'x, y, z'

loop_
  _atom_site_type_symbol
  _atom_site_label
  _atom_site_symmetry_multiplicity
  _atom_site_fract_x
  _atom_site_fract_y
  _atom_site_fract_z
  _atom_site_occupancy
  Fe  Fe1       1.0  0.38800  0.64700  0.11900  1.0000
  Fe  Fe2       1.0  0.11200  0.14800  0.12200  1.0000
  Fe  Fe3       1.0  0.61400  0.14700  0.38000  1.0000
  Fe  Fe4       1.0  0.88600  0.64600  0.38100  1.0000
  Fe  Fe5       1.0  0.11400  0.35200  0.62000  1.0000
  Fe  Fe6       1.0  0.38200  0.85700  0.62400  1.0000
  Fe  Fe7       1.0  0.61300  0.35300  0.88000  1.0000
  Fe  Fe8       1.0  0.88200  0.85500  0.88100  1.0000
  Li  Li1       1.0  0.15900  0.87100  0.09520  1.0000
  Li  Li2       1.0  0.84200  0.61800  0.10300  1.0000
  Li  Li3       1.0  0.65400  0.11800  0.10300  1.0000
  Li  Li4       1.0  0.35100  0.37100  0.10700  1.0000
  Li  Li5       1.0  0.87900  0.35400  0.12400  1.0000
  Li  Li6       1.0  0.62200  0.85300  0.12600  1.0000
  Li  Li7       1.0  0.10900  0.61100  0.14200  1.0000
  Li  Li8       1.0  0.38900  0.10700  0.14200  1.0000
  Li  Li9       1.0  0.61800  0.39000  0.16000  1.0000
  Li  Li10      1.0  0.88500  0.89000  0.16100  1.0000
  Li  Li11      1.0  0.11800  0.38900  0.33900  1.0000
  Li  Li12      1.0  0.38100  0.88900  0.34000  1.0000
  Li  Li13      1.0  0.61000  0.60800  0.35600  1.0000
  Li  Li14      1.0  0.89100  0.11000  0.35800  1.0000
  Li  Li15      1.0  0.11800  0.85000  0.37200  1.0000
  Li  Li16      1.0  0.38000  0.35400  0.37700  1.0000
  Li  Li17      1.0  0.85200  0.37200  0.39300  1.0000
  Li  Li18      1.0  0.64700  0.87500  0.39400  1.0000
  Li  Li19      1.0  0.34100  0.61700  0.39700  1.0000
  Li  Li20      1.0  0.15600  0.11800  0.39800  1.0000
  Li  Li21      1.0  0.14400  0.62500  0.60000  1.0000
  Li  Li22      1.0  0.84300  0.88300  0.60300  1.0000
  Li  Li23      1.0  0.65500  0.38400  0.60300  1.0000
  Li  Li24      1.0  0.35500  0.13200  0.60500  1.0000
  Li  Li25      1.0  0.88100  0.14700  0.62400  1.0000
  Li  Li26      1.0  0.61900  0.64800  0.62700  1.0000
  Li  Li27      1.0  0.10600  0.89000  0.64300  1.0000
  Li  Li28      1.0  0.39000  0.39300  0.64600  1.0000
  Li  Li29      1.0  0.62300  0.11200  0.65700  1.0000
  Li  Li30      1.0  0.88000  0.61200  0.66200  1.0000
  Li  Li31      1.0  0.11800  0.10900  0.84200  1.0000
  Li  Li32      1.0  0.39000  0.62300  0.84400  1.0000
  Li  Li33      1.0  0.89200  0.39100  0.85700  1.0000
  Li  Li34      1.0  0.59500  0.88600  0.86400  1.0000
  Li  Li35      1.0  0.12200  0.64900  0.87500  1.0000
  Li  Li36      1.0  0.37700  0.12900  0.87700  1.0000
  Li  Li37      1.0  0.65400  0.62500  0.89200  1.0000
  Li  Li38      1.0  0.85200  0.13000  0.89300  1.0000
  Li  Li39      1.0  0.15900  0.38200  0.89800  1.0000
  O   O1        1.0  0.25900  0.53400  0.99900  1.0000
  O   O2        1.0  0.23900  0.03840  0.00392  1.0000
  O   O3        1.0  0.50200  0.24400  0.01520  1.0000
  O   O4        1.0  0.99600  0.74900  0.01590  1.0000
  O   O5        1.0  0.25400  0.74800  0.24500  1.0000
  O   O6        1.0  0.24700  0.24700  0.24700  1.0000
  O   O7        1.0  0.46700  0.50400  0.25100  1.0000
  O   O8        1.0  0.03460  0.00347  0.25200  1.0000
  O   O9        1.0  0.96700  0.50500  0.25300  1.0000
  O   O10       1.0  0.53200  0.00338  0.25500  1.0000
  O   O11       1.0  0.74700  0.24800  0.25600  1.0000
  O   O12       1.0  0.75200  0.74800  0.26000  1.0000
  O   O13       1.0  0.00299  0.24700  0.48300  1.0000
  O   O14       1.0  0.48900  0.75600  0.49200  1.0000
  O   O15       1.0  0.74300  0.03240  0.49800  1.0000
  O   O16       1.0  0.75500  0.53300  0.49900  1.0000
  O   O17       1.0  0.24200  0.46700  0.50100  1.0000
  O   O18       1.0  0.26200  0.96400  0.50800  1.0000
  O   O19       1.0  0.99600  0.75300  0.51800  1.0000
  O   O20       1.0  0.50400  0.25400  0.51800  1.0000
  O   O21       1.0  0.25900  0.74900  0.72400  1.0000
  O   O22       1.0  0.47000  0.99200  0.73000  1.0000
  O   O23       1.0  0.24800  0.25000  0.74200  1.0000
  O   O24       1.0  0.03430  0.49800  0.74700  1.0000
  O   O25       1.0  0.96600  0.99600  0.75200  1.0000
  O   O26       1.0  0.53300  0.49700  0.75200  1.0000
  O   O27       1.0  0.75100  0.75400  0.75500  1.0000
  O   O28       1.0  0.74700  0.25400  0.75500  1.0000
  O   O29       1.0  0.00229  0.25400  0.98200  1.0000
  O   O30       1.0  0.51100  0.74100  0.98800  1.0000
  O   O31       1.0  0.74300  0.46600  0.99900  1.0000
  O   O32       1.0  0.75500  0.97100  0.99900  1.0000
