data_image0
_chemical_formula_structural       NaO13Ti8
_chemical_formula_sum              "Na1 O13 Ti8"
_cell_length_a       6.44968
_cell_length_b       6.44968
_cell_length_c       6.44968
_cell_angle_alpha    106.662
_cell_angle_beta     73.3376
_cell_angle_gamma    106.662

_space_group_name_H-M_alt    "P 1"
_space_group_IT_number       1

loop_
  _space_group_symop_operation_xyz
  'x, y, z'

loop_
  _atom_site_type_symbol
  _atom_site_label
  _atom_site_symmetry_multiplicity
  _atom_site_fract_x
  _atom_site_fract_y
  _atom_site_fract_z
  _atom_site_occupancy
  Na  Na1       1.0  0.50000  0.50000  0.50000  1.0000
  O   O1        1.0  0.00000  0.00000  0.00000  1.0000
  O   O2        1.0  0.79200  0.35600  0.05140  1.0000
  O   O3        1.0  0.57700  0.72800  0.17000  1.0000
  O   O4        1.0  0.35600  0.05140  0.20800  1.0000
  O   O5        1.0  0.17000  0.42300  0.27200  1.0000
  O   O6        1.0  0.94900  0.79200  0.35600  1.0000
  O   O7        1.0  0.72800  0.17000  0.42300  1.0000
  O   O8        1.0  0.27200  0.83000  0.57700  1.0000
  O   O9        1.0  0.05140  0.20800  0.64400  1.0000
  O   O10       1.0  0.83000  0.57700  0.72800  1.0000
  O   O11       1.0  0.64400  0.94900  0.79200  1.0000
  O   O12       1.0  0.42300  0.27200  0.83000  1.0000
  O   O13       1.0  0.20800  0.64400  0.94900  1.0000
  Ti  Ti1       1.0  0.87700  0.68100  0.04700  1.0000
  Ti  Ti2       1.0  0.68100  0.04700  0.12300  1.0000
  Ti  Ti3       1.0  0.26900  0.73100  0.26900  1.0000
  Ti  Ti4       1.0  0.04700  0.12300  0.31900  1.0000
  Ti  Ti5       1.0  0.95300  0.87700  0.68100  1.0000
  Ti  Ti6       1.0  0.73100  0.26900  0.73100  1.0000
  Ti  Ti7       1.0  0.31900  0.95300  0.87700  1.0000
  Ti  Ti8       1.0  0.12300  0.31900  0.95300  1.0000
