data_image0
_chemical_formula_structural       Bi8Cu8Mn6
_chemical_formula_sum              "Bi8 Cu8 Mn6"
_cell_length_a       8.49479
_cell_length_b       8.49479
_cell_length_c       8.49479
_cell_angle_alpha    120
_cell_angle_beta     90
_cell_angle_gamma    120

_space_group_name_H-M_alt    "P 1"
_space_group_IT_number       1

loop_
  _space_group_symop_operation_xyz
  'x, y, z'

loop_
  _atom_site_type_symbol
  _atom_site_label
  _atom_site_symmetry_multiplicity
  _atom_site_fract_x
  _atom_site_fract_y
  _atom_site_fract_z
  _atom_site_occupancy
  Bi  Bi1       1.0  0.75000  0.50000  0.25000  1.0000
  Bi  Bi2       1.0  0.28500  0.00000  0.28500  1.0000
  Bi  Bi3       1.0  0.28500  0.57000  0.28500  1.0000
  Bi  Bi4       1.0  0.71500  0.00000  0.28500  1.0000
  Bi  Bi5       1.0  0.28500  0.00000  0.71500  1.0000
  Bi  Bi6       1.0  0.71500  0.43000  0.71500  1.0000
  Bi  Bi7       1.0  0.71500  0.00000  0.71500  1.0000
  Bi  Bi8       1.0  0.25000  0.50000  0.75000  1.0000
  Cu  Cu1       1.0  0.33100  0.22100  0.11000  1.0000
  Cu  Cu2       1.0  0.89000  0.22100  0.11000  1.0000
  Cu  Cu3       1.0  0.89000  0.77900  0.11000  1.0000
  Cu  Cu4       1.0  0.11000  0.22100  0.33100  1.0000
  Cu  Cu5       1.0  0.89000  0.77900  0.66900  1.0000
  Cu  Cu6       1.0  0.11000  0.22100  0.89000  1.0000
  Cu  Cu7       1.0  0.11000  0.77900  0.89000  1.0000
  Cu  Cu8       1.0  0.66900  0.77900  0.89000  1.0000
  Mn  Mn1       1.0  0.50000  0.00000  0.00000  1.0000
  Mn  Mn2       1.0  0.00000  0.50000  0.00000  1.0000
  Mn  Mn3       1.0  0.50000  0.50000  0.00000  1.0000
  Mn  Mn4       1.0  0.00000  0.00000  0.50000  1.0000
  Mn  Mn5       1.0  0.00000  0.50000  0.50000  1.0000
  Mn  Mn6       1.0  0.50000  0.50000  0.50000  1.0000
