data_image0
_chemical_formula_structural       Mo8Na2O12
_chemical_formula_sum              "Mo8 Na2 O12"
_cell_length_a       9.54602
_cell_length_b       9.54602
_cell_length_c       2.85847
_cell_angle_alpha    90
_cell_angle_beta     90
_cell_angle_gamma    90

_space_group_name_H-M_alt    "P 1"
_space_group_IT_number       1

loop_
  _space_group_symop_operation_xyz
  'x, y, z'

loop_
  _atom_site_type_symbol
  _atom_site_label
  _atom_site_symmetry_multiplicity
  _atom_site_fract_x
  _atom_site_fract_y
  _atom_site_fract_z
  _atom_site_occupancy
  Mo  Mo1       1.0  0.35700  0.14300  0.00000  1.0000
  Mo  Mo2       1.0  0.85700  0.35700  0.00000  1.0000
  Mo  Mo3       1.0  0.14300  0.64300  0.00000  1.0000
  Mo  Mo4       1.0  0.64300  0.85700  0.00000  1.0000
  Mo  Mo5       1.0  0.60100  0.10100  0.50000  1.0000
  Mo  Mo6       1.0  0.10100  0.39900  0.50000  1.0000
  Mo  Mo7       1.0  0.89900  0.60100  0.50000  1.0000
  Mo  Mo8       1.0  0.39900  0.89900  0.50000  1.0000
  Na  Na1       1.0  0.00000  0.00000  0.00000  1.0000
  Na  Na2       1.0  0.50000  0.50000  0.00000  1.0000
  O   O1        1.0  0.70700  0.20700  0.00000  1.0000
  O   O2        1.0  0.20700  0.29300  0.00000  1.0000
  O   O3        1.0  0.79300  0.70700  0.00000  1.0000
  O   O4        1.0  0.29300  0.79300  0.00000  1.0000
  O   O5        1.0  0.23500  0.04470  0.50000  1.0000
  O   O6        1.0  0.95500  0.23500  0.50000  1.0000
  O   O7        1.0  0.45500  0.26500  0.50000  1.0000
  O   O8        1.0  0.73500  0.45500  0.50000  1.0000
  O   O9        1.0  0.26500  0.54500  0.50000  1.0000
  O   O10       1.0  0.54500  0.73500  0.50000  1.0000
  O   O11       1.0  0.04470  0.76500  0.50000  1.0000
  O   O12       1.0  0.76500  0.95500  0.50000  1.0000
