data_image0
_chemical_formula_structural       Mn2Na12Te8
_chemical_formula_sum              "Mn2 Na12 Te8"
_cell_length_a       10.0395
_cell_length_b       10.0394
_cell_length_c       7.68334
_cell_angle_alpha    90
_cell_angle_beta     90
_cell_angle_gamma    120

_space_group_name_H-M_alt    "P 1"
_space_group_IT_number       1

loop_
  _space_group_symop_operation_xyz
  'x, y, z'

loop_
  _atom_site_type_symbol
  _atom_site_label
  _atom_site_symmetry_multiplicity
  _atom_site_fract_x
  _atom_site_fract_y
  _atom_site_fract_z
  _atom_site_occupancy
  Mn  Mn1       1.0  0.33300  0.66700  0.25200  1.0000
  Mn  Mn2       1.0  0.66700  0.33300  0.75200  1.0000
  Na  Na1       1.0  0.29900  0.15000  0.04300  1.0000
  Na  Na2       1.0  0.85000  0.15000  0.04300  1.0000
  Na  Na3       1.0  0.85000  0.70100  0.04300  1.0000
  Na  Na4       1.0  0.52700  0.05440  0.37200  1.0000
  Na  Na5       1.0  0.52700  0.47300  0.37200  1.0000
  Na  Na6       1.0  0.94600  0.47300  0.37200  1.0000
  Na  Na7       1.0  0.15000  0.85000  0.54300  1.0000
  Na  Na8       1.0  0.70100  0.85000  0.54300  1.0000
  Na  Na9       1.0  0.15000  0.29900  0.54300  1.0000
  Na  Na10      1.0  0.47300  0.94600  0.87200  1.0000
  Na  Na11      1.0  0.05440  0.52700  0.87200  1.0000
  Na  Na12      1.0  0.47300  0.52700  0.87200  1.0000
  Te  Te1       1.0  0.66700  0.33300  0.10600  1.0000
  Te  Te2       1.0  0.18500  0.37000  0.14200  1.0000
  Te  Te3       1.0  0.18500  0.81500  0.14200  1.0000
  Te  Te4       1.0  0.63000  0.81500  0.14200  1.0000
  Te  Te5       1.0  0.33300  0.66700  0.60600  1.0000
  Te  Te6       1.0  0.81500  0.63000  0.64200  1.0000
  Te  Te7       1.0  0.37000  0.18500  0.64200  1.0000
  Te  Te8       1.0  0.81500  0.18500  0.64200  1.0000
