data_image0
_chemical_formula_structural       Ba6Na2Nb2O12
_chemical_formula_sum              "Ba6 Na2 Nb2 O12"
_cell_length_a       7.15278
_cell_length_b       7.15279
_cell_length_c       7.15278
_cell_angle_alpha    91.9328
_cell_angle_beta     91.9328
_cell_angle_gamma    91.9328

_space_group_name_H-M_alt    "P 1"
_space_group_IT_number       1

loop_
  _space_group_symop_operation_xyz
  'x, y, z'

loop_
  _atom_site_type_symbol
  _atom_site_label
  _atom_site_symmetry_multiplicity
  _atom_site_fract_x
  _atom_site_fract_y
  _atom_site_fract_z
  _atom_site_occupancy
  Ba  Ba1       1.0  0.39700  0.75000  0.10300  1.0000
  Ba  Ba2       1.0  0.89700  0.60300  0.25000  1.0000
  Ba  Ba3       1.0  0.75000  0.10300  0.39700  1.0000
  Ba  Ba4       1.0  0.25000  0.89700  0.60300  1.0000
  Ba  Ba5       1.0  0.10300  0.39700  0.75000  1.0000
  Ba  Ba6       1.0  0.60300  0.25000  0.89700  1.0000
  Na  Na1       1.0  0.25000  0.25000  0.25000  1.0000
  Na  Na2       1.0  0.75000  0.75000  0.75000  1.0000
  Nb  Nb1       1.0  0.00000  0.00000  0.00000  1.0000
  Nb  Nb2       1.0  0.50000  0.50000  0.50000  1.0000
  O   O1        1.0  0.73000  0.92100  0.05110  1.0000
  O   O2        1.0  0.94900  0.27000  0.07920  1.0000
  O   O3        1.0  0.55100  0.42100  0.23000  1.0000
  O   O4        1.0  0.07920  0.94900  0.27000  1.0000
  O   O5        1.0  0.23000  0.55100  0.42100  1.0000
  O   O6        1.0  0.57900  0.77000  0.44900  1.0000
  O   O7        1.0  0.42100  0.23000  0.55100  1.0000
  O   O8        1.0  0.77000  0.44900  0.57900  1.0000
  O   O9        1.0  0.92100  0.05110  0.73000  1.0000
  O   O10       1.0  0.44900  0.57900  0.77000  1.0000
  O   O11       1.0  0.05110  0.73000  0.92100  1.0000
  O   O12       1.0  0.27000  0.07920  0.94900  1.0000
