data_image0
_chemical_formula_structural       Ba8O12Pt2
_chemical_formula_sum              "Ba8 O12 Pt2"
_cell_length_a       7.2766
_cell_length_b       7.2766
_cell_length_c       7.2766
_cell_angle_alpha    89.5108
_cell_angle_beta     90.4892
_cell_angle_gamma    90.4892

_space_group_name_H-M_alt    "P 1"
_space_group_IT_number       1

loop_
  _space_group_symop_operation_xyz
  'x, y, z'

loop_
  _atom_site_type_symbol
  _atom_site_label
  _atom_site_symmetry_multiplicity
  _atom_site_fract_x
  _atom_site_fract_y
  _atom_site_fract_z
  _atom_site_occupancy
  Ba  Ba1       1.0  0.25000  0.38200  0.11800  1.0000
  Ba  Ba2       1.0  0.75000  0.25000  0.25000  1.0000
  Ba  Ba3       1.0  0.38200  0.88200  0.25000  1.0000
  Ba  Ba4       1.0  0.88200  0.75000  0.38200  1.0000
  Ba  Ba5       1.0  0.11800  0.25000  0.61800  1.0000
  Ba  Ba6       1.0  0.61800  0.11800  0.75000  1.0000
  Ba  Ba7       1.0  0.25000  0.75000  0.75000  1.0000
  Ba  Ba8       1.0  0.75000  0.61800  0.88200  1.0000
  O   O1        1.0  0.07330  0.72600  0.06190  1.0000
  O   O2        1.0  0.72600  0.93800  0.07330  1.0000
  O   O3        1.0  0.57300  0.56200  0.22600  1.0000
  O   O4        1.0  0.06190  0.07330  0.27400  1.0000
  O   O5        1.0  0.43800  0.22600  0.42700  1.0000
  O   O6        1.0  0.22600  0.57300  0.43800  1.0000
  O   O7        1.0  0.77400  0.42700  0.56200  1.0000
  O   O8        1.0  0.56200  0.77400  0.57300  1.0000
  O   O9        1.0  0.93800  0.92700  0.72600  1.0000
  O   O10       1.0  0.42700  0.43800  0.77400  1.0000
  O   O11       1.0  0.27400  0.06190  0.92700  1.0000
  O   O12       1.0  0.92700  0.27400  0.93800  1.0000
  Pt  Pt1       1.0  0.00000  0.00000  0.00000  1.0000
  Pt  Pt2       1.0  0.50000  0.50000  0.50000  1.0000
