data_image0
_chemical_formula_structural       Na12S8Zn2
_chemical_formula_sum              "Na12 S8 Zn2"
_cell_length_a       8.93858
_cell_length_b       8.93801
_cell_length_c       6.86378
_cell_angle_alpha    90
_cell_angle_beta     90
_cell_angle_gamma    120.002

_space_group_name_H-M_alt    "P 1"
_space_group_IT_number       1

loop_
  _space_group_symop_operation_xyz
  'x, y, z'

loop_
  _atom_site_type_symbol
  _atom_site_label
  _atom_site_symmetry_multiplicity
  _atom_site_fract_x
  _atom_site_fract_y
  _atom_site_fract_z
  _atom_site_occupancy
  Na  Na1       1.0  0.29500  0.14800  0.03870  1.0000
  Na  Na2       1.0  0.85200  0.14800  0.03870  1.0000
  Na  Na3       1.0  0.85200  0.70500  0.03880  1.0000
  Na  Na4       1.0  0.53000  0.06070  0.36600  1.0000
  Na  Na5       1.0  0.53000  0.47000  0.36600  1.0000
  Na  Na6       1.0  0.93900  0.47000  0.36600  1.0000
  Na  Na7       1.0  0.14800  0.85200  0.53900  1.0000
  Na  Na8       1.0  0.70500  0.85200  0.53900  1.0000
  Na  Na9       1.0  0.14800  0.29500  0.53900  1.0000
  Na  Na10      1.0  0.47000  0.93900  0.86600  1.0000
  Na  Na11      1.0  0.06070  0.53000  0.86600  1.0000
  Na  Na12      1.0  0.47000  0.53000  0.86600  1.0000
  S   S1        1.0  0.66700  0.33300  0.09510  1.0000
  S   S2        1.0  0.18700  0.81300  0.14100  1.0000
  S   S3        1.0  0.62500  0.81300  0.14100  1.0000
  S   S4        1.0  0.18700  0.37500  0.14100  1.0000
  S   S5        1.0  0.33300  0.66700  0.59500  1.0000
  S   S6        1.0  0.37500  0.18700  0.64100  1.0000
  S   S7        1.0  0.81300  0.18700  0.64100  1.0000
  S   S8        1.0  0.81300  0.62500  0.64100  1.0000
  Zn  Zn1       1.0  0.33300  0.66700  0.24800  1.0000
  Zn  Zn2       1.0  0.66700  0.33300  0.74800  1.0000
