data_image0
_chemical_formula_structural       IrN6O12Tl3
_chemical_formula_sum              "Ir1 N6 O12 Tl3"
_cell_length_a       7.54864
_cell_length_b       7.54864
_cell_length_c       7.54864
_cell_angle_alpha    120
_cell_angle_beta     90
_cell_angle_gamma    120

_space_group_name_H-M_alt    "P 1"
_space_group_IT_number       1

loop_
  _space_group_symop_operation_xyz
  'x, y, z'

loop_
  _atom_site_type_symbol
  _atom_site_label
  _atom_site_symmetry_multiplicity
  _atom_site_fract_x
  _atom_site_fract_y
  _atom_site_fract_z
  _atom_site_occupancy
  Ir  Ir1       1.0  0.00000  0.00000  0.00000  1.0000
  N   N1        1.0  0.18800  0.00000  0.18800  1.0000
  N   N2        1.0  0.18800  0.37700  0.18800  1.0000
  N   N3        1.0  0.81200  0.00000  0.18800  1.0000
  N   N4        1.0  0.18800  1.00000  0.81200  1.0000
  N   N5        1.0  0.81200  1.00000  0.81200  1.0000
  N   N6        1.0  0.81200  0.62300  0.81200  1.0000
  O   O1        1.0  0.41400  0.00000  0.00000  1.0000
  O   O2        1.0  0.58600  0.00000  0.00000  1.0000
  O   O3        1.0  0.00000  0.41400  0.00000  1.0000
  O   O4        1.0  0.41400  0.41400  0.00000  1.0000
  O   O5        1.0  0.00000  0.58600  0.00000  1.0000
  O   O6        1.0  0.58600  0.58600  0.00000  1.0000
  O   O7        1.0  0.00000  0.00000  0.41400  1.0000
  O   O8        1.0  0.00000  0.41400  0.41400  1.0000
  O   O9        1.0  0.41400  0.41400  0.41400  1.0000
  O   O10       1.0  0.00000  0.00000  0.58600  1.0000
  O   O11       1.0  0.00000  0.58600  0.58600  1.0000
  O   O12       1.0  0.58600  0.58600  0.58600  1.0000
  Tl  Tl1       1.0  0.75000  0.50000  0.25000  1.0000
  Tl  Tl2       1.0  0.50000  0.00000  0.50000  1.0000
  Tl  Tl3       1.0  0.25000  0.50000  0.75000  1.0000
