data_image0
_chemical_formula_structural       I12Rb8Yb2
_chemical_formula_sum              "I12 Rb8 Yb2"
_cell_length_a       10.1828
_cell_length_b       10.1828
_cell_length_c       10.1828
_cell_angle_alpha    90.3063
_cell_angle_beta     89.6937
_cell_angle_gamma    90.3063

_space_group_name_H-M_alt    "P 1"
_space_group_IT_number       1

loop_
  _space_group_symop_operation_xyz
  'x, y, z'

loop_
  _atom_site_type_symbol
  _atom_site_label
  _atom_site_symmetry_multiplicity
  _atom_site_fract_x
  _atom_site_fract_y
  _atom_site_fract_z
  _atom_site_occupancy
  I   I1        1.0  0.70400  0.06950  0.05750  1.0000
  I   I2        1.0  0.94300  0.70400  0.06950  1.0000
  I   I3        1.0  0.55700  0.56900  0.20400  1.0000
  I   I4        1.0  0.06950  0.05750  0.29600  1.0000
  I   I5        1.0  0.20400  0.44300  0.43100  1.0000
  I   I6        1.0  0.56900  0.20400  0.44300  1.0000
  I   I7        1.0  0.43100  0.79600  0.55700  1.0000
  I   I8        1.0  0.79600  0.55700  0.56900  1.0000
  I   I9        1.0  0.93100  0.94300  0.70400  1.0000
  I   I10       1.0  0.44300  0.43100  0.79600  1.0000
  I   I11       1.0  0.05750  0.29600  0.93100  1.0000
  I   I12       1.0  0.29600  0.93100  0.94300  1.0000
  Rb  Rb1       1.0  0.37000  0.25000  0.13000  1.0000
  Rb  Rb2       1.0  0.87000  0.37000  0.25000  1.0000
  Rb  Rb3       1.0  0.25000  0.75000  0.25000  1.0000
  Rb  Rb4       1.0  0.75000  0.87000  0.37000  1.0000
  Rb  Rb5       1.0  0.25000  0.13000  0.63000  1.0000
  Rb  Rb6       1.0  0.13000  0.63000  0.75000  1.0000
  Rb  Rb7       1.0  0.75000  0.25000  0.75000  1.0000
  Rb  Rb8       1.0  0.63000  0.75000  0.87000  1.0000
  Yb  Yb1       1.0  0.00000  0.00000  0.00000  1.0000
  Yb  Yb2       1.0  0.50000  0.50000  0.50000  1.0000
