data_image0
_chemical_formula_structural       Cd4O14Sb4
_chemical_formula_sum              "Cd4 O14 Sb4"
_cell_length_a       7.26218
_cell_length_b       7.28727
_cell_length_c       7.28727
_cell_angle_alpha    90.6522
_cell_angle_beta     119.886
_cell_angle_gamma    60.1138

_space_group_name_H-M_alt    "P 1"
_space_group_IT_number       1

loop_
  _space_group_symop_operation_xyz
  'x, y, z'

loop_
  _atom_site_type_symbol
  _atom_site_label
  _atom_site_symmetry_multiplicity
  _atom_site_fract_x
  _atom_site_fract_y
  _atom_site_fract_z
  _atom_site_occupancy
  Cd  Cd1       1.0  0.00000  0.00000  0.00000  1.0000
  Cd  Cd2       1.0  0.00000  0.50000  0.00000  1.0000
  Cd  Cd3       1.0  0.50000  0.50000  0.00000  1.0000
  Cd  Cd4       1.0  0.00000  0.50000  0.50000  1.0000
  O   O1        1.0  0.73700  0.66500  0.14000  1.0000
  O   O2        1.0  0.26300  0.64000  0.16500  1.0000
  O   O3        1.0  0.35400  0.05590  0.17900  1.0000
  O   O4        1.0  0.77000  0.05590  0.17900  1.0000
  O   O5        1.0  0.14900  0.10100  0.39900  1.0000
  O   O6        1.0  0.35400  0.32100  0.44400  1.0000
  O   O7        1.0  0.77000  0.32100  0.44400  1.0000
  O   O8        1.0  0.23000  0.67900  0.55600  1.0000
  O   O9        1.0  0.64600  0.67900  0.55600  1.0000
  O   O10       1.0  0.85100  0.89900  0.60100  1.0000
  O   O11       1.0  0.23000  0.94400  0.82100  1.0000
  O   O12       1.0  0.64600  0.94400  0.82100  1.0000
  O   O13       1.0  0.73700  0.36000  0.83500  1.0000
  O   O14       1.0  0.26300  0.33500  0.86000  1.0000
  Sb  Sb1       1.0  0.50000  0.00000  0.00000  1.0000
  Sb  Sb2       1.0  0.00000  0.00000  0.50000  1.0000
  Sb  Sb3       1.0  0.50000  0.00000  0.50000  1.0000
  Sb  Sb4       1.0  0.50000  0.50000  0.50000  1.0000
