data_image0
_chemical_formula_structural       B4Ba2Be4O12
_chemical_formula_sum              "B4 Ba2 Be4 O12"
_cell_length_a       6.21936
_cell_length_b       6.62184
_cell_length_c       7.21885
_cell_angle_alpha    101.671
_cell_angle_beta     64.4834
_cell_angle_gamma    118.009

_space_group_name_H-M_alt    "P 1"
_space_group_IT_number       1

loop_
  _space_group_symop_operation_xyz
  'x, y, z'

loop_
  _atom_site_type_symbol
  _atom_site_label
  _atom_site_symmetry_multiplicity
  _atom_site_fract_x
  _atom_site_fract_y
  _atom_site_fract_z
  _atom_site_occupancy
  B   B1        1.0  0.34100  0.68100  0.25000  1.0000
  B   B2        1.0  0.90900  0.81900  0.25000  1.0000
  B   B3        1.0  0.09070  0.18100  0.75000  1.0000
  B   B4        1.0  0.65900  0.31900  0.75000  1.0000
  Ba  Ba1       1.0  0.62500  0.25000  0.25000  1.0000
  Ba  Ba2       1.0  0.37500  0.75000  0.75000  1.0000
  Be  Be1       1.0  0.21700  0.25000  0.06550  1.0000
  Be  Be2       1.0  0.03270  0.25000  0.43500  1.0000
  Be  Be3       1.0  0.96700  0.75000  0.56500  1.0000
  Be  Be4       1.0  0.78300  0.75000  0.93500  1.0000
  O   O1        1.0  0.89900  0.70200  0.07160  1.0000
  O   O2        1.0  0.53000  0.79800  0.07160  1.0000
  O   O3        1.0  0.02720  0.05450  0.25000  1.0000
  O   O4        1.0  0.22300  0.44600  0.25000  1.0000
  O   O5        1.0  0.80300  0.70200  0.42800  1.0000
  O   O6        1.0  0.26900  0.79800  0.42800  1.0000
  O   O7        1.0  0.73100  0.20200  0.57200  1.0000
  O   O8        1.0  0.19700  0.29800  0.57200  1.0000
  O   O9        1.0  0.77700  0.55400  0.75000  1.0000
  O   O10       1.0  0.97300  0.94600  0.75000  1.0000
  O   O11       1.0  0.47000  0.20200  0.92800  1.0000
  O   O12       1.0  0.10100  0.29800  0.92800  1.0000
