data_image0
_chemical_formula_structural       C12Mn4Tb6
_chemical_formula_sum              "C12 Mn4 Tb6"
_cell_length_a       8.04424
_cell_length_b       8.04431
_cell_length_c       5.02812
_cell_angle_alpha    90
_cell_angle_beta     90
_cell_angle_gamma    120

_space_group_name_H-M_alt    "P 1"
_space_group_IT_number       1

loop_
  _space_group_symop_operation_xyz
  'x, y, z'

loop_
  _atom_site_type_symbol
  _atom_site_label
  _atom_site_symmetry_multiplicity
  _atom_site_fract_x
  _atom_site_fract_y
  _atom_site_fract_z
  _atom_site_occupancy
  C   C1        1.0  0.03800  0.22400  0.25000  1.0000
  C   C2        1.0  0.13400  0.42000  0.25000  1.0000
  C   C3        1.0  0.58000  0.71400  0.25000  1.0000
  C   C4        1.0  0.77600  0.81400  0.25000  1.0000
  C   C5        1.0  0.28600  0.86600  0.25000  1.0000
  C   C6        1.0  0.18600  0.96200  0.25000  1.0000
  C   C7        1.0  0.81400  0.03800  0.75000  1.0000
  C   C8        1.0  0.71400  0.13400  0.75000  1.0000
  C   C9        1.0  0.22400  0.18600  0.75000  1.0000
  C   C10       1.0  0.42000  0.28600  0.75000  1.0000
  C   C11       1.0  0.86600  0.58000  0.75000  1.0000
  C   C12       1.0  0.96200  0.77600  0.75000  1.0000
  Mn  Mn1       1.0  0.00000  0.00000  0.00000  1.0000
  Mn  Mn2       1.0  0.33300  0.66700  0.25000  1.0000
  Mn  Mn3       1.0  0.00000  0.00000  0.50000  1.0000
  Mn  Mn4       1.0  0.66700  0.33300  0.75000  1.0000
  Tb  Tb1       1.0  0.68700  0.06460  0.25000  1.0000
  Tb  Tb2       1.0  0.37800  0.31300  0.25000  1.0000
  Tb  Tb3       1.0  0.93500  0.62200  0.25000  1.0000
  Tb  Tb4       1.0  0.06460  0.37800  0.75000  1.0000
  Tb  Tb5       1.0  0.62200  0.68700  0.75000  1.0000
  Tb  Tb6       1.0  0.31300  0.93500  0.75000  1.0000
