data_image0
_chemical_formula_structural       O14Pr6Sb2
_chemical_formula_sum              "O14 Pr6 Sb2"
_cell_length_a       6.6667
_cell_length_b       6.6667
_cell_length_c       7.6914
_cell_angle_alpha    90
_cell_angle_beta     90
_cell_angle_gamma    68.9157

_space_group_name_H-M_alt    "P 1"
_space_group_IT_number       1

loop_
  _space_group_symop_operation_xyz
  'x, y, z'

loop_
  _atom_site_type_symbol
  _atom_site_label
  _atom_site_symmetry_multiplicity
  _atom_site_fract_x
  _atom_site_fract_y
  _atom_site_fract_z
  _atom_site_occupancy
  O   O1        1.0  0.18700  0.56100  0.03570  1.0000
  O   O2        1.0  0.43900  0.81300  0.03570  1.0000
  O   O3        1.0  0.11000  0.15300  0.25000  1.0000
  O   O4        1.0  0.58200  0.41800  0.25000  1.0000
  O   O5        1.0  0.84700  0.89000  0.25000  1.0000
  O   O6        1.0  0.18700  0.56100  0.46400  1.0000
  O   O7        1.0  0.43900  0.81300  0.46400  1.0000
  O   O8        1.0  0.56100  0.18700  0.53600  1.0000
  O   O9        1.0  0.81300  0.43900  0.53600  1.0000
  O   O10       1.0  0.15300  0.11000  0.75000  1.0000
  O   O11       1.0  0.41800  0.58200  0.75000  1.0000
  O   O12       1.0  0.89000  0.84700  0.75000  1.0000
  O   O13       1.0  0.56100  0.18700  0.96400  1.0000
  O   O14       1.0  0.81300  0.43900  0.96400  1.0000
  Pr  Pr1       1.0  0.00000  0.00000  0.00000  1.0000
  Pr  Pr2       1.0  0.47800  0.06980  0.25000  1.0000
  Pr  Pr3       1.0  0.93000  0.52200  0.25000  1.0000
  Pr  Pr4       1.0  0.00000  0.00000  0.50000  1.0000
  Pr  Pr5       1.0  0.06980  0.47800  0.75000  1.0000
  Pr  Pr6       1.0  0.52200  0.93000  0.75000  1.0000
  Sb  Sb1       1.0  0.50000  0.50000  0.00000  1.0000
  Sb  Sb2       1.0  0.50000  0.50000  0.50000  1.0000
