data_image0
_chemical_formula_structural       Ca6Cu2Ir2O12
_chemical_formula_sum              "Ca6 Cu2 Ir2 O12"
_cell_length_a       6.384
_cell_length_b       6.38859
_cell_length_c       6.38859
_cell_angle_alpha    91.4734
_cell_angle_beta     90.8292
_cell_angle_gamma    90.8292

_space_group_name_H-M_alt    "P 1"
_space_group_IT_number       1

loop_
  _space_group_symop_operation_xyz
  'x, y, z'

loop_
  _atom_site_type_symbol
  _atom_site_label
  _atom_site_symmetry_multiplicity
  _atom_site_fract_x
  _atom_site_fract_y
  _atom_site_fract_z
  _atom_site_occupancy
  Ca  Ca1       1.0  0.88500  0.25700  0.11200  1.0000
  Ca  Ca2       1.0  0.38500  0.11200  0.25700  1.0000
  Ca  Ca3       1.0  0.25000  0.60300  0.39700  1.0000
  Ca  Ca4       1.0  0.75000  0.39700  0.60300  1.0000
  Ca  Ca5       1.0  0.61500  0.88800  0.74300  1.0000
  Ca  Ca6       1.0  0.11500  0.74300  0.88800  1.0000
  Cu  Cu1       1.0  0.75000  0.80200  0.19800  1.0000
  Cu  Cu2       1.0  0.25000  0.19800  0.80200  1.0000
  Ir  Ir1       1.0  0.50000  0.50000  0.00000  1.0000
  Ir  Ir2       1.0  0.00000  0.00000  0.50000  1.0000
  O   O1        1.0  0.20700  0.41000  0.03400  1.0000
  O   O2        1.0  0.45200  0.79600  0.08610  1.0000
  O   O3        1.0  0.04790  0.91400  0.20400  1.0000
  O   O4        1.0  0.57100  0.43300  0.29100  1.0000
  O   O5        1.0  0.70700  0.03400  0.41000  1.0000
  O   O6        1.0  0.07100  0.29100  0.43300  1.0000
  O   O7        1.0  0.92900  0.70900  0.56700  1.0000
  O   O8        1.0  0.29300  0.96600  0.59000  1.0000
  O   O9        1.0  0.42900  0.56700  0.70900  1.0000
  O   O10       1.0  0.95200  0.08610  0.79600  1.0000
  O   O11       1.0  0.54800  0.20400  0.91400  1.0000
  O   O12       1.0  0.79300  0.59000  0.96600  1.0000
