data_image0
_chemical_formula_structural       N12O2P8
_chemical_formula_sum              "N12 O2 P8"
_cell_length_a       6.86284
_cell_length_b       6.05244
_cell_length_c       6.85754
_cell_angle_alpha    90
_cell_angle_beta     90
_cell_angle_gamma    90

_space_group_name_H-M_alt    "P 1"
_space_group_IT_number       1

loop_
  _space_group_symop_operation_xyz
  'x, y, z'

loop_
  _atom_site_type_symbol
  _atom_site_label
  _atom_site_symmetry_multiplicity
  _atom_site_fract_x
  _atom_site_fract_y
  _atom_site_fract_z
  _atom_site_occupancy
  N   N1        1.0  0.63500  0.10500  0.00000  1.0000
  N   N2        1.0  0.36500  0.89500  0.00000  1.0000
  N   N3        1.0  0.87500  0.32600  0.20300  1.0000
  N   N4        1.0  0.12500  0.67400  0.20300  1.0000
  N   N5        1.0  0.37500  0.17400  0.29700  1.0000
  N   N6        1.0  0.62500  0.82600  0.29700  1.0000
  N   N7        1.0  0.13500  0.39500  0.50000  1.0000
  N   N8        1.0  0.86500  0.60500  0.50000  1.0000
  N   N9        1.0  0.37500  0.17400  0.70300  1.0000
  N   N10       1.0  0.62500  0.82600  0.70300  1.0000
  N   N11       1.0  0.87500  0.32600  0.79700  1.0000
  N   N12       1.0  0.12500  0.67400  0.79700  1.0000
  O   O1        1.0  0.00000  0.00000  0.00000  1.0000
  O   O2        1.0  0.50000  0.50000  0.50000  1.0000
  P   P1        1.0  0.85800  0.20800  0.00000  1.0000
  P   P2        1.0  0.14200  0.79200  0.00000  1.0000
  P   P3        1.0  0.50000  0.00000  0.18500  1.0000
  P   P4        1.0  0.00000  0.50000  0.31500  1.0000
  P   P5        1.0  0.35800  0.29200  0.50000  1.0000
  P   P6        1.0  0.64200  0.70800  0.50000  1.0000
  P   P7        1.0  0.00000  0.50000  0.68500  1.0000
  P   P8        1.0  0.50000  0.00000  0.81500  1.0000
