data_image0
_chemical_formula_structural       Ba2Mn2O14P4
_chemical_formula_sum              "Ba2 Mn2 O14 P4"
_cell_length_a       5.46378
_cell_length_b       7.54712
_cell_length_c       7.12272
_cell_angle_alpha    102.073
_cell_angle_beta     86.1783
_cell_angle_gamma    89.3654

_space_group_name_H-M_alt    "P 1"
_space_group_IT_number       1

loop_
  _space_group_symop_operation_xyz
  'x, y, z'

loop_
  _atom_site_type_symbol
  _atom_site_label
  _atom_site_symmetry_multiplicity
  _atom_site_fract_x
  _atom_site_fract_y
  _atom_site_fract_z
  _atom_site_occupancy
  Ba  Ba1       1.0  0.22100  0.06780  0.23000  1.0000
  Ba  Ba2       1.0  0.77900  0.93200  0.77000  1.0000
  Mn  Mn1       1.0  0.20500  0.60300  0.37200  1.0000
  Mn  Mn2       1.0  0.79500  0.39700  0.62800  1.0000
  O   O1        1.0  0.22400  0.72900  0.01300  1.0000
  O   O2        1.0  0.73300  0.60100  0.12100  1.0000
  O   O3        1.0  0.71800  0.94100  0.14900  1.0000
  O   O4        1.0  0.45800  0.39000  0.26900  1.0000
  O   O5        1.0  0.90900  0.40000  0.32600  1.0000
  O   O6        1.0  0.93500  0.80900  0.39200  1.0000
  O   O7        1.0  0.47200  0.80400  0.39600  1.0000
  O   O8        1.0  0.52800  0.19600  0.60400  1.0000
  O   O9        1.0  0.06490  0.19100  0.60800  1.0000
  O   O10       1.0  0.09090  0.60000  0.67400  1.0000
  O   O11       1.0  0.54200  0.61000  0.73100  1.0000
  O   O12       1.0  0.28200  0.05950  0.85100  1.0000
  O   O13       1.0  0.26700  0.39900  0.87900  1.0000
  O   O14       1.0  0.77600  0.27100  0.98700  1.0000
  P   P1        1.0  0.71600  0.40200  0.17400  1.0000
  P   P2        1.0  0.71100  0.79700  0.26900  1.0000
  P   P3        1.0  0.28900  0.20300  0.73100  1.0000
  P   P4        1.0  0.28400  0.59800  0.82600  1.0000
