data_image0
_chemical_formula_structural       Bi4Nb6S12
_chemical_formula_sum              "Bi4 Nb6 S12"
_cell_length_a       5.77649
_cell_length_b       5.77649
_cell_length_c       17.4832
_cell_angle_alpha    90.0052
_cell_angle_beta     89.9948
_cell_angle_gamma    120.001

_space_group_name_H-M_alt    "P 1"
_space_group_IT_number       1

loop_
  _space_group_symop_operation_xyz
  'x, y, z'

loop_
  _atom_site_type_symbol
  _atom_site_label
  _atom_site_symmetry_multiplicity
  _atom_site_fract_x
  _atom_site_fract_y
  _atom_site_fract_z
  _atom_site_occupancy
  Bi  Bi1       1.0  0.33300  0.66700  0.25000  1.0000
  Bi  Bi2       1.0  0.66700  0.33300  0.25000  1.0000
  Bi  Bi3       1.0  0.33300  0.66700  0.75000  1.0000
  Bi  Bi4       1.0  0.66700  0.33300  0.75000  1.0000
  Nb  Nb1       1.0  0.67400  0.00000  0.00000  1.0000
  Nb  Nb2       1.0  0.32600  0.32600  0.00000  1.0000
  Nb  Nb3       1.0  0.00000  0.67400  0.00000  1.0000
  Nb  Nb4       1.0  0.00000  0.32600  0.50000  1.0000
  Nb  Nb5       1.0  0.67400  0.67400  0.50000  1.0000
  Nb  Nb6       1.0  0.32600  0.00000  0.50000  1.0000
  S   S1        1.0  0.66700  0.33300  0.08860  1.0000
  S   S2        1.0  0.33300  0.66700  0.08860  1.0000
  S   S3        1.0  0.00000  0.00000  0.09210  1.0000
  S   S4        1.0  0.00000  0.00000  0.40800  1.0000
  S   S5        1.0  0.66700  0.33300  0.41100  1.0000
  S   S6        1.0  0.33300  0.66700  0.41100  1.0000
  S   S7        1.0  0.66700  0.33300  0.58900  1.0000
  S   S8        1.0  0.33300  0.66700  0.58900  1.0000
  S   S9        1.0  0.00000  0.00000  0.59200  1.0000
  S   S10       1.0  0.00000  0.00000  0.90800  1.0000
  S   S11       1.0  0.66700  0.33300  0.91100  1.0000
  S   S12       1.0  0.33300  0.66700  0.91100  1.0000
