data_image0
_chemical_formula_structural       Ba6Cl4O10W2
_chemical_formula_sum              "Ba6 Cl4 O10 W2"
_cell_length_a       5.79843
_cell_length_b       7.486
_cell_length_c       11.5182
_cell_angle_alpha    90
_cell_angle_beta     90
_cell_angle_gamma    67.2144

_space_group_name_H-M_alt    "P 1"
_space_group_IT_number       1

loop_
  _space_group_symop_operation_xyz
  'x, y, z'

loop_
  _atom_site_type_symbol
  _atom_site_label
  _atom_site_symmetry_multiplicity
  _atom_site_fract_x
  _atom_site_fract_y
  _atom_site_fract_z
  _atom_site_occupancy
  Ba  Ba1       1.0  0.34900  0.30100  0.04480  1.0000
  Ba  Ba2       1.0  0.09050  0.81900  0.25000  1.0000
  Ba  Ba3       1.0  0.34900  0.30100  0.45500  1.0000
  Ba  Ba4       1.0  0.65100  0.69900  0.54500  1.0000
  Ba  Ba5       1.0  0.91000  0.18100  0.75000  1.0000
  Ba  Ba6       1.0  0.65100  0.69900  0.95500  1.0000
  Cl  Cl1       1.0  0.00000  0.00000  0.00000  1.0000
  Cl  Cl2       1.0  0.50500  0.98900  0.25000  1.0000
  Cl  Cl3       1.0  0.00000  0.00000  0.50000  1.0000
  Cl  Cl4       1.0  0.49500  0.01060  0.75000  1.0000
  O   O1        1.0  0.49400  0.56200  0.13600  1.0000
  O   O2        1.0  0.94400  0.56200  0.13600  1.0000
  O   O3        1.0  0.88300  0.23400  0.25000  1.0000
  O   O4        1.0  0.49400  0.56200  0.36400  1.0000
  O   O5        1.0  0.94400  0.56200  0.36400  1.0000
  O   O6        1.0  0.05580  0.43800  0.63600  1.0000
  O   O7        1.0  0.50600  0.43800  0.63600  1.0000
  O   O8        1.0  0.11700  0.76600  0.75000  1.0000
  O   O9        1.0  0.05580  0.43800  0.86400  1.0000
  O   O10       1.0  0.50600  0.43800  0.86400  1.0000
  W   W1        1.0  0.75500  0.49100  0.25000  1.0000
  W   W2        1.0  0.24500  0.50900  0.75000  1.0000
