data_image0
_chemical_formula_structural       K12Mn2S8
_chemical_formula_sum              "K12 Mn2 S8"
_cell_length_a       9.87276
_cell_length_b       9.8728
_cell_length_c       7.69131
_cell_angle_alpha    90
_cell_angle_beta     90
_cell_angle_gamma    120

_space_group_name_H-M_alt    "P 1"
_space_group_IT_number       1

loop_
  _space_group_symop_operation_xyz
  'x, y, z'

loop_
  _atom_site_type_symbol
  _atom_site_label
  _atom_site_symmetry_multiplicity
  _atom_site_fract_x
  _atom_site_fract_y
  _atom_site_fract_z
  _atom_site_occupancy
  K   K1        1.0  0.29200  0.14600  0.04200  1.0000
  K   K2        1.0  0.85400  0.14600  0.04200  1.0000
  K   K3        1.0  0.85400  0.70800  0.04200  1.0000
  K   K4        1.0  0.53000  0.05950  0.36600  1.0000
  K   K5        1.0  0.53000  0.47000  0.36600  1.0000
  K   K6        1.0  0.94100  0.47000  0.36600  1.0000
  K   K7        1.0  0.14600  0.85400  0.54200  1.0000
  K   K8        1.0  0.70800  0.85400  0.54200  1.0000
  K   K9        1.0  0.14600  0.29200  0.54200  1.0000
  K   K10       1.0  0.47000  0.94100  0.86600  1.0000
  K   K11       1.0  0.05950  0.53000  0.86600  1.0000
  K   K12       1.0  0.47000  0.53000  0.86600  1.0000
  Mn  Mn1       1.0  0.33300  0.66700  0.25300  1.0000
  Mn  Mn2       1.0  0.66700  0.33300  0.75300  1.0000
  S   S1        1.0  0.66700  0.33300  0.07030  1.0000
  S   S2        1.0  0.19600  0.39300  0.15300  1.0000
  S   S3        1.0  0.19600  0.80400  0.15300  1.0000
  S   S4        1.0  0.60700  0.80400  0.15300  1.0000
  S   S5        1.0  0.33300  0.66700  0.57000  1.0000
  S   S6        1.0  0.39300  0.19600  0.65300  1.0000
  S   S7        1.0  0.80400  0.19600  0.65300  1.0000
  S   S8        1.0  0.80400  0.60700  0.65300  1.0000
