data_image0
_chemical_formula_structural       C5Fe11Mo6
_chemical_formula_sum              "C5 Fe11 Mo6"
_cell_length_a       6.53563
_cell_length_b       6.6712
_cell_length_c       6.6712
_cell_angle_alpha    110.276
_cell_angle_beta     114.66
_cell_angle_gamma    65.3404

_space_group_name_H-M_alt    "P 1"
_space_group_IT_number       1

loop_
  _space_group_symop_operation_xyz
  'x, y, z'

loop_
  _atom_site_type_symbol
  _atom_site_label
  _atom_site_symmetry_multiplicity
  _atom_site_fract_x
  _atom_site_fract_y
  _atom_site_fract_z
  _atom_site_occupancy
  C   C1        1.0  0.00000  0.00000  0.00000  1.0000
  C   C2        1.0  0.30800  0.44000  0.04240  1.0000
  C   C3        1.0  0.69200  0.04240  0.44000  1.0000
  C   C4        1.0  0.30800  0.95800  0.56000  1.0000
  C   C5        1.0  0.69200  0.56000  0.95800  1.0000
  Fe  Fe1       1.0  0.33700  0.86400  0.13600  1.0000
  Fe  Fe2       1.0  0.50000  0.16500  0.16500  1.0000
  Fe  Fe3       1.0  0.62600  0.47800  0.19300  1.0000
  Fe  Fe4       1.0  0.79500  0.76200  0.23800  1.0000
  Fe  Fe5       1.0  0.37400  0.19300  0.47800  1.0000
  Fe  Fe6       1.0  0.00000  0.50000  0.50000  1.0000
  Fe  Fe7       1.0  0.62600  0.80700  0.52200  1.0000
  Fe  Fe8       1.0  0.20500  0.23800  0.76200  1.0000
  Fe  Fe9       1.0  0.37400  0.52200  0.80700  1.0000
  Fe  Fe10      1.0  0.50000  0.83500  0.83500  1.0000
  Fe  Fe11      1.0  0.66300  0.13600  0.86400  1.0000
  Mo  Mo1       1.0  0.03990  0.31400  0.08330  1.0000
  Mo  Mo2       1.0  0.96000  0.08330  0.31400  1.0000
  Mo  Mo3       1.0  0.28500  0.61900  0.38100  1.0000
  Mo  Mo4       1.0  0.71500  0.38100  0.61900  1.0000
  Mo  Mo5       1.0  0.03990  0.91700  0.68600  1.0000
  Mo  Mo6       1.0  0.96000  0.68600  0.91700  1.0000
