data_image0
_chemical_formula_structural       Bi4Cu2O12Sr4
_chemical_formula_sum              "Bi4 Cu2 O12 Sr4"
_cell_length_a       12.6392
_cell_length_b       5.13849
_cell_length_c       5.39446
_cell_angle_alpha    90
_cell_angle_beta     102.322
_cell_angle_gamma    90

_space_group_name_H-M_alt    "P 1"
_space_group_IT_number       1

loop_
  _space_group_symop_operation_xyz
  'x, y, z'

loop_
  _atom_site_type_symbol
  _atom_site_label
  _atom_site_symmetry_multiplicity
  _atom_site_fract_x
  _atom_site_fract_y
  _atom_site_fract_z
  _atom_site_occupancy
  Bi  Bi1       1.0  0.87700  0.00000  0.20500  1.0000
  Bi  Bi2       1.0  0.12300  0.50000  0.32800  1.0000
  Bi  Bi3       1.0  0.87700  0.50000  0.67200  1.0000
  Bi  Bi4       1.0  0.12300  0.00000  0.79500  1.0000
  Cu  Cu1       1.0  0.50000  0.00000  0.00000  1.0000
  Cu  Cu2       1.0  0.50000  0.50000  0.50000  1.0000
  O   O1        1.0  0.71200  0.00000  0.08740  1.0000
  O   O2        1.0  0.50200  0.25000  0.25100  1.0000
  O   O3        1.0  0.50200  0.75000  0.25100  1.0000
  O   O4        1.0  0.87300  0.50000  0.27000  1.0000
  O   O5        1.0  0.28800  0.50000  0.37600  1.0000
  O   O6        1.0  0.12700  0.00000  0.39700  1.0000
  O   O7        1.0  0.87300  0.00000  0.60300  1.0000
  O   O8        1.0  0.71200  0.50000  0.62400  1.0000
  O   O9        1.0  0.12700  0.50000  0.73000  1.0000
  O   O10       1.0  0.49800  0.25000  0.74900  1.0000
  O   O11       1.0  0.49800  0.75000  0.74900  1.0000
  O   O12       1.0  0.28800  0.00000  0.91300  1.0000
  Sr  Sr1       1.0  0.64400  0.50000  0.07030  1.0000
  Sr  Sr2       1.0  0.35600  0.00000  0.42600  1.0000
  Sr  Sr3       1.0  0.64400  0.00000  0.57400  1.0000
  Sr  Sr4       1.0  0.35600  0.50000  0.93000  1.0000
