data_image0
_chemical_formula_structural       Na4O14W4
_chemical_formula_sum              "Na4 O14 W4"
_cell_length_a       3.81614
_cell_length_b       5.4211
_cell_length_c       13.3082
_cell_angle_alpha    90
_cell_angle_beta     81.7568
_cell_angle_gamma    90

_space_group_name_H-M_alt    "P 1"
_space_group_IT_number       1

loop_
  _space_group_symop_operation_xyz
  'x, y, z'

loop_
  _atom_site_type_symbol
  _atom_site_label
  _atom_site_symmetry_multiplicity
  _atom_site_fract_x
  _atom_site_fract_y
  _atom_site_fract_z
  _atom_site_occupancy
  Na  Na1       1.0  0.94800  0.60900  0.10300  1.0000
  Na  Na2       1.0  0.78700  0.05340  0.42600  1.0000
  Na  Na3       1.0  0.21300  0.55300  0.57400  1.0000
  Na  Na4       1.0  0.05160  0.10900  0.89700  1.0000
  O   O1        1.0  0.49000  0.83000  0.02040  1.0000
  O   O2        1.0  0.95200  0.12300  0.09670  1.0000
  O   O3        1.0  0.41000  0.41300  0.18000  1.0000
  O   O4        1.0  0.38900  0.91500  0.22300  1.0000
  O   O5        1.0  0.85100  0.60800  0.29700  1.0000
  O   O6        1.0  0.30500  0.30300  0.39000  1.0000
  O   O7        1.0  0.28600  0.79400  0.42800  1.0000
  O   O8        1.0  0.71400  0.29400  0.57200  1.0000
  O   O9        1.0  0.69500  0.80300  0.61000  1.0000
  O   O10       1.0  0.14900  0.10800  0.70300  1.0000
  O   O11       1.0  0.61100  0.41500  0.77700  1.0000
  O   O12       1.0  0.59000  0.91300  0.82000  1.0000
  O   O13       1.0  0.04830  0.62300  0.90300  1.0000
  O   O14       1.0  0.51000  0.33000  0.98000  1.0000
  W   W1        1.0  0.44400  0.10600  0.11100  1.0000
  W   W2        1.0  0.33900  0.58500  0.32300  1.0000
  W   W3        1.0  0.66100  0.08500  0.67700  1.0000
  W   W4        1.0  0.55600  0.60600  0.88900  1.0000
