data_image0
_chemical_formula_structural       K4Mn2P4S12
_chemical_formula_sum              "K4 Mn2 P4 S12"
_cell_length_a       6.16829
_cell_length_b       12.1797
_cell_length_c       7.47343
_cell_angle_alpha    90
_cell_angle_beta     101.351
_cell_angle_gamma    90

_space_group_name_H-M_alt    "P 1"
_space_group_IT_number       1

loop_
  _space_group_symop_operation_xyz
  'x, y, z'

loop_
  _atom_site_type_symbol
  _atom_site_label
  _atom_site_symmetry_multiplicity
  _atom_site_fract_x
  _atom_site_fract_y
  _atom_site_fract_z
  _atom_site_occupancy
  K   K1        1.0  0.72000  0.18200  0.02940  1.0000
  K   K2        1.0  0.78000  0.68200  0.47100  1.0000
  K   K3        1.0  0.22000  0.31800  0.52900  1.0000
  K   K4        1.0  0.28000  0.81800  0.97100  1.0000
  Mn  Mn1       1.0  0.00000  0.50000  0.00000  1.0000
  Mn  Mn2       1.0  0.50000  0.00000  0.50000  1.0000
  P   P1        1.0  0.48100  0.46300  0.13300  1.0000
  P   P2        1.0  0.01870  0.96300  0.36700  1.0000
  P   P3        1.0  0.98100  0.03730  0.63300  1.0000
  P   P4        1.0  0.51900  0.53700  0.86700  1.0000
  S   S1        1.0  0.28100  0.33000  0.06590  1.0000
  S   S2        1.0  0.18200  0.07680  0.24600  1.0000
  S   S3        1.0  0.70000  0.93300  0.24600  1.0000
  S   S4        1.0  0.80000  0.43300  0.25400  1.0000
  S   S5        1.0  0.31800  0.57700  0.25400  1.0000
  S   S6        1.0  0.21900  0.83000  0.43400  1.0000
  S   S7        1.0  0.78100  0.17000  0.56600  1.0000
  S   S8        1.0  0.68200  0.42300  0.74600  1.0000
  S   S9        1.0  0.20000  0.56700  0.74600  1.0000
  S   S10       1.0  0.30000  0.06730  0.75400  1.0000
  S   S11       1.0  0.81800  0.92300  0.75400  1.0000
  S   S12       1.0  0.71900  0.67000  0.93400  1.0000
