data_image0
_chemical_formula_structural       B4Hg6O12
_chemical_formula_sum              "B4 Hg6 O12"
_cell_length_a       6.71498
_cell_length_b       6.71498
_cell_length_c       6.71498
_cell_angle_alpha    96.1754
_cell_angle_beta     83.8246
_cell_angle_gamma    96.1754

_space_group_name_H-M_alt    "P 1"
_space_group_IT_number       1

loop_
  _space_group_symop_operation_xyz
  'x, y, z'

loop_
  _atom_site_type_symbol
  _atom_site_label
  _atom_site_symmetry_multiplicity
  _atom_site_fract_x
  _atom_site_fract_y
  _atom_site_fract_z
  _atom_site_occupancy
  B   B1        1.0  0.11300  0.88700  0.11300  1.0000
  B   B2        1.0  0.38700  0.61300  0.38700  1.0000
  B   B3        1.0  0.61300  0.38700  0.61300  1.0000
  B   B4        1.0  0.88700  0.11300  0.88700  1.0000
  Hg  Hg1       1.0  0.39900  0.25000  0.10100  1.0000
  Hg  Hg2       1.0  0.89900  0.39900  0.25000  1.0000
  Hg  Hg3       1.0  0.75000  0.89900  0.39900  1.0000
  Hg  Hg4       1.0  0.25000  0.10100  0.60100  1.0000
  Hg  Hg5       1.0  0.10100  0.60100  0.75000  1.0000
  Hg  Hg6       1.0  0.60100  0.75000  0.89900  1.0000
  O   O1        1.0  0.29000  0.95800  0.00796  1.0000
  O   O2        1.0  0.00796  0.71000  0.04190  1.0000
  O   O3        1.0  0.49200  0.54200  0.21000  1.0000
  O   O4        1.0  0.04190  0.99200  0.29000  1.0000
  O   O5        1.0  0.21000  0.50800  0.45800  1.0000
  O   O6        1.0  0.45800  0.79000  0.49200  1.0000
  O   O7        1.0  0.54200  0.21000  0.50800  1.0000
  O   O8        1.0  0.79000  0.49200  0.54200  1.0000
  O   O9        1.0  0.95800  0.00796  0.71000  1.0000
  O   O10       1.0  0.50800  0.45800  0.79000  1.0000
  O   O11       1.0  0.99200  0.29000  0.95800  1.0000
  O   O12       1.0  0.71000  0.04190  0.99200  1.0000
