data_image0
_chemical_formula_structural       Nb4Si10V8
_chemical_formula_sum              "Nb4 Si10 V8"
_cell_length_a       5.12419
_cell_length_b       7.54618
_cell_length_c       9.37216
_cell_angle_alpha    113.74
_cell_angle_beta     105.865
_cell_angle_gamma    90

_space_group_name_H-M_alt    "P 1"
_space_group_IT_number       1

loop_
  _space_group_symop_operation_xyz
  'x, y, z'

loop_
  _atom_site_type_symbol
  _atom_site_label
  _atom_site_symmetry_multiplicity
  _atom_site_fract_x
  _atom_site_fract_y
  _atom_site_fract_z
  _atom_site_occupancy
  Nb  Nb1       1.0  0.43900  0.68900  0.37800  1.0000
  Nb  Nb2       1.0  0.93900  0.68900  0.37800  1.0000
  Nb  Nb3       1.0  0.06100  0.31100  0.62200  1.0000
  Nb  Nb4       1.0  0.56100  0.31100  0.62200  1.0000
  Si  Si1       1.0  0.25000  0.00000  0.00000  1.0000
  Si  Si2       1.0  0.75000  0.00000  0.00000  1.0000
  Si  Si3       1.0  0.56000  0.46600  0.12000  1.0000
  Si  Si4       1.0  0.06010  0.65400  0.12000  1.0000
  Si  Si5       1.0  0.70800  0.01360  0.41500  1.0000
  Si  Si6       1.0  0.20800  0.40200  0.41500  1.0000
  Si  Si7       1.0  0.79200  0.59800  0.58500  1.0000
  Si  Si8       1.0  0.29200  0.98600  0.58500  1.0000
  Si  Si9       1.0  0.94000  0.34600  0.88000  1.0000
  Si  Si10      1.0  0.44000  0.53400  0.88000  1.0000
  V   V1        1.0  0.06390  0.31500  0.12800  1.0000
  V   V2        1.0  0.56400  0.81300  0.12800  1.0000
  V   V3        1.0  0.14100  0.02590  0.28200  1.0000
  V   V4        1.0  0.64100  0.25600  0.28200  1.0000
  V   V5        1.0  0.35900  0.74400  0.71800  1.0000
  V   V6        1.0  0.85900  0.97400  0.71800  1.0000
  V   V7        1.0  0.43600  0.18700  0.87200  1.0000
  V   V8        1.0  0.93600  0.68500  0.87200  1.0000
