data_image0
_chemical_formula_structural       Ir2Ni2O12Sr6
_chemical_formula_sum              "Ir2 Ni2 O12 Sr6"
_cell_length_a       6.66171
_cell_length_b       6.66171
_cell_length_c       6.66171
_cell_angle_alpha    91.7721
_cell_angle_beta     91.7721
_cell_angle_gamma    91.7721

_space_group_name_H-M_alt    "P 1"
_space_group_IT_number       1

loop_
  _space_group_symop_operation_xyz
  'x, y, z'

loop_
  _atom_site_type_symbol
  _atom_site_label
  _atom_site_symmetry_multiplicity
  _atom_site_fract_x
  _atom_site_fract_y
  _atom_site_fract_z
  _atom_site_occupancy
  Ir  Ir1       1.0  0.00000  0.00000  0.00000  1.0000
  Ir  Ir2       1.0  0.50000  0.50000  0.50000  1.0000
  Ni  Ni1       1.0  0.25000  0.25000  0.25000  1.0000
  Ni  Ni2       1.0  0.75000  0.75000  0.75000  1.0000
  O   O1        1.0  0.90700  0.71000  0.03450  1.0000
  O   O2        1.0  0.29000  0.96500  0.09250  1.0000
  O   O3        1.0  0.40700  0.53500  0.21000  1.0000
  O   O4        1.0  0.96500  0.09250  0.29000  1.0000
  O   O5        1.0  0.53500  0.21000  0.40700  1.0000
  O   O6        1.0  0.79000  0.59300  0.46500  1.0000
  O   O7        1.0  0.21000  0.40700  0.53500  1.0000
  O   O8        1.0  0.46500  0.79000  0.59300  1.0000
  O   O9        1.0  0.03450  0.90700  0.71000  1.0000
  O   O10       1.0  0.59300  0.46500  0.79000  1.0000
  O   O11       1.0  0.71000  0.03450  0.90700  1.0000
  O   O12       1.0  0.09250  0.29000  0.96500  1.0000
  Sr  Sr1       1.0  0.75000  0.38500  0.11500  1.0000
  Sr  Sr2       1.0  0.61500  0.88500  0.25000  1.0000
  Sr  Sr3       1.0  0.11500  0.75000  0.38500  1.0000
  Sr  Sr4       1.0  0.88500  0.25000  0.61500  1.0000
  Sr  Sr5       1.0  0.38500  0.11500  0.75000  1.0000
  Sr  Sr6       1.0  0.25000  0.61500  0.88500  1.0000
