data_image0
_chemical_formula_structural       Ba2C4F2O12Sm2
_chemical_formula_sum              "Ba2 C4 F2 O12 Sm2"
_cell_length_a       4.9948
_cell_length_b       4.9948
_cell_length_c       12.7741
_cell_angle_alpha    78.7258
_cell_angle_beta     101.274
_cell_angle_gamma    120

_space_group_name_H-M_alt    "P 1"
_space_group_IT_number       1

loop_
  _space_group_symop_operation_xyz
  'x, y, z'

loop_
  _atom_site_type_symbol
  _atom_site_label
  _atom_site_symmetry_multiplicity
  _atom_site_fract_x
  _atom_site_fract_y
  _atom_site_fract_z
  _atom_site_occupancy
  Ba  Ba1       1.0  0.00000  0.00000  0.00000  1.0000
  Ba  Ba2       1.0  0.50000  0.50000  0.50000  1.0000
  C   C1        1.0  0.39300  0.60700  0.18000  1.0000
  C   C2        1.0  0.12600  0.87400  0.37800  1.0000
  C   C3        1.0  0.87400  0.12600  0.62200  1.0000
  C   C4        1.0  0.60700  0.39300  0.82000  1.0000
  F   F1        1.0  0.68400  0.31600  0.05200  1.0000
  F   F2        1.0  0.31600  0.68400  0.94800  1.0000
  O   O1        1.0  0.24500  0.30800  0.18300  1.0000
  O   O2        1.0  0.24500  0.75500  0.18300  1.0000
  O   O3        1.0  0.69200  0.75500  0.18300  1.0000
  O   O4        1.0  0.42500  0.02240  0.38100  1.0000
  O   O5        1.0  0.97800  0.02240  0.38100  1.0000
  O   O6        1.0  0.97800  0.57500  0.38100  1.0000
  O   O7        1.0  0.02240  0.42500  0.61900  1.0000
  O   O8        1.0  0.02240  0.97800  0.61900  1.0000
  O   O9        1.0  0.57500  0.97800  0.61900  1.0000
  O   O10       1.0  0.30800  0.24500  0.81700  1.0000
  O   O11       1.0  0.75500  0.24500  0.81700  1.0000
  O   O12       1.0  0.75500  0.69200  0.81700  1.0000
  Sm  Sm1       1.0  0.74500  0.25500  0.23500  1.0000
  Sm  Sm2       1.0  0.25500  0.74500  0.76500  1.0000
