data_image0
_chemical_formula_structural       Bi7Cs3Se12
_chemical_formula_sum              "Bi7 Cs3 Se12"
_cell_length_a       4.24401
_cell_length_b       13.3533
_cell_length_c       13.985
_cell_angle_alpha    107.193
_cell_angle_beta     98.7275
_cell_angle_gamma    90

_space_group_name_H-M_alt    "P 1"
_space_group_IT_number       1

loop_
  _space_group_symop_operation_xyz
  'x, y, z'

loop_
  _atom_site_type_symbol
  _atom_site_label
  _atom_site_symmetry_multiplicity
  _atom_site_fract_x
  _atom_site_fract_y
  _atom_site_fract_z
  _atom_site_occupancy
  Bi  Bi1       1.0  0.08720  0.25900  0.17400  1.0000
  Bi  Bi2       1.0  0.68100  0.52200  0.36100  1.0000
  Bi  Bi3       1.0  0.72200  0.21300  0.44300  1.0000
  Bi  Bi4       1.0  0.27700  0.78400  0.55400  1.0000
  Bi  Bi5       1.0  0.32000  0.47800  0.64000  1.0000
  Bi  Bi6       1.0  0.91400  0.74100  0.82800  1.0000
  Bi  Bi7       1.0  0.50000  0.00000  0.00000  1.0000
  Cs  Cs1       1.0  0.63300  0.86500  0.26700  1.0000
  Cs  Cs2       1.0  0.36200  0.12000  0.72400  1.0000
  Cs  Cs3       1.0  0.97500  0.43100  0.94900  1.0000
  Se  Se1       1.0  0.01890  0.86000  0.03790  1.0000
  Se  Se2       1.0  0.57600  0.40900  0.15200  1.0000
  Se  Se3       1.0  0.60800  0.12300  0.21500  1.0000
  Se  Se4       1.0  0.17100  0.66700  0.34100  1.0000
  Se  Se5       1.0  0.20100  0.37800  0.40300  1.0000
  Se  Se6       1.0  0.22800  0.08010  0.45700  1.0000
  Se  Se7       1.0  0.77000  0.91600  0.53900  1.0000
  Se  Se8       1.0  0.79900  0.62000  0.59800  1.0000
  Se  Se9       1.0  0.83100  0.33200  0.66200  1.0000
  Se  Se10      1.0  0.39300  0.87500  0.78700  1.0000
  Se  Se11      1.0  0.42500  0.59100  0.85000  1.0000
  Se  Se12      1.0  0.98100  0.14400  0.96200  1.0000
