data_image0
_chemical_formula_structural       B6Li2S12Sr2
_chemical_formula_sum              "B6 Li2 S12 Sr2"
_cell_length_a       8.05452
_cell_length_b       8.71906
_cell_length_c       8.71906
_cell_angle_alpha    60.3996
_cell_angle_beta     113.382
_cell_angle_gamma    113.382

_space_group_name_H-M_alt    "P 1"
_space_group_IT_number       1

loop_
  _space_group_symop_operation_xyz
  'x, y, z'

loop_
  _atom_site_type_symbol
  _atom_site_label
  _atom_site_symmetry_multiplicity
  _atom_site_fract_x
  _atom_site_fract_y
  _atom_site_fract_z
  _atom_site_occupancy
  B   B1        1.0  0.04470  0.24000  0.16200  1.0000
  B   B2        1.0  0.54500  0.16200  0.24000  1.0000
  B   B3        1.0  0.52700  0.75500  0.39600  1.0000
  B   B4        1.0  0.02750  0.39600  0.75500  1.0000
  B   B5        1.0  0.93900  0.98700  0.97000  1.0000
  B   B6        1.0  0.43900  0.97000  0.98700  1.0000
  Li  Li1       1.0  0.93400  0.50800  0.29400  1.0000
  Li  Li2       1.0  0.43400  0.29400  0.50800  1.0000
  S   S1        1.0  0.48800  0.18400  0.00695  1.0000
  S   S2        1.0  0.43500  0.74600  0.17300  1.0000
  S   S3        1.0  0.98800  0.00695  0.18400  1.0000
  S   S4        1.0  0.58100  0.36400  0.26500  1.0000
  S   S5        1.0  0.08100  0.26500  0.36400  1.0000
  S   S6        1.0  0.57300  0.95200  0.44400  1.0000
  S   S7        1.0  0.09040  0.59500  0.56300  1.0000
  S   S8        1.0  0.59000  0.56300  0.59500  1.0000
  S   S9        1.0  0.93500  0.17300  0.74600  1.0000
  S   S10       1.0  0.39500  0.97800  0.76500  1.0000
  S   S11       1.0  0.07260  0.44400  0.95200  1.0000
  S   S12       1.0  0.89500  0.76500  0.97800  1.0000
  Sr  Sr1       1.0  0.97400  0.86000  0.62100  1.0000
  Sr  Sr2       1.0  0.47400  0.62100  0.86000  1.0000
