data_image0
_chemical_formula_structural       B4Cd6O12
_chemical_formula_sum              "B4 Cd6 O12"
_cell_length_a       5.97913
_cell_length_b       4.79905
_cell_length_c       9.03992
_cell_angle_alpha    90
_cell_angle_beta     90
_cell_angle_gamma    90

_space_group_name_H-M_alt    "P 1"
_space_group_IT_number       1

loop_
  _space_group_symop_operation_xyz
  'x, y, z'

loop_
  _atom_site_type_symbol
  _atom_site_label
  _atom_site_symmetry_multiplicity
  _atom_site_fract_x
  _atom_site_fract_y
  _atom_site_fract_z
  _atom_site_occupancy
  B   B1        1.0  0.73900  0.46400  0.00000  1.0000
  B   B2        1.0  0.26100  0.53600  0.00000  1.0000
  B   B3        1.0  0.23900  0.03560  0.50000  1.0000
  B   B4        1.0  0.76100  0.96400  0.50000  1.0000
  Cd  Cd1       1.0  0.00000  0.00000  0.00000  1.0000
  Cd  Cd2       1.0  0.50000  0.00000  0.19000  1.0000
  Cd  Cd3       1.0  0.00000  0.50000  0.31000  1.0000
  Cd  Cd4       1.0  0.50000  0.50000  0.50000  1.0000
  Cd  Cd5       1.0  0.00000  0.50000  0.69000  1.0000
  Cd  Cd6       1.0  0.50000  0.00000  0.81000  1.0000
  O   O1        1.0  0.32300  0.25900  0.00000  1.0000
  O   O2        1.0  0.67700  0.74100  0.00000  1.0000
  O   O3        1.0  0.78100  0.32000  0.13100  1.0000
  O   O4        1.0  0.21900  0.68000  0.13100  1.0000
  O   O5        1.0  0.28100  0.18000  0.36900  1.0000
  O   O6        1.0  0.71900  0.82000  0.36900  1.0000
  O   O7        1.0  0.82300  0.24100  0.50000  1.0000
  O   O8        1.0  0.17700  0.75900  0.50000  1.0000
  O   O9        1.0  0.28100  0.18000  0.63100  1.0000
  O   O10       1.0  0.71900  0.82000  0.63100  1.0000
  O   O11       1.0  0.78100  0.32000  0.86900  1.0000
  O   O12       1.0  0.21900  0.68000  0.86900  1.0000
