data_image0
_chemical_formula_structural       Li2O8Si4
_chemical_formula_sum              "Li2 O8 Si4"
_cell_length_a       5.71681
_cell_length_b       5.71681
_cell_length_c       5.71681
_cell_angle_alpha    119.995
_cell_angle_beta     90.0089
_cell_angle_gamma    119.995

_space_group_name_H-M_alt    "P 1"
_space_group_IT_number       1

loop_
  _space_group_symop_operation_xyz
  'x, y, z'

loop_
  _atom_site_type_symbol
  _atom_site_label
  _atom_site_symmetry_multiplicity
  _atom_site_fract_x
  _atom_site_fract_y
  _atom_site_fract_z
  _atom_site_occupancy
  Li  Li1       1.0  0.00000  0.00000  0.00000  1.0000
  Li  Li2       1.0  0.75000  0.50000  0.25000  1.0000
  O   O1        1.0  0.17500  0.78400  0.39200  1.0000
  O   O2        1.0  0.60800  0.21600  0.39200  1.0000
  O   O3        1.0  0.60800  0.78400  0.39200  1.0000
  O   O4        1.0  0.14200  0.28400  0.42500  1.0000
  O   O5        1.0  0.60800  0.21600  0.82500  1.0000
  O   O6        1.0  0.14200  0.71600  0.85800  1.0000
  O   O7        1.0  0.14200  0.28400  0.85800  1.0000
  O   O8        1.0  0.57500  0.71600  0.85800  1.0000
  Si  Si1       1.0  0.37500  0.75000  0.12500  1.0000
  Si  Si2       1.0  0.87500  0.25000  0.62500  1.0000
  Si  Si3       1.0  0.37500  0.25000  0.62500  1.0000
  Si  Si4       1.0  0.37500  0.75000  0.62500  1.0000
