data_image0
_chemical_formula_structural       K2O14P4Y2
_chemical_formula_sum              "K2 O14 P4 Y2"
_cell_length_a       5.37956
_cell_length_b       5.37956
_cell_length_c       12.0734
_cell_angle_alpha    90
_cell_angle_beta     90
_cell_angle_gamma    115.761

_space_group_name_H-M_alt    "P 1"
_space_group_IT_number       1

loop_
  _space_group_symop_operation_xyz
  'x, y, z'

loop_
  _atom_site_type_symbol
  _atom_site_label
  _atom_site_symmetry_multiplicity
  _atom_site_fract_x
  _atom_site_fract_y
  _atom_site_fract_z
  _atom_site_occupancy
  K   K1        1.0  0.30100  0.69900  0.25000  1.0000
  K   K2        1.0  0.69900  0.30100  0.75000  1.0000
  O   O1        1.0  0.76500  0.23500  0.04630  1.0000
  O   O2        1.0  0.32600  0.23100  0.12700  1.0000
  O   O3        1.0  0.76900  0.67400  0.12700  1.0000
  O   O4        1.0  0.72400  0.27600  0.25000  1.0000
  O   O5        1.0  0.32600  0.23100  0.37300  1.0000
  O   O6        1.0  0.76900  0.67400  0.37300  1.0000
  O   O7        1.0  0.76500  0.23500  0.45400  1.0000
  O   O8        1.0  0.23500  0.76500  0.54600  1.0000
  O   O9        1.0  0.23100  0.32600  0.62700  1.0000
  O   O10       1.0  0.67400  0.76900  0.62700  1.0000
  O   O11       1.0  0.27600  0.72400  0.75000  1.0000
  O   O12       1.0  0.23100  0.32600  0.87300  1.0000
  O   O13       1.0  0.67400  0.76900  0.87300  1.0000
  O   O14       1.0  0.23500  0.76500  0.95400  1.0000
  P   P1        1.0  0.64000  0.36000  0.12900  1.0000
  P   P2        1.0  0.64000  0.36000  0.37100  1.0000
  P   P3        1.0  0.36000  0.64000  0.62900  1.0000
  P   P4        1.0  0.36000  0.64000  0.87100  1.0000
  Y   Y1        1.0  0.00000  0.00000  0.00000  1.0000
  Y   Y2        1.0  0.00000  0.00000  0.50000  1.0000
