data_image0
_chemical_formula_structural       Na2O8U4
_chemical_formula_sum              "Na2 O8 U4"
_cell_length_a       7.04777
_cell_length_b       7.04777
_cell_length_c       7.04777
_cell_angle_alpha    119.781
_cell_angle_beta     90.3799
_cell_angle_gamma    119.781

_space_group_name_H-M_alt    "P 1"
_space_group_IT_number       1

loop_
  _space_group_symop_operation_xyz
  'x, y, z'

loop_
  _atom_site_type_symbol
  _atom_site_label
  _atom_site_symmetry_multiplicity
  _atom_site_fract_x
  _atom_site_fract_y
  _atom_site_fract_z
  _atom_site_occupancy
  Na  Na1       1.0  0.00000  0.00000  0.00000  1.0000
  Na  Na2       1.0  0.75000  0.50000  0.25000  1.0000
  O   O1        1.0  0.17400  0.78700  0.38700  1.0000
  O   O2        1.0  0.60000  0.21300  0.38700  1.0000
  O   O3        1.0  0.61300  0.78700  0.40000  1.0000
  O   O4        1.0  0.13700  0.28700  0.42400  1.0000
  O   O5        1.0  0.61300  0.21300  0.82600  1.0000
  O   O6        1.0  0.13700  0.71300  0.85000  1.0000
  O   O7        1.0  0.15000  0.28700  0.86300  1.0000
  O   O8        1.0  0.57600  0.71300  0.86300  1.0000
  U   U1        1.0  0.37500  0.75000  0.12500  1.0000
  U   U2        1.0  0.87500  0.25000  0.62500  1.0000
  U   U3        1.0  0.37500  0.25000  0.62500  1.0000
  U   U4        1.0  0.37500  0.75000  0.62500  1.0000
