data_image0
_chemical_formula_structural       Ba2C4Ce2F2O12
_chemical_formula_sum              "Ba2 C4 Ce2 F2 O12"
_cell_length_a       5.06272
_cell_length_b       5.06272
_cell_length_c       12.934
_cell_angle_alpha    78.7136
_cell_angle_beta     101.286
_cell_angle_gamma    120

_space_group_name_H-M_alt    "P 1"
_space_group_IT_number       1

loop_
  _space_group_symop_operation_xyz
  'x, y, z'

loop_
  _atom_site_type_symbol
  _atom_site_label
  _atom_site_symmetry_multiplicity
  _atom_site_fract_x
  _atom_site_fract_y
  _atom_site_fract_z
  _atom_site_occupancy
  Ba  Ba1       1.0  0.00000  0.00000  0.00000  1.0000
  Ba  Ba2       1.0  0.50000  0.50000  0.50000  1.0000
  C   C1        1.0  0.37300  0.62700  0.11900  1.0000
  C   C2        1.0  0.10800  0.89200  0.32300  1.0000
  C   C3        1.0  0.89200  0.10800  0.67700  1.0000
  C   C4        1.0  0.62700  0.37300  0.88100  1.0000
  Ce  Ce1       1.0  0.75500  0.24500  0.26600  1.0000
  Ce  Ce2       1.0  0.24500  0.75500  0.73400  1.0000
  F   F1        1.0  0.81800  0.18200  0.45300  1.0000
  F   F2        1.0  0.18200  0.81800  0.54700  1.0000
  O   O1        1.0  0.07730  0.48000  0.11600  1.0000
  O   O2        1.0  0.52000  0.48000  0.11600  1.0000
  O   O3        1.0  0.52000  0.92300  0.11600  1.0000
  O   O4        1.0  0.25400  0.18800  0.32000  1.0000
  O   O5        1.0  0.25400  0.74600  0.32000  1.0000
  O   O6        1.0  0.81200  0.74600  0.32000  1.0000
  O   O7        1.0  0.18800  0.25400  0.68000  1.0000
  O   O8        1.0  0.74600  0.25400  0.68000  1.0000
  O   O9        1.0  0.74600  0.81200  0.68000  1.0000
  O   O10       1.0  0.48000  0.07730  0.88400  1.0000
  O   O11       1.0  0.48000  0.52000  0.88400  1.0000
  O   O12       1.0  0.92300  0.52000  0.88400  1.0000
