data_image0
_chemical_formula_structural       Dy4O14Ru4
_chemical_formula_sum              "Dy4 O14 Ru4"
_cell_length_a       7.16567
_cell_length_b       7.16567
_cell_length_c       7.16567
_cell_angle_alpha    120
_cell_angle_beta     90
_cell_angle_gamma    120

_space_group_name_H-M_alt    "P 1"
_space_group_IT_number       1

loop_
  _space_group_symop_operation_xyz
  'x, y, z'

loop_
  _atom_site_type_symbol
  _atom_site_label
  _atom_site_symmetry_multiplicity
  _atom_site_fract_x
  _atom_site_fract_y
  _atom_site_fract_z
  _atom_site_occupancy
  Dy  Dy1       1.0  0.37500  0.75000  0.12500  1.0000
  Dy  Dy2       1.0  0.37500  0.25000  0.62500  1.0000
  Dy  Dy3       1.0  0.37500  0.75000  0.62500  1.0000
  Dy  Dy4       1.0  0.87500  0.25000  0.62500  1.0000
  O   O1        1.0  0.53900  0.07800  0.03900  1.0000
  O   O2        1.0  0.53900  0.50000  0.03900  1.0000
  O   O3        1.0  0.96100  0.50000  0.03900  1.0000
  O   O4        1.0  0.21100  0.00000  0.21100  1.0000
  O   O5        1.0  0.21100  0.42200  0.21100  1.0000
  O   O6        1.0  0.78900  0.00000  0.21100  1.0000
  O   O7        1.0  0.96100  0.50000  0.46100  1.0000
  O   O8        1.0  0.96100  0.92200  0.46100  1.0000
  O   O9        1.0  0.53900  0.50000  0.46100  1.0000
  O   O10       1.0  0.50000  0.00000  0.50000  1.0000
  O   O11       1.0  0.25000  0.50000  0.75000  1.0000
  O   O12       1.0  0.21100  0.00000  0.78900  1.0000
  O   O13       1.0  0.78900  0.57800  0.78900  1.0000
  O   O14       1.0  0.78900  0.00000  0.78900  1.0000
  Ru  Ru1       1.0  0.37500  0.25000  0.12500  1.0000
  Ru  Ru2       1.0  0.87500  0.25000  0.12500  1.0000
  Ru  Ru3       1.0  0.87500  0.75000  0.12500  1.0000
  Ru  Ru4       1.0  0.87500  0.75000  0.62500  1.0000
