data_image0
_chemical_formula_structural       Ni2O8Si4
_chemical_formula_sum              "Ni2 O8 Si4"
_cell_length_a       5.72714
_cell_length_b       5.72714
_cell_length_c       5.72714
_cell_angle_alpha    120.407
_cell_angle_beta     89.2973
_cell_angle_gamma    120.407

_space_group_name_H-M_alt    "P 1"
_space_group_IT_number       1

loop_
  _space_group_symop_operation_xyz
  'x, y, z'

loop_
  _atom_site_type_symbol
  _atom_site_label
  _atom_site_symmetry_multiplicity
  _atom_site_fract_x
  _atom_site_fract_y
  _atom_site_fract_z
  _atom_site_occupancy
  Ni  Ni1       1.0  0.00000  0.00000  0.00000  1.0000
  Ni  Ni2       1.0  0.75000  0.50000  0.25000  1.0000
  O   O1        1.0  0.60500  0.78700  0.39200  1.0000
  O   O2        1.0  0.60800  0.21300  0.39500  1.0000
  O   O3        1.0  0.18300  0.78700  0.39500  1.0000
  O   O4        1.0  0.14500  0.28700  0.43300  1.0000
  O   O5        1.0  0.60500  0.21300  0.81700  1.0000
  O   O6        1.0  0.14200  0.28700  0.85500  1.0000
  O   O7        1.0  0.56700  0.71300  0.85500  1.0000
  O   O8        1.0  0.14500  0.71300  0.85800  1.0000
  Si  Si1       1.0  0.37500  0.75000  0.12500  1.0000
  Si  Si2       1.0  0.87500  0.25000  0.62500  1.0000
  Si  Si3       1.0  0.37500  0.75000  0.62500  1.0000
  Si  Si4       1.0  0.37500  0.25000  0.62500  1.0000
