data_image0
_chemical_formula_structural       Li2Mo2O14P4
_chemical_formula_sum              "Li2 Mo2 O14 P4"
_cell_length_a       4.86433
_cell_length_b       8.36317
_cell_length_c       7.01826
_cell_angle_alpha    90
_cell_angle_beta     110.161
_cell_angle_gamma    90

_space_group_name_H-M_alt    "P 1"
_space_group_IT_number       1

loop_
  _space_group_symop_operation_xyz
  'x, y, z'

loop_
  _atom_site_type_symbol
  _atom_site_label
  _atom_site_symmetry_multiplicity
  _atom_site_fract_x
  _atom_site_fract_y
  _atom_site_fract_z
  _atom_site_occupancy
  Li  Li1       1.0  0.80700  0.30700  0.31600  1.0000
  Li  Li2       1.0  0.19300  0.80700  0.68400  1.0000
  Mo  Mo1       1.0  0.78100  0.94400  0.27100  1.0000
  Mo  Mo2       1.0  0.21900  0.44400  0.72900  1.0000
  O   O1        1.0  0.36100  0.88100  0.07140  1.0000
  O   O2        1.0  0.88500  0.14100  0.12500  1.0000
  O   O3        1.0  0.92000  0.75700  0.13300  1.0000
  O   O4        1.0  0.39700  0.60200  0.23800  1.0000
  O   O5        1.0  0.60400  0.12900  0.40100  1.0000
  O   O6        1.0  0.20600  0.97800  0.49200  1.0000
  O   O7        1.0  0.76000  0.78400  0.49600  1.0000
  O   O8        1.0  0.24000  0.28400  0.50400  1.0000
  O   O9        1.0  0.79400  0.47800  0.50800  1.0000
  O   O10       1.0  0.39600  0.62900  0.59900  1.0000
  O   O11       1.0  0.60300  0.10200  0.76200  1.0000
  O   O12       1.0  0.07990  0.25700  0.86700  1.0000
  O   O13       1.0  0.11500  0.64100  0.87500  1.0000
  O   O14       1.0  0.63900  0.38100  0.92900  1.0000
  P   P1        1.0  0.19000  0.72800  0.07660  1.0000
  P   P2        1.0  0.59500  0.62500  0.47200  1.0000
  P   P3        1.0  0.40500  0.12500  0.52800  1.0000
  P   P4        1.0  0.81000  0.22800  0.92300  1.0000
