data_image0
_chemical_formula_structural       Mn2O14Te2V4
_chemical_formula_sum              "Mn2 O14 Te2 V4"
_cell_length_a       6.71034
_cell_length_b       6.86398
_cell_length_c       7.80519
_cell_angle_alpha    94.3298
_cell_angle_beta     114.598
_cell_angle_gamma    114.429

_space_group_name_H-M_alt    "P 1"
_space_group_IT_number       1

loop_
  _space_group_symop_operation_xyz
  'x, y, z'

loop_
  _atom_site_type_symbol
  _atom_site_label
  _atom_site_symmetry_multiplicity
  _atom_site_fract_x
  _atom_site_fract_y
  _atom_site_fract_z
  _atom_site_occupancy
  Mn  Mn1       1.0  0.43800  0.06530  0.17800  1.0000
  Mn  Mn2       1.0  0.56200  0.93500  0.82200  1.0000
  O   O1        1.0  0.75000  0.11100  0.11600  1.0000
  O   O2        1.0  0.42700  0.35900  0.13400  1.0000
  O   O3        1.0  0.33300  0.73800  0.24100  1.0000
  O   O4        1.0  0.14100  0.98600  0.25000  1.0000
  O   O5        1.0  0.81500  0.81400  0.36100  1.0000
  O   O6        1.0  0.26400  0.41600  0.41500  1.0000
  O   O7        1.0  0.79100  0.23000  0.44600  1.0000
  O   O8        1.0  0.20900  0.77000  0.55400  1.0000
  O   O9        1.0  0.73600  0.58400  0.58500  1.0000
  O   O10       1.0  0.18500  0.18600  0.63900  1.0000
  O   O11       1.0  0.85900  0.01450  0.75000  1.0000
  O   O12       1.0  0.66700  0.26200  0.75900  1.0000
  O   O13       1.0  0.57300  0.64100  0.86600  1.0000
  O   O14       1.0  0.25000  0.88900  0.88400  1.0000
  Te  Te1       1.0  0.04090  0.68400  0.27400  1.0000
  Te  Te2       1.0  0.95900  0.31600  0.72600  1.0000
  V   V1        1.0  0.50000  0.56300  0.32000  1.0000
  V   V2        1.0  0.97500  0.11800  0.33400  1.0000
  V   V3        1.0  0.02510  0.88200  0.66600  1.0000
  V   V4        1.0  0.50000  0.43700  0.68000  1.0000
