data_image0
_chemical_formula_structural       Lu2O8U4
_chemical_formula_sum              "Lu2 O8 U4"
_cell_length_a       6.94904
_cell_length_b       6.94904
_cell_length_c       6.94904
_cell_angle_alpha    119.992
_cell_angle_beta     90.0143
_cell_angle_gamma    119.992

_space_group_name_H-M_alt    "P 1"
_space_group_IT_number       1

loop_
  _space_group_symop_operation_xyz
  'x, y, z'

loop_
  _atom_site_type_symbol
  _atom_site_label
  _atom_site_symmetry_multiplicity
  _atom_site_fract_x
  _atom_site_fract_y
  _atom_site_fract_z
  _atom_site_occupancy
  Lu  Lu1       1.0  0.00000  0.00000  0.00000  1.0000
  Lu  Lu2       1.0  0.75000  0.50000  0.25000  1.0000
  O   O1        1.0  0.12300  0.24500  0.36800  1.0000
  O   O2        1.0  0.62700  0.25500  0.37300  1.0000
  O   O3        1.0  0.11800  0.74500  0.37300  1.0000
  O   O4        1.0  0.62700  0.74500  0.37300  1.0000
  O   O5        1.0  0.12300  0.75500  0.87700  1.0000
  O   O6        1.0  0.12300  0.24500  0.87700  1.0000
  O   O7        1.0  0.63200  0.75500  0.87700  1.0000
  O   O8        1.0  0.62700  0.25500  0.88200  1.0000
  U   U1        1.0  0.37500  0.75000  0.12500  1.0000
  U   U2        1.0  0.37500  0.25000  0.62500  1.0000
  U   U3        1.0  0.87500  0.25000  0.62500  1.0000
  U   U4        1.0  0.37500  0.75000  0.62500  1.0000
