data_image0
_chemical_formula_structural       Al4Cl16Sm2
_chemical_formula_sum              "Al4 Cl16 Sm2"
_cell_length_a       12.7151
_cell_length_b       6.91883
_cell_length_c       7.00496
_cell_angle_alpha    90
_cell_angle_beta     93.9634
_cell_angle_gamma    90

_space_group_name_H-M_alt    "P 1"
_space_group_IT_number       1

loop_
  _space_group_symop_operation_xyz
  'x, y, z'

loop_
  _atom_site_type_symbol
  _atom_site_label
  _atom_site_symmetry_multiplicity
  _atom_site_fract_x
  _atom_site_fract_y
  _atom_site_fract_z
  _atom_site_occupancy
  Al  Al1       1.0  0.58000  0.26400  0.32700  1.0000
  Al  Al2       1.0  0.08010  0.73600  0.32700  1.0000
  Al  Al3       1.0  0.92000  0.26400  0.67300  1.0000
  Al  Al4       1.0  0.42000  0.73600  0.67300  1.0000
  Cl  Cl1       1.0  0.63700  0.02410  0.16400  1.0000
  Cl  Cl2       1.0  0.13700  0.97600  0.16400  1.0000
  Cl  Cl3       1.0  0.66000  0.52900  0.25500  1.0000
  Cl  Cl4       1.0  0.16000  0.47100  0.25500  1.0000
  Cl  Cl5       1.0  0.91300  0.69000  0.26500  1.0000
  Cl  Cl6       1.0  0.41300  0.31000  0.26500  1.0000
  Cl  Cl7       1.0  0.87900  0.17300  0.38100  1.0000
  Cl  Cl8       1.0  0.37900  0.82700  0.38100  1.0000
  Cl  Cl9       1.0  0.62100  0.17300  0.61900  1.0000
  Cl  Cl10      1.0  0.12100  0.82700  0.61900  1.0000
  Cl  Cl11      1.0  0.58700  0.69000  0.73500  1.0000
  Cl  Cl12      1.0  0.08730  0.31000  0.73500  1.0000
  Cl  Cl13      1.0  0.84000  0.52900  0.74500  1.0000
  Cl  Cl14      1.0  0.34000  0.47100  0.74500  1.0000
  Cl  Cl15      1.0  0.86300  0.02410  0.83600  1.0000
  Cl  Cl16      1.0  0.36300  0.97600  0.83600  1.0000
  Sm  Sm1       1.0  0.75000  0.84300  0.50000  1.0000
  Sm  Sm2       1.0  0.25000  0.15700  0.50000  1.0000
