data_image0
_chemical_formula_structural       N2Na10O8W2
_chemical_formula_sum              "N2 Na10 O8 W2"
_cell_length_a       5.68632
_cell_length_b       5.68632
_cell_length_c       10.5642
_cell_angle_alpha    90
_cell_angle_beta     90
_cell_angle_gamma    60.8602

_space_group_name_H-M_alt    "P 1"
_space_group_IT_number       1

loop_
  _space_group_symop_operation_xyz
  'x, y, z'

loop_
  _atom_site_type_symbol
  _atom_site_label
  _atom_site_symmetry_multiplicity
  _atom_site_fract_x
  _atom_site_fract_y
  _atom_site_fract_z
  _atom_site_occupancy
  N   N1        1.0  0.90000  0.10000  0.27800  1.0000
  N   N2        1.0  0.10000  0.90000  0.77800  1.0000
  Na  Na1       1.0  0.46500  0.16600  0.23900  1.0000
  Na  Na2       1.0  0.83400  0.53500  0.23900  1.0000
  Na  Na3       1.0  0.57500  0.42500  0.47300  1.0000
  Na  Na4       1.0  0.20700  0.17500  0.49200  1.0000
  Na  Na5       1.0  0.82500  0.79300  0.49200  1.0000
  Na  Na6       1.0  0.16600  0.46500  0.73900  1.0000
  Na  Na7       1.0  0.53500  0.83400  0.73900  1.0000
  Na  Na8       1.0  0.42500  0.57500  0.97300  1.0000
  Na  Na9       1.0  0.17500  0.20700  0.99200  1.0000
  Na  Na10      1.0  0.79300  0.82500  0.99200  1.0000
  O   O1        1.0  0.14600  0.58000  0.12300  1.0000
  O   O2        1.0  0.42000  0.85400  0.12300  1.0000
  O   O3        1.0  0.18600  0.53700  0.37000  1.0000
  O   O4        1.0  0.46300  0.81400  0.37000  1.0000
  O   O5        1.0  0.58000  0.14600  0.62300  1.0000
  O   O6        1.0  0.85400  0.42000  0.62300  1.0000
  O   O7        1.0  0.53700  0.18600  0.87000  1.0000
  O   O8        1.0  0.81400  0.46300  0.87000  1.0000
  W   W1        1.0  0.20800  0.79200  0.25300  1.0000
  W   W2        1.0  0.79200  0.20800  0.75300  1.0000
