data_image0
_chemical_formula_structural       In2Li2O14P4
_chemical_formula_sum              "In2 Li2 O14 P4"
_cell_length_a       6.99989
_cell_length_b       8.40841
_cell_length_c       4.86801
_cell_angle_alpha    90
_cell_angle_beta     109.708
_cell_angle_gamma    90

_space_group_name_H-M_alt    "P 1"
_space_group_IT_number       1

loop_
  _space_group_symop_operation_xyz
  'x, y, z'

loop_
  _atom_site_type_symbol
  _atom_site_label
  _atom_site_symmetry_multiplicity
  _atom_site_fract_x
  _atom_site_fract_y
  _atom_site_fract_z
  _atom_site_occupancy
  In  In1       1.0  0.26300  0.25000  0.49300  1.0000
  In  In2       1.0  0.73700  0.75000  0.50700  1.0000
  Li  Li1       1.0  0.68200  0.11800  0.48600  1.0000
  Li  Li2       1.0  0.31800  0.61800  0.51400  1.0000
  O   O1        1.0  0.76400  0.41500  0.15700  1.0000
  O   O2        1.0  0.59500  0.93900  0.20400  1.0000
  O   O3        1.0  0.12000  0.05830  0.22000  1.0000
  O   O4        1.0  0.13000  0.45100  0.24400  1.0000
  O   O5        1.0  0.50100  0.59000  0.26600  1.0000
  O   O6        1.0  0.93300  0.69300  0.26800  1.0000
  O   O7        1.0  0.49300  0.28500  0.27900  1.0000
  O   O8        1.0  0.50700  0.78500  0.72100  1.0000
  O   O9        1.0  0.06710  0.19300  0.73200  1.0000
  O   O10       1.0  0.49900  0.09020  0.73400  1.0000
  O   O11       1.0  0.87000  0.95100  0.75600  1.0000
  O   O12       1.0  0.88000  0.55800  0.78000  1.0000
  O   O13       1.0  0.40500  0.43900  0.79600  1.0000
  O   O14       1.0  0.23600  0.91500  0.84300  1.0000
  P   P1        1.0  0.92900  0.53600  0.10600  1.0000
  P   P2        1.0  0.52700  0.43400  0.12200  1.0000
  P   P3        1.0  0.47300  0.93400  0.87800  1.0000
  P   P4        1.0  0.07130  0.03640  0.89400  1.0000
