data_image0
_chemical_formula_structural       Ba2O14Si4V2
_chemical_formula_sum              "Ba2 O14 Si4 V2"
_cell_length_a       7.08043
_cell_length_b       7.08043
_cell_length_c       7.53026
_cell_angle_alpha    118.043
_cell_angle_beta     118.043
_cell_angle_gamma    90

_space_group_name_H-M_alt    "P 1"
_space_group_IT_number       1

loop_
  _space_group_symop_operation_xyz
  'x, y, z'

loop_
  _atom_site_type_symbol
  _atom_site_label
  _atom_site_symmetry_multiplicity
  _atom_site_fract_x
  _atom_site_fract_y
  _atom_site_fract_z
  _atom_site_occupancy
  Ba  Ba1       1.0  0.75000  0.25000  0.50000  1.0000
  Ba  Ba2       1.0  0.25000  0.75000  0.50000  1.0000
  O   O1        1.0  0.72400  0.00965  0.00000  1.0000
  O   O2        1.0  0.00965  0.27600  0.00000  1.0000
  O   O3        1.0  0.99000  0.72400  0.00000  1.0000
  O   O4        1.0  0.27600  0.99000  0.00000  1.0000
  O   O5        1.0  0.44400  0.42000  0.24500  1.0000
  O   O6        1.0  0.82500  0.44400  0.24500  1.0000
  O   O7        1.0  0.42000  0.80100  0.24500  1.0000
  O   O8        1.0  0.80100  0.82500  0.24500  1.0000
  O   O9        1.0  0.19000  0.19000  0.38000  1.0000
  O   O10       1.0  0.81000  0.81000  0.62000  1.0000
  O   O11       1.0  0.19900  0.17500  0.75500  1.0000
  O   O12       1.0  0.58000  0.19900  0.75500  1.0000
  O   O13       1.0  0.17500  0.55600  0.75500  1.0000
  O   O14       1.0  0.55600  0.58000  0.75500  1.0000
  Si  Si1       1.0  0.23200  0.21700  0.00000  1.0000
  Si  Si2       1.0  0.78300  0.23200  0.00000  1.0000
  Si  Si3       1.0  0.21700  0.76800  0.00000  1.0000
  Si  Si4       1.0  0.76800  0.78300  0.00000  1.0000
  V   V1        1.0  0.66400  0.66400  0.32800  1.0000
  V   V2        1.0  0.33600  0.33600  0.67200  1.0000
