data_image0
_chemical_formula_structural       Fe2Na12Se8
_chemical_formula_sum              "Fe2 Na12 Se8"
_cell_length_a       9.30223
_cell_length_b       9.30081
_cell_length_c       7.13865
_cell_angle_alpha    90
_cell_angle_beta     90
_cell_angle_gamma    120.005

_space_group_name_H-M_alt    "P 1"
_space_group_IT_number       1

loop_
  _space_group_symop_operation_xyz
  'x, y, z'

loop_
  _atom_site_type_symbol
  _atom_site_label
  _atom_site_symmetry_multiplicity
  _atom_site_fract_x
  _atom_site_fract_y
  _atom_site_fract_z
  _atom_site_occupancy
  Fe  Fe1       1.0  0.33300  0.66700  0.25000  1.0000
  Fe  Fe2       1.0  0.66700  0.33300  0.75000  1.0000
  Na  Na1       1.0  0.29400  0.14700  0.04340  1.0000
  Na  Na2       1.0  0.85300  0.14700  0.04340  1.0000
  Na  Na3       1.0  0.85300  0.70600  0.04340  1.0000
  Na  Na4       1.0  0.52900  0.05840  0.37000  1.0000
  Na  Na5       1.0  0.52900  0.47100  0.37000  1.0000
  Na  Na6       1.0  0.94200  0.47100  0.37000  1.0000
  Na  Na7       1.0  0.14700  0.29400  0.54300  1.0000
  Na  Na8       1.0  0.14700  0.85300  0.54300  1.0000
  Na  Na9       1.0  0.70600  0.85300  0.54300  1.0000
  Na  Na10      1.0  0.05840  0.52900  0.87000  1.0000
  Na  Na11      1.0  0.47100  0.52900  0.87000  1.0000
  Na  Na12      1.0  0.47100  0.94200  0.87000  1.0000
  Se  Se1       1.0  0.66700  0.33300  0.09750  1.0000
  Se  Se2       1.0  0.18700  0.81300  0.14300  1.0000
  Se  Se3       1.0  0.62500  0.81300  0.14300  1.0000
  Se  Se4       1.0  0.18700  0.37500  0.14300  1.0000
  Se  Se5       1.0  0.33300  0.66700  0.59800  1.0000
  Se  Se6       1.0  0.37500  0.18700  0.64300  1.0000
  Se  Se7       1.0  0.81300  0.18700  0.64300  1.0000
  Se  Se8       1.0  0.81300  0.62500  0.64300  1.0000
