data_image0
_chemical_formula_structural       Cr4Nb8Si10
_chemical_formula_sum              "Cr4 Nb8 Si10"
_cell_length_a       4.94685
_cell_length_b       7.87413
_cell_length_c       9.37844
_cell_angle_alpha    114.822
_cell_angle_beta     105.292
_cell_angle_gamma    90

_space_group_name_H-M_alt    "P 1"
_space_group_IT_number       1

loop_
  _space_group_symop_operation_xyz
  'x, y, z'

loop_
  _atom_site_type_symbol
  _atom_site_label
  _atom_site_symmetry_multiplicity
  _atom_site_fract_x
  _atom_site_fract_y
  _atom_site_fract_z
  _atom_site_occupancy
  Cr  Cr1       1.0  0.44300  0.69300  0.38700  1.0000
  Cr  Cr2       1.0  0.94300  0.69300  0.38700  1.0000
  Cr  Cr3       1.0  0.05650  0.30700  0.61300  1.0000
  Cr  Cr4       1.0  0.55700  0.30700  0.61300  1.0000
  Nb  Nb1       1.0  0.06340  0.31900  0.12700  1.0000
  Nb  Nb2       1.0  0.56300  0.80700  0.12700  1.0000
  Nb  Nb3       1.0  0.14300  0.03010  0.28700  1.0000
  Nb  Nb4       1.0  0.64300  0.25600  0.28700  1.0000
  Nb  Nb5       1.0  0.35700  0.74400  0.71300  1.0000
  Nb  Nb6       1.0  0.85700  0.97000  0.71300  1.0000
  Nb  Nb7       1.0  0.43700  0.19300  0.87300  1.0000
  Nb  Nb8       1.0  0.93700  0.68100  0.87300  1.0000
  Si  Si1       1.0  0.25000  0.00000  0.00000  1.0000
  Si  Si2       1.0  0.75000  0.00000  0.00000  1.0000
  Si  Si3       1.0  0.57100  0.48800  0.14100  1.0000
  Si  Si4       1.0  0.07060  0.65300  0.14100  1.0000
  Si  Si5       1.0  0.71800  0.01180  0.43600  1.0000
  Si  Si6       1.0  0.21800  0.42400  0.43600  1.0000
  Si  Si7       1.0  0.78200  0.57600  0.56400  1.0000
  Si  Si8       1.0  0.28200  0.98800  0.56400  1.0000
  Si  Si9       1.0  0.92900  0.34700  0.85900  1.0000
  Si  Si10      1.0  0.42900  0.51200  0.85900  1.0000
