data_image0
_chemical_formula_structural       Cd2Cl12K2Rb6
_chemical_formula_sum              "Cd2 Cl12 K2 Rb6"
_cell_length_a       8.82279
_cell_length_b       8.82279
_cell_length_c       8.82279
_cell_angle_alpha    90.5655
_cell_angle_beta     90.5655
_cell_angle_gamma    90.5655

_space_group_name_H-M_alt    "P 1"
_space_group_IT_number       1

loop_
  _space_group_symop_operation_xyz
  'x, y, z'

loop_
  _atom_site_type_symbol
  _atom_site_label
  _atom_site_symmetry_multiplicity
  _atom_site_fract_x
  _atom_site_fract_y
  _atom_site_fract_z
  _atom_site_occupancy
  Cd  Cd1       1.0  0.49800  0.49800  0.49800  1.0000
  Cd  Cd2       1.0  0.99800  0.99800  0.99800  1.0000
  Cl  Cl1       1.0  0.92200  0.70900  0.05070  1.0000
  Cl  Cl2       1.0  0.28600  0.94500  0.07460  1.0000
  Cl  Cl3       1.0  0.42200  0.55100  0.20900  1.0000
  Cl  Cl4       1.0  0.94500  0.07460  0.28600  1.0000
  Cl  Cl5       1.0  0.55100  0.20900  0.42200  1.0000
  Cl  Cl6       1.0  0.78600  0.57500  0.44500  1.0000
  Cl  Cl7       1.0  0.20900  0.42200  0.55100  1.0000
  Cl  Cl8       1.0  0.44500  0.78600  0.57500  1.0000
  Cl  Cl9       1.0  0.05070  0.92200  0.70900  1.0000
  Cl  Cl10      1.0  0.57500  0.44500  0.78600  1.0000
  Cl  Cl11      1.0  0.70900  0.05070  0.92200  1.0000
  Cl  Cl12      1.0  0.07460  0.28600  0.94500  1.0000
  K   K1        1.0  0.24800  0.24800  0.24800  1.0000
  K   K2        1.0  0.74800  0.74800  0.74800  1.0000
  Rb  Rb1       1.0  0.74700  0.37200  0.12400  1.0000
  Rb  Rb2       1.0  0.62400  0.87200  0.24700  1.0000
  Rb  Rb3       1.0  0.12400  0.74700  0.37200  1.0000
  Rb  Rb4       1.0  0.87200  0.24700  0.62400  1.0000
  Rb  Rb5       1.0  0.37200  0.12400  0.74700  1.0000
  Rb  Rb6       1.0  0.24700  0.62400  0.87200  1.0000
