data_image0
_chemical_formula_structural       Ir2O12Sr8
_chemical_formula_sum              "Ir2 O12 Sr8"
_cell_length_a       6.86715
_cell_length_b       6.86715
_cell_length_c       6.86715
_cell_angle_alpha    90.2003
_cell_angle_beta     90.2003
_cell_angle_gamma    90.2003

_space_group_name_H-M_alt    "P 1"
_space_group_IT_number       1

loop_
  _space_group_symop_operation_xyz
  'x, y, z'

loop_
  _atom_site_type_symbol
  _atom_site_label
  _atom_site_symmetry_multiplicity
  _atom_site_fract_x
  _atom_site_fract_y
  _atom_site_fract_z
  _atom_site_occupancy
  Ir  Ir1       1.0  0.00000  0.00000  0.00000  1.0000
  Ir  Ir2       1.0  0.50000  0.50000  0.50000  1.0000
  O   O1        1.0  0.71400  0.92700  0.05920  1.0000
  O   O2        1.0  0.94100  0.28600  0.07300  1.0000
  O   O3        1.0  0.55900  0.42700  0.21400  1.0000
  O   O4        1.0  0.07300  0.94100  0.28600  1.0000
  O   O5        1.0  0.21400  0.55900  0.42700  1.0000
  O   O6        1.0  0.57300  0.78600  0.44100  1.0000
  O   O7        1.0  0.42700  0.21400  0.55900  1.0000
  O   O8        1.0  0.78600  0.44100  0.57300  1.0000
  O   O9        1.0  0.92700  0.05920  0.71400  1.0000
  O   O10       1.0  0.44100  0.57300  0.78600  1.0000
  O   O11       1.0  0.05920  0.71400  0.92700  1.0000
  O   O12       1.0  0.28600  0.07300  0.94100  1.0000
  Sr  Sr1       1.0  0.38400  0.75000  0.11600  1.0000
  Sr  Sr2       1.0  0.88400  0.61600  0.25000  1.0000
  Sr  Sr3       1.0  0.25000  0.25000  0.25000  1.0000
  Sr  Sr4       1.0  0.75000  0.11600  0.38400  1.0000
  Sr  Sr5       1.0  0.25000  0.88400  0.61600  1.0000
  Sr  Sr6       1.0  0.75000  0.75000  0.75000  1.0000
  Sr  Sr7       1.0  0.11600  0.38400  0.75000  1.0000
  Sr  Sr8       1.0  0.61600  0.25000  0.88400  1.0000
