data_image0
_chemical_formula_structural       Al2F14Na4Ni2
_chemical_formula_sum              "Al2 F14 Na4 Ni2"
_cell_length_a       6.91425
_cell_length_b       7.03241
_cell_length_c       7.03241
_cell_angle_alpha    90.4974
_cell_angle_beta     119.446
_cell_angle_gamma    60.5543

_space_group_name_H-M_alt    "P 1"
_space_group_IT_number       1

loop_
  _space_group_symop_operation_xyz
  'x, y, z'

loop_
  _atom_site_type_symbol
  _atom_site_label
  _atom_site_symmetry_multiplicity
  _atom_site_fract_x
  _atom_site_fract_y
  _atom_site_fract_z
  _atom_site_occupancy
  Al  Al1       1.0  0.50000  0.00000  0.00000  1.0000
  Al  Al2       1.0  0.50000  0.50000  0.50000  1.0000
  F   F1        1.0  0.24700  0.17500  0.05170  1.0000
  F   F2        1.0  0.63000  0.17500  0.05170  1.0000
  F   F3        1.0  0.88100  0.36900  0.13100  1.0000
  F   F4        1.0  0.72600  0.86000  0.31100  1.0000
  F   F5        1.0  0.24700  0.44800  0.32500  1.0000
  F   F6        1.0  0.63000  0.44800  0.32500  1.0000
  F   F7        1.0  0.27400  0.81100  0.36000  1.0000
  F   F8        1.0  0.72600  0.18900  0.64000  1.0000
  F   F9        1.0  0.37000  0.55200  0.67500  1.0000
  F   F10       1.0  0.75300  0.55200  0.67500  1.0000
  F   F11       1.0  0.27400  0.14000  0.68900  1.0000
  F   F12       1.0  0.11900  0.63100  0.86900  1.0000
  F   F13       1.0  0.37000  0.82500  0.94800  1.0000
  F   F14       1.0  0.75300  0.82500  0.94800  1.0000
  Na  Na1       1.0  0.00000  0.00000  0.00000  1.0000
  Na  Na2       1.0  0.00000  0.50000  0.50000  1.0000
  Na  Na3       1.0  0.00000  0.00000  0.50000  1.0000
  Na  Na4       1.0  0.50000  0.00000  0.50000  1.0000
  Ni  Ni1       1.0  0.00000  0.50000  0.00000  1.0000
  Ni  Ni2       1.0  0.50000  0.50000  0.00000  1.0000
