data_image0
_chemical_formula_structural       Ir2Li2O12Sr6
_chemical_formula_sum              "Ir2 Li2 O12 Sr6"
_cell_length_a       6.67379
_cell_length_b       6.67379
_cell_length_c       6.67379
_cell_angle_alpha    92.251
_cell_angle_beta     92.251
_cell_angle_gamma    92.251

_space_group_name_H-M_alt    "P 1"
_space_group_IT_number       1

loop_
  _space_group_symop_operation_xyz
  'x, y, z'

loop_
  _atom_site_type_symbol
  _atom_site_label
  _atom_site_symmetry_multiplicity
  _atom_site_fract_x
  _atom_site_fract_y
  _atom_site_fract_z
  _atom_site_occupancy
  Ir  Ir1       1.0  0.00000  0.00000  0.00000  1.0000
  Ir  Ir2       1.0  0.50000  0.50000  0.50000  1.0000
  Li  Li1       1.0  0.25000  0.25000  0.25000  1.0000
  Li  Li2       1.0  0.75000  0.75000  0.75000  1.0000
  O   O1        1.0  0.71700  0.91400  0.04640  1.0000
  O   O2        1.0  0.95400  0.28300  0.08560  1.0000
  O   O3        1.0  0.54600  0.41400  0.21700  1.0000
  O   O4        1.0  0.08560  0.95400  0.28300  1.0000
  O   O5        1.0  0.21700  0.54600  0.41400  1.0000
  O   O6        1.0  0.58600  0.78300  0.45400  1.0000
  O   O7        1.0  0.41400  0.21700  0.54600  1.0000
  O   O8        1.0  0.78300  0.45400  0.58600  1.0000
  O   O9        1.0  0.91400  0.04640  0.71700  1.0000
  O   O10       1.0  0.45400  0.58600  0.78300  1.0000
  O   O11       1.0  0.04640  0.71700  0.91400  1.0000
  O   O12       1.0  0.28300  0.08560  0.95400  1.0000
  Sr  Sr1       1.0  0.38900  0.75000  0.11100  1.0000
  Sr  Sr2       1.0  0.88900  0.61100  0.25000  1.0000
  Sr  Sr3       1.0  0.75000  0.11100  0.38900  1.0000
  Sr  Sr4       1.0  0.25000  0.88900  0.61100  1.0000
  Sr  Sr5       1.0  0.11100  0.38900  0.75000  1.0000
  Sr  Sr6       1.0  0.61100  0.25000  0.88900  1.0000
