data_image0
_chemical_formula_structural       Al2As4K2O14
_chemical_formula_sum              "Al2 As4 K2 O14"
_cell_length_a       6.18218
_cell_length_b       6.28469
_cell_length_c       8.05122
_cell_angle_alpha    95.9679
_cell_angle_beta     104.972
_cell_angle_gamma    103.065

_space_group_name_H-M_alt    "P 1"
_space_group_IT_number       1

loop_
  _space_group_symop_operation_xyz
  'x, y, z'

loop_
  _atom_site_type_symbol
  _atom_site_label
  _atom_site_symmetry_multiplicity
  _atom_site_fract_x
  _atom_site_fract_y
  _atom_site_fract_z
  _atom_site_occupancy
  Al  Al1       1.0  0.38200  0.69800  0.22200  1.0000
  Al  Al2       1.0  0.61800  0.30200  0.77800  1.0000
  As  As1       1.0  0.83400  0.53600  0.19100  1.0000
  As  As2       1.0  0.48900  0.25000  0.33700  1.0000
  As  As3       1.0  0.51100  0.75000  0.66300  1.0000
  As  As4       1.0  0.16600  0.46400  0.80900  1.0000
  K   K1        1.0  0.00000  0.00000  0.00000  1.0000
  K   K2        1.0  0.00000  0.00000  0.50000  1.0000
  O   O1        1.0  0.79100  0.34000  0.01810  1.0000
  O   O2        1.0  0.66600  0.71700  0.16900  1.0000
  O   O3        1.0  0.43300  0.00109  0.21200  1.0000
  O   O4        1.0  0.31600  0.38800  0.21700  1.0000
  O   O5        1.0  0.10600  0.70500  0.28200  1.0000
  O   O6        1.0  0.78700  0.38400  0.36200  1.0000
  O   O7        1.0  0.55800  0.76100  0.46500  1.0000
  O   O8        1.0  0.44200  0.23900  0.53500  1.0000
  O   O9        1.0  0.21300  0.61600  0.63800  1.0000
  O   O10       1.0  0.89400  0.29500  0.71800  1.0000
  O   O11       1.0  0.68400  0.61200  0.78300  1.0000
  O   O12       1.0  0.56700  0.99900  0.78800  1.0000
  O   O13       1.0  0.33400  0.28300  0.83100  1.0000
  O   O14       1.0  0.20900  0.66000  0.98200  1.0000
