data_image0
_chemical_formula_structural       Pd14Se8
_chemical_formula_sum              "Pd14 Se8"
_cell_length_a       10.2381
_cell_length_b       6.93997
_cell_length_c       5.43416
_cell_angle_alpha    90
_cell_angle_beta     90
_cell_angle_gamma    90

_space_group_name_H-M_alt    "P 1"
_space_group_IT_number       1

loop_
  _space_group_symop_operation_xyz
  'x, y, z'

loop_
  _atom_site_type_symbol
  _atom_site_label
  _atom_site_symmetry_multiplicity
  _atom_site_fract_x
  _atom_site_fract_y
  _atom_site_fract_z
  _atom_site_occupancy
  Pd  Pd1       1.0  0.27500  0.41500  0.00405  1.0000
  Pd  Pd2       1.0  0.72500  0.58500  0.00405  1.0000
  Pd  Pd3       1.0  0.50000  0.50000  0.32400  1.0000
  Pd  Pd4       1.0  0.36800  0.12900  0.33800  1.0000
  Pd  Pd5       1.0  0.63200  0.87100  0.33800  1.0000
  Pd  Pd6       1.0  0.08400  0.31100  0.34900  1.0000
  Pd  Pd7       1.0  0.91600  0.68900  0.34900  1.0000
  Pd  Pd8       1.0  0.58400  0.18900  0.65100  1.0000
  Pd  Pd9       1.0  0.41600  0.81100  0.65100  1.0000
  Pd  Pd10      1.0  0.86800  0.37100  0.66200  1.0000
  Pd  Pd11      1.0  0.13200  0.62900  0.66200  1.0000
  Pd  Pd12      1.0  0.00000  0.00000  0.67600  1.0000
  Pd  Pd13      1.0  0.77500  0.08500  0.99600  1.0000
  Pd  Pd14      1.0  0.22500  0.91500  0.99600  1.0000
  Se  Se1       1.0  0.50000  0.00000  0.00167  1.0000
  Se  Se2       1.0  0.00000  0.00000  0.17000  1.0000
  Se  Se3       1.0  0.72100  0.32400  0.31700  1.0000
  Se  Se4       1.0  0.27900  0.67600  0.31700  1.0000
  Se  Se5       1.0  0.22100  0.17600  0.68300  1.0000
  Se  Se6       1.0  0.77900  0.82400  0.68300  1.0000
  Se  Se7       1.0  0.50000  0.50000  0.83000  1.0000
  Se  Se8       1.0  0.00000  0.50000  0.99800  1.0000
