data_image0
_chemical_formula_structural       Br12Pb2Rb8
_chemical_formula_sum              "Br12 Pb2 Rb8"
_cell_length_a       9.54357
_cell_length_b       9.54357
_cell_length_c       9.54357
_cell_angle_alpha    90.3822
_cell_angle_beta     89.6178
_cell_angle_gamma    90.3822

_space_group_name_H-M_alt    "P 1"
_space_group_IT_number       1

loop_
  _space_group_symop_operation_xyz
  'x, y, z'

loop_
  _atom_site_type_symbol
  _atom_site_label
  _atom_site_symmetry_multiplicity
  _atom_site_fract_x
  _atom_site_fract_y
  _atom_site_fract_z
  _atom_site_occupancy
  Br  Br1       1.0  0.92700  0.30400  0.05890  1.0000
  Br  Br2       1.0  0.30400  0.05890  0.07300  1.0000
  Br  Br3       1.0  0.42700  0.44100  0.19600  1.0000
  Br  Br4       1.0  0.94100  0.92700  0.30400  1.0000
  Br  Br5       1.0  0.55900  0.80400  0.42700  1.0000
  Br  Br6       1.0  0.80400  0.42700  0.44100  1.0000
  Br  Br7       1.0  0.19600  0.57300  0.55900  1.0000
  Br  Br8       1.0  0.44100  0.19600  0.57300  1.0000
  Br  Br9       1.0  0.05890  0.07300  0.69600  1.0000
  Br  Br10      1.0  0.57300  0.55900  0.80400  1.0000
  Br  Br11      1.0  0.69600  0.94100  0.92700  1.0000
  Br  Br12      1.0  0.07300  0.69600  0.94100  1.0000
  Pb  Pb1       1.0  0.00000  0.00000  0.00000  1.0000
  Pb  Pb2       1.0  0.50000  0.50000  0.50000  1.0000
  Rb  Rb1       1.0  0.75000  0.62900  0.12900  1.0000
  Rb  Rb2       1.0  0.62900  0.12900  0.25000  1.0000
  Rb  Rb3       1.0  0.25000  0.75000  0.25000  1.0000
  Rb  Rb4       1.0  0.12900  0.25000  0.37100  1.0000
  Rb  Rb5       1.0  0.87100  0.75000  0.62900  1.0000
  Rb  Rb6       1.0  0.37100  0.87100  0.75000  1.0000
  Rb  Rb7       1.0  0.75000  0.25000  0.75000  1.0000
  Rb  Rb8       1.0  0.25000  0.37100  0.87100  1.0000
