data_image0
_chemical_formula_structural       Mn8Si10Ti4
_chemical_formula_sum              "Mn8 Si10 Ti4"
_cell_length_a       4.81499
_cell_length_b       7.27141
_cell_length_c       9.25829
_cell_angle_alpha    113.122
_cell_angle_beta     105.072
_cell_angle_gamma    90

_space_group_name_H-M_alt    "P 1"
_space_group_IT_number       1

loop_
  _space_group_symop_operation_xyz
  'x, y, z'

loop_
  _atom_site_type_symbol
  _atom_site_label
  _atom_site_symmetry_multiplicity
  _atom_site_fract_x
  _atom_site_fract_y
  _atom_site_fract_z
  _atom_site_occupancy
  Mn  Mn1       1.0  0.06300  0.31700  0.12600  1.0000
  Mn  Mn2       1.0  0.56300  0.80900  0.12600  1.0000
  Mn  Mn3       1.0  0.15400  0.02510  0.30700  1.0000
  Mn  Mn4       1.0  0.65400  0.28200  0.30700  1.0000
  Mn  Mn5       1.0  0.34600  0.71800  0.69300  1.0000
  Mn  Mn6       1.0  0.84600  0.97500  0.69300  1.0000
  Mn  Mn7       1.0  0.43700  0.19100  0.87400  1.0000
  Mn  Mn8       1.0  0.93700  0.68300  0.87400  1.0000
  Si  Si1       1.0  0.25000  0.00000  0.00000  1.0000
  Si  Si2       1.0  0.75000  0.00000  0.00000  1.0000
  Si  Si3       1.0  0.56000  0.45900  0.12000  1.0000
  Si  Si4       1.0  0.05980  0.66000  0.12000  1.0000
  Si  Si5       1.0  0.70400  0.01370  0.40700  1.0000
  Si  Si6       1.0  0.20400  0.39400  0.40700  1.0000
  Si  Si7       1.0  0.79600  0.60600  0.59300  1.0000
  Si  Si8       1.0  0.29600  0.98600  0.59300  1.0000
  Si  Si9       1.0  0.94000  0.34000  0.88000  1.0000
  Si  Si10      1.0  0.44000  0.54100  0.88000  1.0000
  Ti  Ti1       1.0  0.43900  0.68900  0.37700  1.0000
  Ti  Ti2       1.0  0.93900  0.68900  0.37700  1.0000
  Ti  Ti3       1.0  0.06130  0.31100  0.62300  1.0000
  Ti  Ti4       1.0  0.56100  0.31100  0.62300  1.0000
