data_image0
_chemical_formula_structural       B6Ba2Li2S12
_chemical_formula_sum              "B6 Ba2 Li2 S12"
_cell_length_a       8.40755
_cell_length_b       8.82912
_cell_length_c       8.82912
_cell_angle_alpha    60.6286
_cell_angle_beta     113.757
_cell_angle_gamma    113.757

_space_group_name_H-M_alt    "P 1"
_space_group_IT_number       1

loop_
  _space_group_symop_operation_xyz
  'x, y, z'

loop_
  _atom_site_type_symbol
  _atom_site_label
  _atom_site_symmetry_multiplicity
  _atom_site_fract_x
  _atom_site_fract_y
  _atom_site_fract_z
  _atom_site_occupancy
  B   B1        1.0  0.05210  0.02020  0.01720  1.0000
  B   B2        1.0  0.55200  0.01720  0.02020  1.0000
  B   B3        1.0  0.47600  0.61400  0.24400  1.0000
  B   B4        1.0  0.97600  0.24400  0.61400  1.0000
  B   B5        1.0  0.95000  0.84100  0.75600  1.0000
  B   B6        1.0  0.45000  0.75600  0.84100  1.0000
  Ba  Ba1       1.0  0.02660  0.38000  0.13800  1.0000
  Ba  Ba2       1.0  0.52700  0.13800  0.38000  1.0000
  Li  Li1       1.0  0.07100  0.70400  0.50200  1.0000
  Li  Li2       1.0  0.57100  0.50200  0.70400  1.0000
  S   S1        1.0  0.59800  0.24000  0.00639  1.0000
  S   S2        1.0  0.43500  0.56000  0.05340  1.0000
  S   S3        1.0  0.09850  0.00639  0.24000  1.0000
  S   S4        1.0  0.55900  0.83900  0.24500  1.0000
  S   S5        1.0  0.92100  0.43700  0.42100  1.0000
  S   S6        1.0  0.42100  0.42100  0.43700  1.0000
  S   S7        1.0  0.93500  0.05340  0.56000  1.0000
  S   S8        1.0  0.41200  0.72100  0.64600  1.0000
  S   S9        1.0  0.91200  0.64600  0.72100  1.0000
  S   S10       1.0  0.49400  0.98700  0.81200  1.0000
  S   S11       1.0  0.05940  0.24500  0.83900  1.0000
  S   S12       1.0  0.99400  0.81200  0.98700  1.0000
