data_image0
_chemical_formula_structural       K2Li8Nb2O10
_chemical_formula_sum              "K2 Li8 Nb2 O10"
_cell_length_a       8.16863
_cell_length_b       5.92023
_cell_length_c       5.89637
_cell_angle_alpha    121.162
_cell_angle_beta     91.5081
_cell_angle_gamma    99.3677

_space_group_name_H-M_alt    "P 1"
_space_group_IT_number       1

loop_
  _space_group_symop_operation_xyz
  'x, y, z'

loop_
  _atom_site_type_symbol
  _atom_site_label
  _atom_site_symmetry_multiplicity
  _atom_site_fract_x
  _atom_site_fract_y
  _atom_site_fract_z
  _atom_site_occupancy
  K   K1        1.0  0.58600  0.38900  0.14500  1.0000
  K   K2        1.0  0.41400  0.61100  0.85500  1.0000
  Li  Li1       1.0  0.08950  0.60300  0.20600  1.0000
  Li  Li2       1.0  0.89100  0.90900  0.30800  1.0000
  Li  Li3       1.0  0.87800  0.34100  0.34100  1.0000
  Li  Li4       1.0  0.60700  0.11500  0.44800  1.0000
  Li  Li5       1.0  0.39300  0.88500  0.55200  1.0000
  Li  Li6       1.0  0.12200  0.65900  0.65900  1.0000
  Li  Li7       1.0  0.10900  0.09080  0.69200  1.0000
  Li  Li8       1.0  0.91100  0.39700  0.79400  1.0000
  Nb  Nb1       1.0  0.19800  0.14500  0.20300  1.0000
  Nb  Nb2       1.0  0.80200  0.85500  0.79700  1.0000
  O   O1        1.0  0.02800  0.77800  0.01180  1.0000
  O   O2        1.0  0.71600  0.97800  0.14000  1.0000
  O   O3        1.0  0.28200  0.52400  0.33600  1.0000
  O   O4        1.0  0.36500  0.06960  0.36700  1.0000
  O   O5        1.0  0.94900  0.73800  0.49300  1.0000
  O   O6        1.0  0.05120  0.26200  0.50700  1.0000
  O   O7        1.0  0.63500  0.93000  0.63300  1.0000
  O   O8        1.0  0.71800  0.47600  0.66400  1.0000
  O   O9        1.0  0.28400  0.02250  0.86000  1.0000
  O   O10       1.0  0.97200  0.22200  0.98800  1.0000
