data_image0
_chemical_formula_structural       K4O12Si4Zn2
_chemical_formula_sum              "K4 O12 Si4 Zn2"
_cell_length_a       5.69038
_cell_length_b       5.69038
_cell_length_c       10.4492
_cell_angle_alpha    90
_cell_angle_beta     90
_cell_angle_gamma    113.852

_space_group_name_H-M_alt    "P 1"
_space_group_IT_number       1

loop_
  _space_group_symop_operation_xyz
  'x, y, z'

loop_
  _atom_site_type_symbol
  _atom_site_label
  _atom_site_symmetry_multiplicity
  _atom_site_fract_x
  _atom_site_fract_y
  _atom_site_fract_z
  _atom_site_occupancy
  K   K1        1.0  0.28700  0.94200  0.07520  1.0000
  K   K2        1.0  0.05760  0.71300  0.42500  1.0000
  K   K3        1.0  0.71300  0.05760  0.57500  1.0000
  K   K4        1.0  0.94200  0.28700  0.92500  1.0000
  O   O1        1.0  0.50700  0.50700  0.00000  1.0000
  O   O2        1.0  0.78400  0.94400  0.11900  1.0000
  O   O3        1.0  0.88500  0.52400  0.16300  1.0000
  O   O4        1.0  0.45000  0.55000  0.25000  1.0000
  O   O5        1.0  0.47600  0.11500  0.33700  1.0000
  O   O6        1.0  0.05590  0.21600  0.38100  1.0000
  O   O7        1.0  0.49300  0.49300  0.50000  1.0000
  O   O8        1.0  0.21600  0.05590  0.61900  1.0000
  O   O9        1.0  0.11500  0.47600  0.66300  1.0000
  O   O10       1.0  0.55000  0.45000  0.75000  1.0000
  O   O11       1.0  0.52400  0.88500  0.83700  1.0000
  O   O12       1.0  0.94400  0.78400  0.88100  1.0000
  Si  Si1       1.0  0.67000  0.63500  0.13600  1.0000
  Si  Si2       1.0  0.36500  0.33000  0.36400  1.0000
  Si  Si3       1.0  0.33000  0.36500  0.63600  1.0000
  Si  Si4       1.0  0.63500  0.67000  0.86400  1.0000
  Zn  Zn1       1.0  0.80700  0.19300  0.25000  1.0000
  Zn  Zn2       1.0  0.19300  0.80700  0.75000  1.0000
