data_image0
_chemical_formula_structural       B2Rh12Sn8
_chemical_formula_sum              "B2 Rh12 Sn8"
_cell_length_a       5.66166
_cell_length_b       5.66178
_cell_length_c       13.8673
_cell_angle_alpha    90
_cell_angle_beta     90
_cell_angle_gamma    119.999

_space_group_name_H-M_alt    "P 1"
_space_group_IT_number       1

loop_
  _space_group_symop_operation_xyz
  'x, y, z'

loop_
  _atom_site_type_symbol
  _atom_site_label
  _atom_site_symmetry_multiplicity
  _atom_site_fract_x
  _atom_site_fract_y
  _atom_site_fract_z
  _atom_site_occupancy
  B   B1        1.0  0.00000  0.00000  0.00000  1.0000
  B   B2        1.0  0.00000  0.00000  0.50000  1.0000
  Rh  Rh1       1.0  0.83200  0.66400  0.09340  1.0000
  Rh  Rh2       1.0  0.33600  0.16800  0.09340  1.0000
  Rh  Rh3       1.0  0.83200  0.16800  0.09340  1.0000
  Rh  Rh4       1.0  0.33600  0.16800  0.40700  1.0000
  Rh  Rh5       1.0  0.83200  0.16800  0.40700  1.0000
  Rh  Rh6       1.0  0.83200  0.66400  0.40700  1.0000
  Rh  Rh7       1.0  0.16800  0.33600  0.59300  1.0000
  Rh  Rh8       1.0  0.16800  0.83200  0.59300  1.0000
  Rh  Rh9       1.0  0.66400  0.83200  0.59300  1.0000
  Rh  Rh10      1.0  0.16800  0.83200  0.90700  1.0000
  Rh  Rh11      1.0  0.66400  0.83200  0.90700  1.0000
  Rh  Rh12      1.0  0.16800  0.33600  0.90700  1.0000
  Sn  Sn1       1.0  0.33300  0.66700  0.07680  1.0000
  Sn  Sn2       1.0  0.00000  0.00000  0.25000  1.0000
  Sn  Sn3       1.0  0.66700  0.33300  0.25000  1.0000
  Sn  Sn4       1.0  0.33300  0.66700  0.42300  1.0000
  Sn  Sn5       1.0  0.66700  0.33300  0.57700  1.0000
  Sn  Sn6       1.0  0.00000  0.00000  0.75000  1.0000
  Sn  Sn7       1.0  0.33300  0.66700  0.75000  1.0000
  Sn  Sn8       1.0  0.66700  0.33300  0.92300  1.0000
