data_image0
_chemical_formula_structural       Cl6La8N2S6
_chemical_formula_sum              "Cl6 La8 N2 S6"
_cell_length_a       9.46203
_cell_length_b       9.46183
_cell_length_c       7.01927
_cell_angle_alpha    90
_cell_angle_beta     90
_cell_angle_gamma    120.001

_space_group_name_H-M_alt    "P 1"
_space_group_IT_number       1

loop_
  _space_group_symop_operation_xyz
  'x, y, z'

loop_
  _atom_site_type_symbol
  _atom_site_label
  _atom_site_symmetry_multiplicity
  _atom_site_fract_x
  _atom_site_fract_y
  _atom_site_fract_z
  _atom_site_occupancy
  Cl  Cl1       1.0  0.26400  0.13200  0.14300  1.0000
  Cl  Cl2       1.0  0.86800  0.13200  0.14300  1.0000
  Cl  Cl3       1.0  0.86800  0.73600  0.14300  1.0000
  Cl  Cl4       1.0  0.13200  0.86800  0.64300  1.0000
  Cl  Cl5       1.0  0.73600  0.86800  0.64300  1.0000
  Cl  Cl6       1.0  0.13200  0.26400  0.64300  1.0000
  La  La1       1.0  0.66700  0.33300  0.21100  1.0000
  La  La2       1.0  0.20100  0.40300  0.25100  1.0000
  La  La3       1.0  0.20100  0.79900  0.25100  1.0000
  La  La4       1.0  0.59700  0.79900  0.25100  1.0000
  La  La5       1.0  0.33300  0.66700  0.71100  1.0000
  La  La6       1.0  0.79900  0.59700  0.75100  1.0000
  La  La7       1.0  0.40300  0.20100  0.75100  1.0000
  La  La8       1.0  0.79900  0.20100  0.75100  1.0000
  N   N1        1.0  0.33300  0.66700  0.36500  1.0000
  N   N2        1.0  0.66700  0.33300  0.86500  1.0000
  S   S1        1.0  0.53200  0.06370  0.47100  1.0000
  S   S2        1.0  0.53200  0.46800  0.47100  1.0000
  S   S3        1.0  0.93600  0.46800  0.47100  1.0000
  S   S4        1.0  0.46800  0.93600  0.97100  1.0000
  S   S5        1.0  0.06370  0.53200  0.97100  1.0000
  S   S6        1.0  0.46800  0.53200  0.97100  1.0000
