data_image0
_chemical_formula_structural       Fe2Na12S8
_chemical_formula_sum              "Fe2 Na12 S8"
_cell_length_a       8.91182
_cell_length_b       8.91432
_cell_length_c       6.88767
_cell_angle_alpha    90
_cell_angle_beta     90
_cell_angle_gamma    119.991

_space_group_name_H-M_alt    "P 1"
_space_group_IT_number       1

loop_
  _space_group_symop_operation_xyz
  'x, y, z'

loop_
  _atom_site_type_symbol
  _atom_site_label
  _atom_site_symmetry_multiplicity
  _atom_site_fract_x
  _atom_site_fract_y
  _atom_site_fract_z
  _atom_site_occupancy
  Fe  Fe1       1.0  0.33300  0.66700  0.25100  1.0000
  Fe  Fe2       1.0  0.66700  0.33300  0.75100  1.0000
  Na  Na1       1.0  0.29300  0.14600  0.04160  1.0000
  Na  Na2       1.0  0.85400  0.14600  0.04160  1.0000
  Na  Na3       1.0  0.85400  0.70700  0.04160  1.0000
  Na  Na4       1.0  0.53100  0.06270  0.36800  1.0000
  Na  Na5       1.0  0.53100  0.46900  0.36800  1.0000
  Na  Na6       1.0  0.93700  0.46900  0.36800  1.0000
  Na  Na7       1.0  0.14600  0.85400  0.54200  1.0000
  Na  Na8       1.0  0.70700  0.85400  0.54200  1.0000
  Na  Na9       1.0  0.14600  0.29300  0.54200  1.0000
  Na  Na10      1.0  0.46900  0.93700  0.86800  1.0000
  Na  Na11      1.0  0.06260  0.53100  0.86800  1.0000
  Na  Na12      1.0  0.46900  0.53100  0.86800  1.0000
  S   S1        1.0  0.66700  0.33300  0.09250  1.0000
  S   S2        1.0  0.18900  0.81100  0.14500  1.0000
  S   S3        1.0  0.62300  0.81100  0.14500  1.0000
  S   S4        1.0  0.18900  0.37700  0.14500  1.0000
  S   S5        1.0  0.33300  0.66700  0.59300  1.0000
  S   S6        1.0  0.37700  0.18900  0.64500  1.0000
  S   S7        1.0  0.81100  0.18900  0.64500  1.0000
  S   S8        1.0  0.81100  0.62300  0.64500  1.0000
