data_image0
_chemical_formula_structural       Cd2Ir2O12Sr6
_chemical_formula_sum              "Cd2 Ir2 O12 Sr6"
_cell_length_a       6.78323
_cell_length_b       6.78323
_cell_length_c       6.78323
_cell_angle_alpha    90.0807
_cell_angle_beta     90.0807
_cell_angle_gamma    90.0807

_space_group_name_H-M_alt    "P 1"
_space_group_IT_number       1

loop_
  _space_group_symop_operation_xyz
  'x, y, z'

loop_
  _atom_site_type_symbol
  _atom_site_label
  _atom_site_symmetry_multiplicity
  _atom_site_fract_x
  _atom_site_fract_y
  _atom_site_fract_z
  _atom_site_occupancy
  Cd  Cd1       1.0  0.25000  0.25000  0.25000  1.0000
  Cd  Cd2       1.0  0.75000  0.75000  0.75000  1.0000
  Ir  Ir1       1.0  0.00000  0.00000  0.00000  1.0000
  Ir  Ir2       1.0  0.50000  0.50000  0.50000  1.0000
  O   O1        1.0  0.71500  0.91600  0.05230  1.0000
  O   O2        1.0  0.94800  0.28500  0.08360  1.0000
  O   O3        1.0  0.55200  0.41600  0.21500  1.0000
  O   O4        1.0  0.08360  0.94800  0.28500  1.0000
  O   O5        1.0  0.21500  0.55200  0.41600  1.0000
  O   O6        1.0  0.58400  0.78500  0.44800  1.0000
  O   O7        1.0  0.41600  0.21500  0.55200  1.0000
  O   O8        1.0  0.78500  0.44800  0.58400  1.0000
  O   O9        1.0  0.91600  0.05230  0.71500  1.0000
  O   O10       1.0  0.44800  0.58400  0.78500  1.0000
  O   O11       1.0  0.05230  0.71500  0.91600  1.0000
  O   O12       1.0  0.28500  0.08360  0.94800  1.0000
  Sr  Sr1       1.0  0.38800  0.75000  0.11200  1.0000
  Sr  Sr2       1.0  0.88800  0.61200  0.25000  1.0000
  Sr  Sr3       1.0  0.75000  0.11200  0.38800  1.0000
  Sr  Sr4       1.0  0.25000  0.88800  0.61200  1.0000
  Sr  Sr5       1.0  0.11200  0.38800  0.75000  1.0000
  Sr  Sr6       1.0  0.61200  0.25000  0.88800  1.0000
