data_image0
_chemical_formula_structural       Na2NiO14P4Zr
_chemical_formula_sum              "Na2 Ni1 O14 P4 Zr1"
_cell_length_a       6.47669
_cell_length_b       7.20687
_cell_length_c       6.58884
_cell_angle_alpha    123.737
_cell_angle_beta     93.7152
_cell_angle_gamma    93.3971

_space_group_name_H-M_alt    "P 1"
_space_group_IT_number       1

loop_
  _space_group_symop_operation_xyz
  'x, y, z'

loop_
  _atom_site_type_symbol
  _atom_site_label
  _atom_site_symmetry_multiplicity
  _atom_site_fract_x
  _atom_site_fract_y
  _atom_site_fract_z
  _atom_site_occupancy
  Na  Na1       1.0  0.51200  0.40100  0.35100  1.0000
  Na  Na2       1.0  0.25900  0.83100  0.40400  1.0000
  Ni  Ni1       1.0  0.70000  0.20900  0.76300  1.0000
  O   O1        1.0  0.33200  0.01660  0.07980  1.0000
  O   O2        1.0  0.75100  0.50200  0.11600  1.0000
  O   O3        1.0  0.30100  0.47600  0.12900  1.0000
  O   O4        1.0  0.94100  0.85600  0.18200  1.0000
  O   O5        1.0  0.05270  0.32500  0.34600  1.0000
  O   O6        1.0  0.66200  0.89400  0.45000  1.0000
  O   O7        1.0  0.76100  0.36400  0.59500  1.0000
  O   O8        1.0  0.40800  0.72700  0.64600  1.0000
  O   O9        1.0  0.96200  0.71200  0.66800  1.0000
  O   O10       1.0  0.38600  0.20100  0.69000  1.0000
  O   O11       1.0  0.13900  0.49700  0.79600  1.0000
  O   O12       1.0  0.02980  0.16000  0.80100  1.0000
  O   O13       1.0  0.68600  0.04900  0.96800  1.0000
  O   O14       1.0  0.56800  0.72400  0.99800  1.0000
  P   P1        1.0  0.73600  0.74300  0.20400  1.0000
  P   P2        1.0  0.96800  0.47000  0.59300  1.0000
  P   P3        1.0  0.22800  0.33100  0.86300  1.0000
  P   P4        1.0  0.49500  0.87600  0.90800  1.0000
  Zr  Zr1       1.0  0.01480  0.02100  0.01520  1.0000
