data_image0
_chemical_formula_structural       Ca8Ir2O12
_chemical_formula_sum              "Ca8 Ir2 O12"
_cell_length_a       6.52652
_cell_length_b       6.52652
_cell_length_c       6.52652
_cell_angle_alpha    90.7165
_cell_angle_beta     90.7165
_cell_angle_gamma    90.7165

_space_group_name_H-M_alt    "P 1"
_space_group_IT_number       1

loop_
  _space_group_symop_operation_xyz
  'x, y, z'

loop_
  _atom_site_type_symbol
  _atom_site_label
  _atom_site_symmetry_multiplicity
  _atom_site_fract_x
  _atom_site_fract_y
  _atom_site_fract_z
  _atom_site_occupancy
  Ca  Ca1       1.0  0.38700  0.75000  0.11300  1.0000
  Ca  Ca2       1.0  0.88700  0.61300  0.25000  1.0000
  Ca  Ca3       1.0  0.25000  0.25000  0.25000  1.0000
  Ca  Ca4       1.0  0.75000  0.11300  0.38700  1.0000
  Ca  Ca5       1.0  0.25000  0.88700  0.61300  1.0000
  Ca  Ca6       1.0  0.11300  0.38700  0.75000  1.0000
  Ca  Ca7       1.0  0.75000  0.75000  0.75000  1.0000
  Ca  Ca8       1.0  0.61300  0.25000  0.88700  1.0000
  Ir  Ir1       1.0  0.00000  0.00000  0.00000  1.0000
  Ir  Ir2       1.0  0.50000  0.50000  0.50000  1.0000
  O   O1        1.0  0.70200  0.92700  0.05650  1.0000
  O   O2        1.0  0.94400  0.29800  0.07310  1.0000
  O   O3        1.0  0.55600  0.42700  0.20200  1.0000
  O   O4        1.0  0.07310  0.94400  0.29800  1.0000
  O   O5        1.0  0.20200  0.55600  0.42700  1.0000
  O   O6        1.0  0.57300  0.79800  0.44400  1.0000
  O   O7        1.0  0.42700  0.20200  0.55600  1.0000
  O   O8        1.0  0.79800  0.44400  0.57300  1.0000
  O   O9        1.0  0.92700  0.05650  0.70200  1.0000
  O   O10       1.0  0.44400  0.57300  0.79800  1.0000
  O   O11       1.0  0.05650  0.70200  0.92700  1.0000
  O   O12       1.0  0.29800  0.07310  0.94400  1.0000
