data_image0
_chemical_formula_structural       Lu4O14Sn4
_chemical_formula_sum              "Lu4 O14 Sn4"
_cell_length_a       7.26822
_cell_length_b       7.26822
_cell_length_c       7.26822
_cell_angle_alpha    120
_cell_angle_beta     90
_cell_angle_gamma    120

_space_group_name_H-M_alt    "P 1"
_space_group_IT_number       1

loop_
  _space_group_symop_operation_xyz
  'x, y, z'

loop_
  _atom_site_type_symbol
  _atom_site_label
  _atom_site_symmetry_multiplicity
  _atom_site_fract_x
  _atom_site_fract_y
  _atom_site_fract_z
  _atom_site_occupancy
  Lu  Lu1       1.0  0.00000  0.50000  0.00000  1.0000
  Lu  Lu2       1.0  0.00000  0.00000  0.50000  1.0000
  Lu  Lu3       1.0  0.00000  0.50000  0.50000  1.0000
  Lu  Lu4       1.0  0.50000  0.00000  0.50000  1.0000
  O   O1        1.0  0.84300  0.18700  0.09330  1.0000
  O   O2        1.0  0.40700  0.75000  0.09330  1.0000
  O   O3        1.0  0.84300  0.75000  0.09330  1.0000
  O   O4        1.0  0.59300  0.25000  0.34300  1.0000
  O   O5        1.0  0.59300  0.68700  0.34300  1.0000
  O   O6        1.0  0.15700  0.25000  0.34300  1.0000
  O   O7        1.0  0.12500  0.75000  0.37500  1.0000
  O   O8        1.0  0.87500  0.25000  0.62500  1.0000
  O   O9        1.0  0.40700  0.75000  0.65700  1.0000
  O   O10       1.0  0.84300  0.75000  0.65700  1.0000
  O   O11       1.0  0.40700  0.31300  0.65700  1.0000
  O   O12       1.0  0.15700  0.25000  0.90700  1.0000
  O   O13       1.0  0.59300  0.25000  0.90700  1.0000
  O   O14       1.0  0.15700  0.81300  0.90700  1.0000
  Sn  Sn1       1.0  0.00000  0.00000  0.00000  1.0000
  Sn  Sn2       1.0  0.50000  0.00000  0.00000  1.0000
  Sn  Sn3       1.0  0.50000  0.50000  0.00000  1.0000
  Sn  Sn4       1.0  0.50000  0.50000  0.50000  1.0000
