data_image0
_chemical_formula_structural       BaCu5La4O12
_chemical_formula_sum              "Ba1 Cu5 La4 O12"
_cell_length_a       8.67782
_cell_length_b       3.81179
_cell_length_c       8.62509
_cell_angle_alpha    90
_cell_angle_beta     89.7878
_cell_angle_gamma    90

_space_group_name_H-M_alt    "P 1"
_space_group_IT_number       1

loop_
  _space_group_symop_operation_xyz
  'x, y, z'

loop_
  _atom_site_type_symbol
  _atom_site_label
  _atom_site_symmetry_multiplicity
  _atom_site_fract_x
  _atom_site_fract_y
  _atom_site_fract_z
  _atom_site_occupancy
  Ba  Ba1       1.0  0.50000  0.50000  0.50000  1.0000
  Cu  Cu1       1.0  0.00000  0.00000  0.00000  1.0000
  Cu  Cu2       1.0  0.40600  0.00000  0.16900  1.0000
  Cu  Cu3       1.0  0.82900  0.00000  0.40600  1.0000
  Cu  Cu4       1.0  0.17100  0.00000  0.59400  1.0000
  Cu  Cu5       1.0  0.59400  0.00000  0.83100  1.0000
  La  La1       1.0  0.70400  0.50000  0.12400  1.0000
  La  La2       1.0  0.12600  0.50000  0.29600  1.0000
  La  La3       1.0  0.87400  0.50000  0.70400  1.0000
  La  La4       1.0  0.29600  0.50000  0.87600  1.0000
  O   O1        1.0  0.21000  0.00000  0.06030  1.0000
  O   O2        1.0  0.41200  0.50000  0.14900  1.0000
  O   O3        1.0  0.94200  0.00000  0.21200  1.0000
  O   O4        1.0  0.60600  0.00000  0.26500  1.0000
  O   O5        1.0  0.26800  0.00000  0.39400  1.0000
  O   O6        1.0  0.85000  0.50000  0.41300  1.0000
  O   O7        1.0  0.15000  0.50000  0.58700  1.0000
  O   O8        1.0  0.73200  0.00000  0.60600  1.0000
  O   O9        1.0  0.39400  0.00000  0.73500  1.0000
  O   O10       1.0  0.05830  0.00000  0.78800  1.0000
  O   O11       1.0  0.58800  0.50000  0.85100  1.0000
  O   O12       1.0  0.79000  0.00000  0.94000  1.0000
