data_image0
_chemical_formula_structural       La6O14Ru2
_chemical_formula_sum              "La6 O14 Ru2"
_cell_length_a       6.69437
_cell_length_b       6.69437
_cell_length_c       7.60755
_cell_angle_alpha    90
_cell_angle_beta     90
_cell_angle_gamma    67.0329

_space_group_name_H-M_alt    "P 1"
_space_group_IT_number       1

loop_
  _space_group_symop_operation_xyz
  'x, y, z'

loop_
  _atom_site_type_symbol
  _atom_site_label
  _atom_site_symmetry_multiplicity
  _atom_site_fract_x
  _atom_site_fract_y
  _atom_site_fract_z
  _atom_site_occupancy
  La  La1       1.0  0.00000  0.00000  0.00000  1.0000
  La  La2       1.0  0.46200  0.09800  0.25000  1.0000
  La  La3       1.0  0.90200  0.53800  0.25000  1.0000
  La  La4       1.0  0.00000  0.00000  0.50000  1.0000
  La  La5       1.0  0.09800  0.46200  0.75000  1.0000
  La  La6       1.0  0.53800  0.90200  0.75000  1.0000
  O   O1        1.0  0.19100  0.55800  0.04400  1.0000
  O   O2        1.0  0.44200  0.80900  0.04400  1.0000
  O   O3        1.0  0.09640  0.16300  0.25000  1.0000
  O   O4        1.0  0.58400  0.41600  0.25000  1.0000
  O   O5        1.0  0.83700  0.90400  0.25000  1.0000
  O   O6        1.0  0.19100  0.55800  0.45600  1.0000
  O   O7        1.0  0.44200  0.80900  0.45600  1.0000
  O   O8        1.0  0.55800  0.19100  0.54400  1.0000
  O   O9        1.0  0.80900  0.44200  0.54400  1.0000
  O   O10       1.0  0.16300  0.09640  0.75000  1.0000
  O   O11       1.0  0.41600  0.58400  0.75000  1.0000
  O   O12       1.0  0.90400  0.83700  0.75000  1.0000
  O   O13       1.0  0.55800  0.19100  0.95600  1.0000
  O   O14       1.0  0.80900  0.44200  0.95600  1.0000
  Ru  Ru1       1.0  0.50000  0.50000  0.00000  1.0000
  Ru  Ru2       1.0  0.50000  0.50000  0.50000  1.0000
