data_image0
_chemical_formula_structural       O14Pr6Ta2
_chemical_formula_sum              "O14 Pr6 Ta2"
_cell_length_a       6.66668
_cell_length_b       6.66668
_cell_length_c       7.6913
_cell_angle_alpha    90
_cell_angle_beta     90
_cell_angle_gamma    68.3153

_space_group_name_H-M_alt    "P 1"
_space_group_IT_number       1

loop_
  _space_group_symop_operation_xyz
  'x, y, z'

loop_
  _atom_site_type_symbol
  _atom_site_label
  _atom_site_symmetry_multiplicity
  _atom_site_fract_x
  _atom_site_fract_y
  _atom_site_fract_z
  _atom_site_occupancy
  O   O1        1.0  0.18700  0.56100  0.03730  1.0000
  O   O2        1.0  0.43900  0.81300  0.03730  1.0000
  O   O3        1.0  0.10500  0.15600  0.25000  1.0000
  O   O4        1.0  0.57200  0.42800  0.25000  1.0000
  O   O5        1.0  0.84400  0.89500  0.25000  1.0000
  O   O6        1.0  0.18700  0.56100  0.46300  1.0000
  O   O7        1.0  0.43900  0.81300  0.46300  1.0000
  O   O8        1.0  0.56100  0.18700  0.53700  1.0000
  O   O9        1.0  0.81300  0.43900  0.53700  1.0000
  O   O10       1.0  0.15600  0.10500  0.75000  1.0000
  O   O11       1.0  0.42800  0.57200  0.75000  1.0000
  O   O12       1.0  0.89500  0.84400  0.75000  1.0000
  O   O13       1.0  0.56100  0.18700  0.96300  1.0000
  O   O14       1.0  0.81300  0.43900  0.96300  1.0000
  Pr  Pr1       1.0  0.00000  0.00000  0.00000  1.0000
  Pr  Pr2       1.0  0.47400  0.07560  0.25000  1.0000
  Pr  Pr3       1.0  0.92400  0.52600  0.25000  1.0000
  Pr  Pr4       1.0  0.00000  0.00000  0.50000  1.0000
  Pr  Pr5       1.0  0.07560  0.47400  0.75000  1.0000
  Pr  Pr6       1.0  0.52600  0.92400  0.75000  1.0000
  Ta  Ta1       1.0  0.50000  0.50000  0.00000  1.0000
  Ta  Ta2       1.0  0.50000  0.50000  0.50000  1.0000
