data_image0
_chemical_formula_structural       Mo8O12Sn2
_chemical_formula_sum              "Mo8 O12 Sn2"
_cell_length_a       9.68241
_cell_length_b       9.68241
_cell_length_c       2.84115
_cell_angle_alpha    90
_cell_angle_beta     90
_cell_angle_gamma    90

_space_group_name_H-M_alt    "P 1"
_space_group_IT_number       1

loop_
  _space_group_symop_operation_xyz
  'x, y, z'

loop_
  _atom_site_type_symbol
  _atom_site_label
  _atom_site_symmetry_multiplicity
  _atom_site_fract_x
  _atom_site_fract_y
  _atom_site_fract_z
  _atom_site_occupancy
  Mo  Mo1       1.0  0.39900  0.10100  0.00000  1.0000
  Mo  Mo2       1.0  0.89900  0.39900  0.00000  1.0000
  Mo  Mo3       1.0  0.10100  0.60100  0.00000  1.0000
  Mo  Mo4       1.0  0.60100  0.89900  0.00000  1.0000
  Mo  Mo5       1.0  0.64300  0.14300  0.50000  1.0000
  Mo  Mo6       1.0  0.14300  0.35700  0.50000  1.0000
  Mo  Mo7       1.0  0.85700  0.64300  0.50000  1.0000
  Mo  Mo8       1.0  0.35700  0.85700  0.50000  1.0000
  O   O1        1.0  0.76300  0.04060  0.00000  1.0000
  O   O2        1.0  0.04060  0.23700  0.00000  1.0000
  O   O3        1.0  0.54100  0.26300  0.00000  1.0000
  O   O4        1.0  0.26300  0.45900  0.00000  1.0000
  O   O5        1.0  0.73700  0.54100  0.00000  1.0000
  O   O6        1.0  0.45900  0.73700  0.00000  1.0000
  O   O7        1.0  0.95900  0.76300  0.00000  1.0000
  O   O8        1.0  0.23700  0.95900  0.00000  1.0000
  O   O9        1.0  0.29200  0.20800  0.50000  1.0000
  O   O10       1.0  0.79200  0.29200  0.50000  1.0000
  O   O11       1.0  0.20800  0.70800  0.50000  1.0000
  O   O12       1.0  0.70800  0.79200  0.50000  1.0000
  Sn  Sn1       1.0  0.00000  0.00000  0.00000  1.0000
  Sn  Sn2       1.0  0.50000  0.50000  0.00000  1.0000
