data_image0
_chemical_formula_structural       Ca2Ir2O12Sr6
_chemical_formula_sum              "Ca2 Ir2 O12 Sr6"
_cell_length_a       6.78892
_cell_length_b       6.78892
_cell_length_c       6.78892
_cell_angle_alpha    91.4401
_cell_angle_beta     91.4401
_cell_angle_gamma    91.4401

_space_group_name_H-M_alt    "P 1"
_space_group_IT_number       1

loop_
  _space_group_symop_operation_xyz
  'x, y, z'

loop_
  _atom_site_type_symbol
  _atom_site_label
  _atom_site_symmetry_multiplicity
  _atom_site_fract_x
  _atom_site_fract_y
  _atom_site_fract_z
  _atom_site_occupancy
  Ca  Ca1       1.0  0.25000  0.25000  0.25000  1.0000
  Ca  Ca2       1.0  0.75000  0.75000  0.75000  1.0000
  Ir  Ir1       1.0  0.00000  0.00000  0.00000  1.0000
  Ir  Ir2       1.0  0.50000  0.50000  0.50000  1.0000
  O   O1        1.0  0.71300  0.91800  0.05090  1.0000
  O   O2        1.0  0.94900  0.28700  0.08190  1.0000
  O   O3        1.0  0.55100  0.41800  0.21300  1.0000
  O   O4        1.0  0.08190  0.94900  0.28700  1.0000
  O   O5        1.0  0.21300  0.55100  0.41800  1.0000
  O   O6        1.0  0.58200  0.78700  0.44900  1.0000
  O   O7        1.0  0.41800  0.21300  0.55100  1.0000
  O   O8        1.0  0.78700  0.44900  0.58200  1.0000
  O   O9        1.0  0.91800  0.05090  0.71300  1.0000
  O   O10       1.0  0.44900  0.58200  0.78700  1.0000
  O   O11       1.0  0.05090  0.71300  0.91800  1.0000
  O   O12       1.0  0.28700  0.08190  0.94900  1.0000
  Sr  Sr1       1.0  0.38700  0.75000  0.11300  1.0000
  Sr  Sr2       1.0  0.88700  0.61300  0.25000  1.0000
  Sr  Sr3       1.0  0.75000  0.11300  0.38700  1.0000
  Sr  Sr4       1.0  0.25000  0.88700  0.61300  1.0000
  Sr  Sr5       1.0  0.11300  0.38700  0.75000  1.0000
  Sr  Sr6       1.0  0.61300  0.25000  0.88700  1.0000
