data_image0
_chemical_formula_structural       Bi8Mn10Ni4
_chemical_formula_sum              "Bi8 Mn10 Ni4"
_cell_length_a       8.49224
_cell_length_b       8.49224
_cell_length_c       8.49224
_cell_angle_alpha    120
_cell_angle_beta     90
_cell_angle_gamma    120

_space_group_name_H-M_alt    "P 1"
_space_group_IT_number       1

loop_
  _space_group_symop_operation_xyz
  'x, y, z'

loop_
  _atom_site_type_symbol
  _atom_site_label
  _atom_site_symmetry_multiplicity
  _atom_site_fract_x
  _atom_site_fract_y
  _atom_site_fract_z
  _atom_site_occupancy
  Bi  Bi1       1.0  0.75000  0.50000  0.25000  1.0000
  Bi  Bi2       1.0  0.28900  0.00000  0.28900  1.0000
  Bi  Bi3       1.0  0.71100  0.00000  0.28900  1.0000
  Bi  Bi4       1.0  0.28900  0.57800  0.28900  1.0000
  Bi  Bi5       1.0  0.28900  0.00000  0.71100  1.0000
  Bi  Bi6       1.0  0.71100  0.00000  0.71100  1.0000
  Bi  Bi7       1.0  0.71100  0.42200  0.71100  1.0000
  Bi  Bi8       1.0  0.25000  0.50000  0.75000  1.0000
  Mn  Mn1       1.0  0.25800  0.17200  0.08600  1.0000
  Mn  Mn2       1.0  0.91400  0.17200  0.08600  1.0000
  Mn  Mn3       1.0  0.91400  0.82800  0.08600  1.0000
  Mn  Mn4       1.0  0.00030  0.00061  0.50000  1.0000
  Mn  Mn5       1.0  0.00030  0.50000  0.50000  1.0000
  Mn  Mn6       1.0  0.50000  0.50000  0.50000  1.0000
  Mn  Mn7       1.0  0.91400  0.82800  0.74200  1.0000
  Mn  Mn8       1.0  0.00030  0.50000  0.00000  1.0000
  Mn  Mn9       1.0  0.50000  0.50000  0.00000  1.0000
  Mn  Mn10      1.0  0.50000  0.99900  0.00000  1.0000
  Ni  Ni1       1.0  0.12000  0.24100  0.36100  1.0000
  Ni  Ni2       1.0  0.12000  0.24100  0.88000  1.0000
  Ni  Ni3       1.0  0.12000  0.75900  0.88000  1.0000
  Ni  Ni4       1.0  0.63900  0.75900  0.88000  1.0000
