data_image0
_chemical_formula_structural       Cl12O2Sr8
_chemical_formula_sum              "Cl12 O2 Sr8"
_cell_length_a       9.54926
_cell_length_b       9.54888
_cell_length_c       7.26598
_cell_angle_alpha    90
_cell_angle_beta     90
_cell_angle_gamma    120.001

_space_group_name_H-M_alt    "P 1"
_space_group_IT_number       1

loop_
  _space_group_symop_operation_xyz
  'x, y, z'

loop_
  _atom_site_type_symbol
  _atom_site_label
  _atom_site_symmetry_multiplicity
  _atom_site_fract_x
  _atom_site_fract_y
  _atom_site_fract_z
  _atom_site_occupancy
  Cl  Cl1       1.0  0.53400  0.06860  0.10800  1.0000
  Cl  Cl2       1.0  0.53400  0.46600  0.10800  1.0000
  Cl  Cl3       1.0  0.93100  0.46600  0.10800  1.0000
  Cl  Cl4       1.0  0.14100  0.85900  0.28500  1.0000
  Cl  Cl5       1.0  0.71800  0.85900  0.28500  1.0000
  Cl  Cl6       1.0  0.14100  0.28200  0.28500  1.0000
  Cl  Cl7       1.0  0.46600  0.93100  0.60800  1.0000
  Cl  Cl8       1.0  0.06850  0.53400  0.60800  1.0000
  Cl  Cl9       1.0  0.46600  0.53400  0.60800  1.0000
  Cl  Cl10      1.0  0.28200  0.14100  0.78500  1.0000
  Cl  Cl11      1.0  0.85900  0.14100  0.78500  1.0000
  Cl  Cl12      1.0  0.85900  0.71800  0.78500  1.0000
  O   O1        1.0  0.33300  0.66700  0.00060  1.0000
  O   O2        1.0  0.66700  0.33300  0.50100  1.0000
  Sr  Sr1       1.0  0.33300  0.66700  0.32700  1.0000
  Sr  Sr2       1.0  0.80300  0.60600  0.39600  1.0000
  Sr  Sr3       1.0  0.39400  0.19700  0.39600  1.0000
  Sr  Sr4       1.0  0.80300  0.19700  0.39600  1.0000
  Sr  Sr5       1.0  0.66700  0.33300  0.82700  1.0000
  Sr  Sr6       1.0  0.19700  0.39400  0.89600  1.0000
  Sr  Sr7       1.0  0.19700  0.80300  0.89600  1.0000
  Sr  Sr8       1.0  0.60600  0.80300  0.89600  1.0000
