data_image0
_chemical_formula_structural       Li4Mn4Ni2O12
_chemical_formula_sum              "Li4 Mn4 Ni2 O12"
_cell_length_a       4.97117
_cell_length_b       4.97123
_cell_length_c       10.0013
_cell_angle_alpha    90
_cell_angle_beta     90
_cell_angle_gamma    120

_space_group_name_H-M_alt    "P 1"
_space_group_IT_number       1

loop_
  _space_group_symop_operation_xyz
  'x, y, z'

loop_
  _atom_site_type_symbol
  _atom_site_label
  _atom_site_symmetry_multiplicity
  _atom_site_fract_x
  _atom_site_fract_y
  _atom_site_fract_z
  _atom_site_occupancy
  Li  Li1       1.0  0.33200  0.50000  0.25000  1.0000
  Li  Li2       1.0  0.83200  0.50000  0.25000  1.0000
  Li  Li3       1.0  0.16800  0.50000  0.75000  1.0000
  Li  Li4       1.0  0.66800  0.50000  0.75000  1.0000
  Mn  Mn1       1.0  0.66300  0.32600  0.00000  1.0000
  Mn  Mn2       1.0  0.33700  0.67400  0.00000  1.0000
  Mn  Mn3       1.0  0.16300  0.32600  0.50000  1.0000
  Mn  Mn4       1.0  0.83700  0.67400  0.50000  1.0000
  Ni  Ni1       1.0  0.00000  0.00000  0.00000  1.0000
  Ni  Ni2       1.0  0.50000  0.00000  0.50000  1.0000
  O   O1        1.0  0.35100  0.00000  0.10400  1.0000
  O   O2        1.0  0.00318  0.35800  0.10700  1.0000
  O   O3        1.0  0.64600  0.64200  0.10700  1.0000
  O   O4        1.0  0.50300  0.35800  0.39300  1.0000
  O   O5        1.0  0.14600  0.64200  0.39300  1.0000
  O   O6        1.0  0.85100  0.00000  0.39600  1.0000
  O   O7        1.0  0.14900  0.00000  0.60400  1.0000
  O   O8        1.0  0.85400  0.35800  0.60700  1.0000
  O   O9        1.0  0.49700  0.64200  0.60700  1.0000
  O   O10       1.0  0.35400  0.35800  0.89300  1.0000
  O   O11       1.0  0.99700  0.64200  0.89300  1.0000
  O   O12       1.0  0.64900  0.00000  0.89600  1.0000
