data_image0
_chemical_formula_structural       C14Lu8
_chemical_formula_sum              "C14 Lu8"
_cell_length_a       3.59512
_cell_length_b       13.5077
_cell_length_c       6.26836
_cell_angle_alpha    90
_cell_angle_beta     105.246
_cell_angle_gamma    90

_space_group_name_H-M_alt    "P 1"
_space_group_IT_number       1

loop_
  _space_group_symop_operation_xyz
  'x, y, z'

loop_
  _atom_site_type_symbol
  _atom_site_label
  _atom_site_symmetry_multiplicity
  _atom_site_fract_x
  _atom_site_fract_y
  _atom_site_fract_z
  _atom_site_occupancy
  C   C1        1.0  0.00000  0.00000  0.00000  1.0000
  C   C2        1.0  0.37800  0.69800  0.04440  1.0000
  C   C3        1.0  0.26600  0.60400  0.04870  1.0000
  C   C4        1.0  0.53900  0.78600  0.07680  1.0000
  C   C5        1.0  0.46100  0.28600  0.42300  1.0000
  C   C6        1.0  0.73400  0.10400  0.45100  1.0000
  C   C7        1.0  0.62200  0.19800  0.45600  1.0000
  C   C8        1.0  0.00000  0.50000  0.50000  1.0000
  C   C9        1.0  0.37800  0.80200  0.54400  1.0000
  C   C10       1.0  0.26600  0.89600  0.54900  1.0000
  C   C11       1.0  0.53900  0.71400  0.57700  1.0000
  C   C12       1.0  0.46100  0.21400  0.92300  1.0000
  C   C13       1.0  0.73400  0.39600  0.95100  1.0000
  C   C14       1.0  0.62200  0.30200  0.95600  1.0000
  Lu  Lu1       1.0  0.05620  0.16000  0.16000  1.0000
  Lu  Lu2       1.0  0.36500  0.44600  0.24000  1.0000
  Lu  Lu3       1.0  0.63500  0.94600  0.26000  1.0000
  Lu  Lu4       1.0  0.94400  0.66000  0.34000  1.0000
  Lu  Lu5       1.0  0.05620  0.34000  0.66000  1.0000
  Lu  Lu6       1.0  0.36500  0.05410  0.74000  1.0000
  Lu  Lu7       1.0  0.63500  0.55400  0.76000  1.0000
  Lu  Lu8       1.0  0.94400  0.84000  0.84000  1.0000
