data_image0
_chemical_formula_structural       Cr6P4U
_chemical_formula_sum              "Cr6 P4 U1"
_cell_length_a       7.03685
_cell_length_b       7.03556
_cell_length_c       3.30157
_cell_angle_alpha    90
_cell_angle_beta     90
_cell_angle_gamma    120.006

_space_group_name_H-M_alt    "P 1"
_space_group_IT_number       1

loop_
  _space_group_symop_operation_xyz
  'x, y, z'

loop_
  _atom_site_type_symbol
  _atom_site_label
  _atom_site_symmetry_multiplicity
  _atom_site_fract_x
  _atom_site_fract_y
  _atom_site_fract_z
  _atom_site_occupancy
  Cr  Cr1       1.0  0.07330  0.53700  0.00000  1.0000
  Cr  Cr2       1.0  0.46300  0.53700  0.00000  1.0000
  Cr  Cr3       1.0  0.46300  0.92700  0.00000  1.0000
  Cr  Cr4       1.0  0.39900  0.19900  0.50000  1.0000
  Cr  Cr5       1.0  0.80100  0.19900  0.50000  1.0000
  Cr  Cr6       1.0  0.80100  0.60100  0.50000  1.0000
  P   P1        1.0  0.66700  0.33300  0.00000  1.0000
  P   P2        1.0  0.18800  0.37600  0.50000  1.0000
  P   P3        1.0  0.18800  0.81200  0.50000  1.0000
  P   P4        1.0  0.62400  0.81200  0.50000  1.0000
  U   U1        1.0  0.00000  0.00000  0.00000  1.0000
