data_image0
_chemical_formula_structural       La2Nb4O14Rb2
_chemical_formula_sum              "La2 Nb4 O14 Rb2"
_cell_length_a       5.53799
_cell_length_b       5.49366
_cell_length_c       11.6051
_cell_angle_alpha    103.691
_cell_angle_beta     103.804
_cell_angle_gamma    90

_space_group_name_H-M_alt    "P 1"
_space_group_IT_number       1

loop_
  _space_group_symop_operation_xyz
  'x, y, z'

loop_
  _atom_site_type_symbol
  _atom_site_label
  _atom_site_symmetry_multiplicity
  _atom_site_fract_x
  _atom_site_fract_y
  _atom_site_fract_z
  _atom_site_occupancy
  La  La1       1.0  0.23800  0.25000  0.50000  1.0000
  La  La2       1.0  0.76200  0.75000  0.50000  1.0000
  Nb  Nb1       1.0  0.63900  0.14500  0.29000  1.0000
  Nb  Nb2       1.0  0.15000  0.64500  0.29000  1.0000
  Nb  Nb3       1.0  0.85000  0.35500  0.71000  1.0000
  Nb  Nb4       1.0  0.36100  0.85500  0.71000  1.0000
  O   O1        1.0  0.50700  0.06390  0.12800  1.0000
  O   O2        1.0  0.12100  0.56400  0.12800  1.0000
  O   O3        1.0  0.90200  0.40200  0.30400  1.0000
  O   O4        1.0  0.90200  0.90200  0.30400  1.0000
  O   O5        1.0  0.42600  0.42600  0.35100  1.0000
  O   O6        1.0  0.42600  0.92600  0.35100  1.0000
  O   O7        1.0  0.82000  0.25000  0.50000  1.0000
  O   O8        1.0  0.18000  0.75000  0.50000  1.0000
  O   O9        1.0  0.57400  0.07440  0.64900  1.0000
  O   O10       1.0  0.57400  0.57400  0.64900  1.0000
  O   O11       1.0  0.09780  0.09780  0.69600  1.0000
  O   O12       1.0  0.09780  0.59800  0.69600  1.0000
  O   O13       1.0  0.87900  0.43600  0.87200  1.0000
  O   O14       1.0  0.49300  0.93600  0.87200  1.0000
  Rb  Rb1       1.0  0.00000  0.00000  0.00000  1.0000
  Rb  Rb2       1.0  0.50000  0.50000  0.00000  1.0000
