data_image0
_chemical_formula_structural       BiC6Cs2N6NaS6
_chemical_formula_sum              "Bi1 C6 Cs2 N6 Na1 S6"
_cell_length_a       7.19533
_cell_length_b       7.19532
_cell_length_c       10.6233
_cell_angle_alpha    90
_cell_angle_beta     90.0001
_cell_angle_gamma    120

_space_group_name_H-M_alt    "P 1"
_space_group_IT_number       1

loop_
  _space_group_symop_operation_xyz
  'x, y, z'

loop_
  _atom_site_type_symbol
  _atom_site_label
  _atom_site_symmetry_multiplicity
  _atom_site_fract_x
  _atom_site_fract_y
  _atom_site_fract_z
  _atom_site_occupancy
  Bi  Bi1       1.0  0.00000  0.00000  0.00000  1.0000
  C   C1        1.0  0.66900  0.87400  0.26700  1.0000
  C   C2        1.0  0.12600  0.79500  0.26700  1.0000
  C   C3        1.0  0.20500  0.33100  0.26700  1.0000
  C   C4        1.0  0.79500  0.66900  0.73300  1.0000
  C   C5        1.0  0.87400  0.20500  0.73300  1.0000
  C   C6        1.0  0.33100  0.12600  0.73300  1.0000
  Cs  Cs1       1.0  0.66700  0.33300  0.40100  1.0000
  Cs  Cs2       1.0  0.33300  0.66700  0.59900  1.0000
  N   N1        1.0  0.20200  0.87800  0.36400  1.0000
  N   N2        1.0  0.67600  0.79800  0.36400  1.0000
  N   N3        1.0  0.12200  0.32400  0.36400  1.0000
  N   N4        1.0  0.87800  0.67600  0.63600  1.0000
  N   N5        1.0  0.32400  0.20200  0.63600  1.0000
  N   N6        1.0  0.79800  0.12200  0.63600  1.0000
  Na  Na1       1.0  0.00000  0.00000  0.50000  1.0000
  S   S1        1.0  0.01240  0.66700  0.13500  1.0000
  S   S2        1.0  0.33300  0.34500  0.13500  1.0000
  S   S3        1.0  0.65500  0.98800  0.13500  1.0000
  S   S4        1.0  0.98800  0.33300  0.86500  1.0000
  S   S5        1.0  0.34500  0.01240  0.86500  1.0000
  S   S6        1.0  0.66700  0.65500  0.86500  1.0000
