data_image0
_chemical_formula_structural       Ge8Ni5Sc9
_chemical_formula_sum              "Ge8 Ni5 Sc9"
_cell_length_a       3.94135
_cell_length_b       9.0686
_cell_length_c       11.6151
_cell_angle_alpha    112.978
_cell_angle_beta     99.7684
_cell_angle_gamma    90

_space_group_name_H-M_alt    "P 1"
_space_group_IT_number       1

loop_
  _space_group_symop_operation_xyz
  'x, y, z'

loop_
  _atom_site_type_symbol
  _atom_site_label
  _atom_site_symmetry_multiplicity
  _atom_site_fract_x
  _atom_site_fract_y
  _atom_site_fract_z
  _atom_site_occupancy
  Ge  Ge1       1.0  0.50000  0.31900  0.00000  1.0000
  Ge  Ge2       1.0  0.50000  0.68100  0.00000  1.0000
  Ge  Ge3       1.0  0.63300  0.13300  0.26500  1.0000
  Ge  Ge4       1.0  0.19300  0.55300  0.38600  1.0000
  Ge  Ge5       1.0  0.19300  0.83200  0.38600  1.0000
  Ge  Ge6       1.0  0.80700  0.16800  0.61400  1.0000
  Ge  Ge7       1.0  0.80700  0.44700  0.61400  1.0000
  Ge  Ge8       1.0  0.36700  0.86700  0.73500  1.0000
  Ni  Ni1       1.0  0.00000  0.50000  0.00000  1.0000
  Ni  Ni2       1.0  0.69700  0.42100  0.39300  1.0000
  Ni  Ni3       1.0  0.69700  0.97200  0.39300  1.0000
  Ni  Ni4       1.0  0.30300  0.02830  0.60700  1.0000
  Ni  Ni5       1.0  0.30300  0.57900  0.60700  1.0000
  Sc  Sc1       1.0  0.50000  0.00000  0.00000  1.0000
  Sc  Sc2       1.0  0.08500  0.28200  0.17000  1.0000
  Sc  Sc3       1.0  0.08500  0.88800  0.17000  1.0000
  Sc  Sc4       1.0  0.61100  0.61100  0.22100  1.0000
  Sc  Sc5       1.0  0.22600  0.22600  0.45200  1.0000
  Sc  Sc6       1.0  0.77400  0.77400  0.54800  1.0000
  Sc  Sc7       1.0  0.38900  0.38900  0.77900  1.0000
  Sc  Sc8       1.0  0.91500  0.11200  0.83000  1.0000
  Sc  Sc9       1.0  0.91500  0.71800  0.83000  1.0000
