data_image0
_chemical_formula_structural       C2O14Si2Y4
_chemical_formula_sum              "C2 O14 Si2 Y4"
_cell_length_a       6.57294
_cell_length_b       6.62527
_cell_length_c       6.46129
_cell_angle_alpha    116.291
_cell_angle_beta     92.6132
_cell_angle_gamma    95.4321

_space_group_name_H-M_alt    "P 1"
_space_group_IT_number       1

loop_
  _space_group_symop_operation_xyz
  'x, y, z'

loop_
  _atom_site_type_symbol
  _atom_site_label
  _atom_site_symmetry_multiplicity
  _atom_site_fract_x
  _atom_site_fract_y
  _atom_site_fract_z
  _atom_site_occupancy
  C   C1        1.0  0.41100  0.73300  0.19500  1.0000
  C   C2        1.0  0.58900  0.26700  0.80500  1.0000
  O   O1        1.0  0.64500  0.38000  0.02420  1.0000
  O   O2        1.0  0.03190  0.34200  0.11300  1.0000
  O   O3        1.0  0.33200  0.08930  0.12400  1.0000
  O   O4        1.0  0.59700  0.83600  0.26800  1.0000
  O   O5        1.0  0.98300  0.08720  0.33200  1.0000
  O   O6        1.0  0.28200  0.75000  0.34400  1.0000
  O   O7        1.0  0.74800  0.56300  0.48100  1.0000
  O   O8        1.0  0.25200  0.43700  0.51900  1.0000
  O   O9        1.0  0.71800  0.25000  0.65600  1.0000
  O   O10       1.0  0.01670  0.91300  0.66800  1.0000
  O   O11       1.0  0.40300  0.16400  0.73200  1.0000
  O   O12       1.0  0.66800  0.91100  0.87600  1.0000
  O   O13       1.0  0.96800  0.65800  0.88700  1.0000
  O   O14       1.0  0.35500  0.62000  0.97600  1.0000
  Si  Si1       1.0  0.15800  0.24000  0.26200  1.0000
  Si  Si2       1.0  0.84200  0.76000  0.73800  1.0000
  Y   Y1        1.0  0.91400  0.70200  0.25200  1.0000
  Y   Y2        1.0  0.66700  0.19000  0.25800  1.0000
  Y   Y3        1.0  0.33300  0.81000  0.74200  1.0000
  Y   Y4        1.0  0.08620  0.29800  0.74800  1.0000
