data_image0
_chemical_formula_structural       O14Re2Sm6
_chemical_formula_sum              "O14 Re2 Sm6"
_cell_length_a       6.51634
_cell_length_b       6.51634
_cell_length_c       7.50859
_cell_angle_alpha    90
_cell_angle_beta     90
_cell_angle_gamma    68.7056

_space_group_name_H-M_alt    "P 1"
_space_group_IT_number       1

loop_
  _space_group_symop_operation_xyz
  'x, y, z'

loop_
  _atom_site_type_symbol
  _atom_site_label
  _atom_site_symmetry_multiplicity
  _atom_site_fract_x
  _atom_site_fract_y
  _atom_site_fract_z
  _atom_site_occupancy
  O   O1        1.0  0.06250  0.68300  0.03870  1.0000
  O   O2        1.0  0.31700  0.93800  0.03870  1.0000
  O   O3        1.0  0.92000  0.08050  0.25000  1.0000
  O   O4        1.0  0.39400  0.34300  0.25000  1.0000
  O   O5        1.0  0.65700  0.60600  0.25000  1.0000
  O   O6        1.0  0.06250  0.68300  0.46100  1.0000
  O   O7        1.0  0.31700  0.93800  0.46100  1.0000
  O   O8        1.0  0.68300  0.06250  0.53900  1.0000
  O   O9        1.0  0.93800  0.31700  0.53900  1.0000
  O   O10       1.0  0.34300  0.39400  0.75000  1.0000
  O   O11       1.0  0.60600  0.65700  0.75000  1.0000
  O   O12       1.0  0.08050  0.92000  0.75000  1.0000
  O   O13       1.0  0.68300  0.06250  0.96100  1.0000
  O   O14       1.0  0.93800  0.31700  0.96100  1.0000
  Re  Re1       1.0  0.00000  0.00000  0.00000  1.0000
  Re  Re2       1.0  0.00000  0.00000  0.50000  1.0000
  Sm  Sm1       1.0  0.50000  0.50000  0.00000  1.0000
  Sm  Sm2       1.0  0.02580  0.42200  0.25000  1.0000
  Sm  Sm3       1.0  0.57800  0.97400  0.25000  1.0000
  Sm  Sm4       1.0  0.50000  0.50000  0.50000  1.0000
  Sm  Sm5       1.0  0.42200  0.02580  0.75000  1.0000
  Sm  Sm6       1.0  0.97400  0.57800  0.75000  1.0000
