data_image0
_chemical_formula_structural       Ag6Rb2Se10Sm4
_chemical_formula_sum              "Ag6 Rb2 Se10 Sm4"
_cell_length_a       4.36137
_cell_length_b       7.98688
_cell_length_c       17.5418
_cell_angle_alpha    90
_cell_angle_beta     90
_cell_angle_gamma    74.1551

_space_group_name_H-M_alt    "P 1"
_space_group_IT_number       1

loop_
  _space_group_symop_operation_xyz
  'x, y, z'

loop_
  _atom_site_type_symbol
  _atom_site_label
  _atom_site_symmetry_multiplicity
  _atom_site_fract_x
  _atom_site_fract_y
  _atom_site_fract_z
  _atom_site_occupancy
  Ag  Ag1       1.0  0.08660  0.82700  0.03660  1.0000
  Ag  Ag2       1.0  0.83800  0.32400  0.25000  1.0000
  Ag  Ag3       1.0  0.08660  0.82700  0.46300  1.0000
  Ag  Ag4       1.0  0.91300  0.17300  0.53700  1.0000
  Ag  Ag5       1.0  0.16200  0.67600  0.75000  1.0000
  Ag  Ag6       1.0  0.91300  0.17300  0.96300  1.0000
  Rb  Rb1       1.0  0.56300  0.87400  0.25000  1.0000
  Rb  Rb2       1.0  0.43700  0.12600  0.75000  1.0000
  Se  Se1       1.0  0.67900  0.64300  0.07230  1.0000
  Se  Se2       1.0  0.93600  0.12700  0.12000  1.0000
  Se  Se3       1.0  0.24100  0.51800  0.25000  1.0000
  Se  Se4       1.0  0.93600  0.12700  0.38000  1.0000
  Se  Se5       1.0  0.67900  0.64300  0.42800  1.0000
  Se  Se6       1.0  0.32100  0.35700  0.57200  1.0000
  Se  Se7       1.0  0.06360  0.87300  0.62000  1.0000
  Se  Se8       1.0  0.75900  0.48200  0.75000  1.0000
  Se  Se9       1.0  0.06360  0.87300  0.88000  1.0000
  Se  Se10      1.0  0.32100  0.35700  0.92800  1.0000
  Sm  Sm1       1.0  0.31000  0.38100  0.09500  1.0000
  Sm  Sm2       1.0  0.31000  0.38100  0.40500  1.0000
  Sm  Sm3       1.0  0.69000  0.61900  0.59500  1.0000
  Sm  Sm4       1.0  0.69000  0.61900  0.90500  1.0000
