data_image0
_chemical_formula_structural       Cl14Nb6Te2
_chemical_formula_sum              "Cl14 Nb6 Te2"
_cell_length_a       6.94119
_cell_length_b       6.94145
_cell_length_c       12.8276
_cell_angle_alpha    90
_cell_angle_beta     90.0057
_cell_angle_gamma    120.001

_space_group_name_H-M_alt    "P 1"
_space_group_IT_number       1

loop_
  _space_group_symop_operation_xyz
  'x, y, z'

loop_
  _atom_site_type_symbol
  _atom_site_label
  _atom_site_symmetry_multiplicity
  _atom_site_fract_x
  _atom_site_fract_y
  _atom_site_fract_z
  _atom_site_occupancy
  Cl  Cl1       1.0  0.16900  0.33700  0.11800  1.0000
  Cl  Cl2       1.0  0.16900  0.83100  0.11800  1.0000
  Cl  Cl3       1.0  0.66300  0.83100  0.11800  1.0000
  Cl  Cl4       1.0  0.66700  0.33300  0.13400  1.0000
  Cl  Cl5       1.0  0.33300  0.16600  0.34100  1.0000
  Cl  Cl6       1.0  0.83400  0.16600  0.34100  1.0000
  Cl  Cl7       1.0  0.83400  0.66700  0.34100  1.0000
  Cl  Cl8       1.0  0.16600  0.83400  0.65900  1.0000
  Cl  Cl9       1.0  0.16600  0.33300  0.65900  1.0000
  Cl  Cl10      1.0  0.66700  0.83400  0.65900  1.0000
  Cl  Cl11      1.0  0.33300  0.66700  0.86600  1.0000
  Cl  Cl12      1.0  0.33700  0.16900  0.88200  1.0000
  Cl  Cl13      1.0  0.83100  0.66300  0.88200  1.0000
  Cl  Cl14      1.0  0.83100  0.16900  0.88200  1.0000
  Nb  Nb1       1.0  0.47300  0.94600  0.24100  1.0000
  Nb  Nb2       1.0  0.47300  0.52700  0.24100  1.0000
  Nb  Nb3       1.0  0.05360  0.52700  0.24100  1.0000
  Nb  Nb4       1.0  0.94600  0.47300  0.75900  1.0000
  Nb  Nb5       1.0  0.52700  0.05360  0.75900  1.0000
  Nb  Nb6       1.0  0.52700  0.47300  0.75900  1.0000
  Te  Te1       1.0  0.33300  0.66700  0.40800  1.0000
  Te  Te2       1.0  0.66700  0.33300  0.59200  1.0000
