data_image0
_chemical_formula_structural       O12Rh2Sr6Zn2
_chemical_formula_sum              "O12 Rh2 Sr6 Zn2"
_cell_length_a       6.67155
_cell_length_b       6.67155
_cell_length_c       6.67155
_cell_angle_alpha    91.9343
_cell_angle_beta     91.9343
_cell_angle_gamma    91.9343

_space_group_name_H-M_alt    "P 1"
_space_group_IT_number       1

loop_
  _space_group_symop_operation_xyz
  'x, y, z'

loop_
  _atom_site_type_symbol
  _atom_site_label
  _atom_site_symmetry_multiplicity
  _atom_site_fract_x
  _atom_site_fract_y
  _atom_site_fract_z
  _atom_site_occupancy
  O   O1        1.0  0.90800  0.71200  0.04060  1.0000
  O   O2        1.0  0.28800  0.95900  0.09210  1.0000
  O   O3        1.0  0.40800  0.54100  0.21200  1.0000
  O   O4        1.0  0.95900  0.09210  0.28800  1.0000
  O   O5        1.0  0.54100  0.21200  0.40800  1.0000
  O   O6        1.0  0.78800  0.59200  0.45900  1.0000
  O   O7        1.0  0.21200  0.40800  0.54100  1.0000
  O   O8        1.0  0.45900  0.78800  0.59200  1.0000
  O   O9        1.0  0.04060  0.90800  0.71200  1.0000
  O   O10       1.0  0.59200  0.45900  0.78800  1.0000
  O   O11       1.0  0.71200  0.04060  0.90800  1.0000
  O   O12       1.0  0.09210  0.28800  0.95900  1.0000
  Rh  Rh1       1.0  0.00000  0.00000  0.00000  1.0000
  Rh  Rh2       1.0  0.50000  0.50000  0.50000  1.0000
  Sr  Sr1       1.0  0.75000  0.38500  0.11500  1.0000
  Sr  Sr2       1.0  0.61500  0.88500  0.25000  1.0000
  Sr  Sr3       1.0  0.11500  0.75000  0.38500  1.0000
  Sr  Sr4       1.0  0.88500  0.25000  0.61500  1.0000
  Sr  Sr5       1.0  0.38500  0.11500  0.75000  1.0000
  Sr  Sr6       1.0  0.25000  0.61500  0.88500  1.0000
  Zn  Zn1       1.0  0.25000  0.25000  0.25000  1.0000
  Zn  Zn2       1.0  0.75000  0.75000  0.75000  1.0000
