data_image0
_chemical_formula_structural       Cs4Cu4Sb4Se10
_chemical_formula_sum              "Cs4 Cu4 Sb4 Se10"
_cell_length_a       7.69629
_cell_length_b       8.93344
_cell_length_c       10.4624
_cell_angle_alpha    91.8594
_cell_angle_beta     91.6434
_cell_angle_gamma    103.094

_space_group_name_H-M_alt    "P 1"
_space_group_IT_number       1

loop_
  _space_group_symop_operation_xyz
  'x, y, z'

loop_
  _atom_site_type_symbol
  _atom_site_label
  _atom_site_symmetry_multiplicity
  _atom_site_fract_x
  _atom_site_fract_y
  _atom_site_fract_z
  _atom_site_occupancy
  Cs  Cs1       1.0  0.27000  0.19600  0.09850  1.0000
  Cs  Cs2       1.0  0.72900  0.94600  0.38100  1.0000
  Cs  Cs3       1.0  0.27100  0.05410  0.61900  1.0000
  Cs  Cs4       1.0  0.73000  0.80400  0.90100  1.0000
  Cu  Cu1       1.0  0.40500  0.50800  0.38900  1.0000
  Cu  Cu2       1.0  0.12400  0.63000  0.42800  1.0000
  Cu  Cu3       1.0  0.87600  0.37000  0.57200  1.0000
  Cu  Cu4       1.0  0.59500  0.49200  0.61100  1.0000
  Sb  Sb1       1.0  0.19800  0.64100  0.12400  1.0000
  Sb  Sb2       1.0  0.81800  0.42400  0.26100  1.0000
  Sb  Sb3       1.0  0.18200  0.57600  0.73900  1.0000
  Sb  Sb4       1.0  0.80200  0.35900  0.87600  1.0000
  Se  Se1       1.0  0.75100  0.18800  0.08450  1.0000
  Se  Se2       1.0  0.51600  0.61500  0.18700  1.0000
  Se  Se3       1.0  0.14600  0.84300  0.28700  1.0000
  Se  Se4       1.0  0.08300  0.34300  0.38800  1.0000
  Se  Se5       1.0  0.57500  0.30300  0.42400  1.0000
  Se  Se6       1.0  0.42500  0.69700  0.57600  1.0000
  Se  Se7       1.0  0.91700  0.65700  0.61200  1.0000
  Se  Se8       1.0  0.85400  0.15700  0.71300  1.0000
  Se  Se9       1.0  0.48400  0.38500  0.81300  1.0000
  Se  Se10      1.0  0.24900  0.81200  0.91500  1.0000
