data_image0
_chemical_formula_structural       Ge6Nd8Rh8
_chemical_formula_sum              "Ge6 Nd8 Rh8"
_cell_length_a       5.71104
_cell_length_b       8.01543
_cell_length_c       11.0142
_cell_angle_alpha    109
_cell_angle_beta     105.026
_cell_angle_gamma    90

_space_group_name_H-M_alt    "P 1"
_space_group_IT_number       1

loop_
  _space_group_symop_operation_xyz
  'x, y, z'

loop_
  _atom_site_type_symbol
  _atom_site_label
  _atom_site_symmetry_multiplicity
  _atom_site_fract_x
  _atom_site_fract_y
  _atom_site_fract_z
  _atom_site_occupancy
  Ge  Ge1       1.0  0.35200  0.25000  0.00000  1.0000
  Ge  Ge2       1.0  0.64800  0.75000  0.00000  1.0000
  Ge  Ge3       1.0  0.29100  0.05790  0.34300  1.0000
  Ge  Ge4       1.0  0.05240  0.55800  0.34300  1.0000
  Ge  Ge5       1.0  0.94800  0.44200  0.65700  1.0000
  Ge  Ge6       1.0  0.70900  0.94200  0.65700  1.0000
  Nd  Nd1       1.0  0.92000  0.16900  0.13400  1.0000
  Nd  Nd2       1.0  0.21400  0.66900  0.13400  1.0000
  Nd  Nd3       1.0  0.55400  0.39900  0.34100  1.0000
  Nd  Nd4       1.0  0.78600  0.89900  0.34100  1.0000
  Nd  Nd5       1.0  0.21400  0.10100  0.65900  1.0000
  Nd  Nd6       1.0  0.44600  0.60100  0.65900  1.0000
  Nd  Nd7       1.0  0.78600  0.33100  0.86600  1.0000
  Nd  Nd8       1.0  0.08010  0.83100  0.86600  1.0000
  Rh  Rh1       1.0  0.42900  0.01740  0.12500  1.0000
  Rh  Rh2       1.0  0.69600  0.51700  0.12500  1.0000
  Rh  Rh3       1.0  0.07100  0.31400  0.44300  1.0000
  Rh  Rh4       1.0  0.37200  0.81400  0.44300  1.0000
  Rh  Rh5       1.0  0.62800  0.18600  0.55700  1.0000
  Rh  Rh6       1.0  0.92900  0.68600  0.55700  1.0000
  Rh  Rh7       1.0  0.30400  0.48300  0.87500  1.0000
  Rh  Rh8       1.0  0.57100  0.98300  0.87500  1.0000
