data_image0
_chemical_formula_structural       O8Pa2Re4
_chemical_formula_sum              "O8 Pa2 Re4"
_cell_length_a       6.42233
_cell_length_b       6.42233
_cell_length_c       6.42233
_cell_angle_alpha    119.995
_cell_angle_beta     90.0088
_cell_angle_gamma    119.995

_space_group_name_H-M_alt    "P 1"
_space_group_IT_number       1

loop_
  _space_group_symop_operation_xyz
  'x, y, z'

loop_
  _atom_site_type_symbol
  _atom_site_label
  _atom_site_symmetry_multiplicity
  _atom_site_fract_x
  _atom_site_fract_y
  _atom_site_fract_z
  _atom_site_occupancy
  O   O1        1.0  0.18300  0.78900  0.39400  1.0000
  O   O2        1.0  0.60600  0.21100  0.39400  1.0000
  O   O3        1.0  0.60600  0.78900  0.39400  1.0000
  O   O4        1.0  0.14400  0.28900  0.43300  1.0000
  O   O5        1.0  0.60600  0.21100  0.81700  1.0000
  O   O6        1.0  0.14400  0.71100  0.85600  1.0000
  O   O7        1.0  0.56700  0.71100  0.85600  1.0000
  O   O8        1.0  0.14400  0.28900  0.85600  1.0000
  Pa  Pa1       1.0  0.00000  0.00000  0.00000  1.0000
  Pa  Pa2       1.0  0.75000  0.50000  0.25000  1.0000
  Re  Re1       1.0  0.37500  0.75000  0.12500  1.0000
  Re  Re2       1.0  0.37500  0.25000  0.62500  1.0000
  Re  Re3       1.0  0.37500  0.75000  0.62500  1.0000
  Re  Re4       1.0  0.87500  0.25000  0.62500  1.0000
