data_image0
_chemical_formula_structural       O14Si4Sr2Ti2
_chemical_formula_sum              "O14 Si4 Sr2 Ti2"
_cell_length_a       5.34492
_cell_length_b       7.07756
_cell_length_c       7.67099
_cell_angle_alpha    90
_cell_angle_beta     69.6114
_cell_angle_gamma    90

_space_group_name_H-M_alt    "P 1"
_space_group_IT_number       1

loop_
  _space_group_symop_operation_xyz
  'x, y, z'

loop_
  _atom_site_type_symbol
  _atom_site_label
  _atom_site_symmetry_multiplicity
  _atom_site_fract_x
  _atom_site_fract_y
  _atom_site_fract_z
  _atom_site_occupancy
  O   O1        1.0  0.50000  0.00000  0.00000  1.0000
  O   O2        1.0  0.50000  0.50000  0.00000  1.0000
  O   O3        1.0  0.98900  0.25000  0.02170  1.0000
  O   O4        1.0  0.35800  0.25000  0.28400  1.0000
  O   O5        1.0  0.09310  0.56300  0.31100  1.0000
  O   O6        1.0  0.59600  0.56300  0.31100  1.0000
  O   O7        1.0  0.09310  0.93700  0.31100  1.0000
  O   O8        1.0  0.59600  0.93700  0.31100  1.0000
  O   O9        1.0  0.40400  0.06270  0.68900  1.0000
  O   O10       1.0  0.90700  0.06270  0.68900  1.0000
  O   O11       1.0  0.40400  0.43700  0.68900  1.0000
  O   O12       1.0  0.90700  0.43700  0.68900  1.0000
  O   O13       1.0  0.64200  0.75000  0.71600  1.0000
  O   O14       1.0  0.01090  0.75000  0.97800  1.0000
  Si  Si1       1.0  0.39000  0.02510  0.22000  1.0000
  Si  Si2       1.0  0.39000  0.47500  0.22000  1.0000
  Si  Si3       1.0  0.61000  0.52500  0.78000  1.0000
  Si  Si4       1.0  0.61000  0.97500  0.78000  1.0000
  Sr  Sr1       1.0  0.80200  0.25000  0.39700  1.0000
  Sr  Sr2       1.0  0.19800  0.75000  0.60300  1.0000
  Ti  Ti1       1.0  0.89200  0.75000  0.21700  1.0000
  Ti  Ti2       1.0  0.10800  0.25000  0.78300  1.0000
