data_image0
_chemical_formula_structural       Ag6Cs2Gd4Se10
_chemical_formula_sum              "Ag6 Cs2 Gd4 Se10"
_cell_length_a       4.32794
_cell_length_b       8.06838
_cell_length_c       17.5977
_cell_angle_alpha    90
_cell_angle_beta     90
_cell_angle_gamma    74.4426

_space_group_name_H-M_alt    "P 1"
_space_group_IT_number       1

loop_
  _space_group_symop_operation_xyz
  'x, y, z'

loop_
  _atom_site_type_symbol
  _atom_site_label
  _atom_site_symmetry_multiplicity
  _atom_site_fract_x
  _atom_site_fract_y
  _atom_site_fract_z
  _atom_site_occupancy
  Ag  Ag1       1.0  0.08410  0.83200  0.04050  1.0000
  Ag  Ag2       1.0  0.84300  0.31400  0.25000  1.0000
  Ag  Ag3       1.0  0.08410  0.83200  0.45900  1.0000
  Ag  Ag4       1.0  0.91600  0.16800  0.54100  1.0000
  Ag  Ag5       1.0  0.15700  0.68600  0.75000  1.0000
  Ag  Ag6       1.0  0.91600  0.16800  0.95900  1.0000
  Cs  Cs1       1.0  0.56200  0.87600  0.25000  1.0000
  Cs  Cs2       1.0  0.43800  0.12400  0.75000  1.0000
  Gd  Gd1       1.0  0.30800  0.38400  0.09490  1.0000
  Gd  Gd2       1.0  0.30800  0.38400  0.40500  1.0000
  Gd  Gd3       1.0  0.69200  0.61600  0.59500  1.0000
  Gd  Gd4       1.0  0.69200  0.61600  0.90500  1.0000
  Se  Se1       1.0  0.68100  0.63700  0.07030  1.0000
  Se  Se2       1.0  0.93200  0.13500  0.11600  1.0000
  Se  Se3       1.0  0.24700  0.50600  0.25000  1.0000
  Se  Se4       1.0  0.93200  0.13500  0.38400  1.0000
  Se  Se5       1.0  0.68100  0.63700  0.43000  1.0000
  Se  Se6       1.0  0.31900  0.36300  0.57000  1.0000
  Se  Se7       1.0  0.06770  0.86500  0.61600  1.0000
  Se  Se8       1.0  0.75300  0.49400  0.75000  1.0000
  Se  Se9       1.0  0.06770  0.86500  0.88400  1.0000
  Se  Se10      1.0  0.31900  0.36300  0.93000  1.0000
