data_image0
_chemical_formula_structural       I12Pb2Tl8
_chemical_formula_sum              "I12 Pb2 Tl8"
_cell_length_a       19.2491
_cell_length_b       9.95225
_cell_length_c       4.61747
_cell_angle_alpha    90
_cell_angle_beta     90
_cell_angle_gamma    90

_space_group_name_H-M_alt    "P 1"
_space_group_IT_number       1

loop_
  _space_group_symop_operation_xyz
  'x, y, z'

loop_
  _atom_site_type_symbol
  _atom_site_label
  _atom_site_symmetry_multiplicity
  _atom_site_fract_x
  _atom_site_fract_y
  _atom_site_fract_z
  _atom_site_occupancy
  I   I1        1.0  0.28600  0.09280  0.00000  1.0000
  I   I2        1.0  0.55400  0.19400  0.00000  1.0000
  I   I3        1.0  0.05390  0.30600  0.00000  1.0000
  I   I4        1.0  0.78600  0.40700  0.00000  1.0000
  I   I5        1.0  0.21400  0.59300  0.00000  1.0000
  I   I6        1.0  0.94600  0.69400  0.00000  1.0000
  I   I7        1.0  0.44600  0.80600  0.00000  1.0000
  I   I8        1.0  0.71400  0.90700  0.00000  1.0000
  I   I9        1.0  0.88400  0.06040  0.50000  1.0000
  I   I10       1.0  0.38400  0.44000  0.50000  1.0000
  I   I11       1.0  0.61600  0.56000  0.50000  1.0000
  I   I12       1.0  0.11600  0.94000  0.50000  1.0000
  Pb  Pb1       1.0  0.00000  0.00000  0.00000  1.0000
  Pb  Pb2       1.0  0.50000  0.50000  0.00000  1.0000
  Tl  Tl1       1.0  0.41900  0.10300  0.50000  1.0000
  Tl  Tl2       1.0  0.70500  0.20700  0.50000  1.0000
  Tl  Tl3       1.0  0.20500  0.29300  0.50000  1.0000
  Tl  Tl4       1.0  0.91900  0.39700  0.50000  1.0000
  Tl  Tl5       1.0  0.08070  0.60300  0.50000  1.0000
  Tl  Tl6       1.0  0.79500  0.70700  0.50000  1.0000
  Tl  Tl7       1.0  0.29500  0.79300  0.50000  1.0000
  Tl  Tl8       1.0  0.58100  0.89700  0.50000  1.0000
