data_image0
_chemical_formula_structural       Au8Cd2K4S8
_chemical_formula_sum              "Au8 Cd2 K4 S8"
_cell_length_a       7.08218
_cell_length_b       9.80596
_cell_length_c       9.80596
_cell_angle_alpha    97.8276
_cell_angle_beta     111.169
_cell_angle_gamma    111.169

_space_group_name_H-M_alt    "P 1"
_space_group_IT_number       1

loop_
  _space_group_symop_operation_xyz
  'x, y, z'

loop_
  _atom_site_type_symbol
  _atom_site_label
  _atom_site_symmetry_multiplicity
  _atom_site_fract_x
  _atom_site_fract_y
  _atom_site_fract_z
  _atom_site_occupancy
  Au  Au1       1.0  0.00000  0.50000  0.00000  1.0000
  Au  Au2       1.0  0.50000  0.50000  0.00000  1.0000
  Au  Au3       1.0  0.50000  0.86300  0.13700  1.0000
  Au  Au4       1.0  0.50000  0.63700  0.36300  1.0000
  Au  Au5       1.0  0.00000  0.00000  0.50000  1.0000
  Au  Au6       1.0  0.50000  0.00000  0.50000  1.0000
  Au  Au7       1.0  0.50000  0.36300  0.63700  1.0000
  Au  Au8       1.0  0.50000  0.13700  0.86300  1.0000
  Cd  Cd1       1.0  0.00000  0.75000  0.25000  1.0000
  Cd  Cd2       1.0  0.00000  0.25000  0.75000  1.0000
  K   K1        1.0  0.99100  0.15300  0.15300  1.0000
  K   K2        1.0  0.68600  0.34700  0.34700  1.0000
  K   K3        1.0  0.31400  0.65300  0.65300  1.0000
  K   K4        1.0  0.00920  0.84700  0.84700  1.0000
  S   S1        1.0  0.67000  0.75900  0.01780  1.0000
  S   S2        1.0  0.33000  0.98200  0.24100  1.0000
  S   S3        1.0  0.10700  0.51800  0.25900  1.0000
  S   S4        1.0  0.89300  0.74100  0.48200  1.0000
  S   S5        1.0  0.10700  0.25900  0.51800  1.0000
  S   S6        1.0  0.89300  0.48200  0.74100  1.0000
  S   S7        1.0  0.67000  0.01780  0.75900  1.0000
  S   S8        1.0  0.33000  0.24100  0.98200  1.0000
