data_image0
_chemical_formula_structural       As4Ga2K2O14
_chemical_formula_sum              "As4 Ga2 K2 O14"
_cell_length_a       6.26887
_cell_length_b       6.3663
_cell_length_c       8.11468
_cell_angle_alpha    95.8503
_cell_angle_beta     104.213
_cell_angle_gamma    103.89

_space_group_name_H-M_alt    "P 1"
_space_group_IT_number       1

loop_
  _space_group_symop_operation_xyz
  'x, y, z'

loop_
  _atom_site_type_symbol
  _atom_site_label
  _atom_site_symmetry_multiplicity
  _atom_site_fract_x
  _atom_site_fract_y
  _atom_site_fract_z
  _atom_site_occupancy
  As  As1       1.0  0.51600  0.25300  0.16500  1.0000
  As  As2       1.0  0.16700  0.96300  0.30800  1.0000
  As  As3       1.0  0.83300  0.03690  0.69200  1.0000
  As  As4       1.0  0.48400  0.74700  0.83500  1.0000
  Ga  Ga1       1.0  0.62000  0.80300  0.27900  1.0000
  Ga  Ga2       1.0  0.38000  0.19700  0.72100  1.0000
  K   K1        1.0  0.00000  0.50000  0.00000  1.0000
  K   K2        1.0  0.00000  0.50000  0.50000  1.0000
  O   O1        1.0  0.43500  0.72800  0.03000  1.0000
  O   O2        1.0  0.22400  0.10600  0.13600  1.0000
  O   O3        1.0  0.90000  0.79100  0.21400  1.0000
  O   O4        1.0  0.69400  0.12000  0.27900  1.0000
  O   O5        1.0  0.56400  0.49200  0.29600  1.0000
  O   O6        1.0  0.33200  0.78600  0.34000  1.0000
  O   O7        1.0  0.20000  0.16000  0.47400  1.0000
  O   O8        1.0  0.80000  0.84000  0.52600  1.0000
  O   O9        1.0  0.66800  0.21400  0.66000  1.0000
  O   O10       1.0  0.43600  0.50800  0.70400  1.0000
  O   O11       1.0  0.30600  0.88000  0.72100  1.0000
  O   O12       1.0  0.09970  0.20900  0.78600  1.0000
  O   O13       1.0  0.77600  0.89400  0.86400  1.0000
  O   O14       1.0  0.56500  0.27200  0.97000  1.0000
