data_image0
_chemical_formula_structural       Cd4O14Os4
_chemical_formula_sum              "Cd4 O14 Os4"
_cell_length_a       7.21258
_cell_length_b       7.21258
_cell_length_c       7.21258
_cell_angle_alpha    120
_cell_angle_beta     90
_cell_angle_gamma    120

_space_group_name_H-M_alt    "P 1"
_space_group_IT_number       1

loop_
  _space_group_symop_operation_xyz
  'x, y, z'

loop_
  _atom_site_type_symbol
  _atom_site_label
  _atom_site_symmetry_multiplicity
  _atom_site_fract_x
  _atom_site_fract_y
  _atom_site_fract_z
  _atom_site_occupancy
  Cd  Cd1       1.0  0.00000  0.50000  0.00000  1.0000
  Cd  Cd2       1.0  0.00000  0.00000  0.50000  1.0000
  Cd  Cd3       1.0  0.00000  0.50000  0.50000  1.0000
  Cd  Cd4       1.0  0.50000  0.00000  0.50000  1.0000
  O   O1        1.0  0.43100  0.75000  0.06900  1.0000
  O   O2        1.0  0.81900  0.75000  0.06900  1.0000
  O   O3        1.0  0.81900  0.13800  0.06900  1.0000
  O   O4        1.0  0.56900  0.25000  0.31900  1.0000
  O   O5        1.0  0.56900  0.63800  0.31900  1.0000
  O   O6        1.0  0.18100  0.25000  0.31900  1.0000
  O   O7        1.0  0.12500  0.75000  0.37500  1.0000
  O   O8        1.0  0.87500  0.25000  0.62500  1.0000
  O   O9        1.0  0.43100  0.36200  0.68100  1.0000
  O   O10       1.0  0.43100  0.75000  0.68100  1.0000
  O   O11       1.0  0.81900  0.75000  0.68100  1.0000
  O   O12       1.0  0.56900  0.25000  0.93100  1.0000
  O   O13       1.0  0.18100  0.25000  0.93100  1.0000
  O   O14       1.0  0.18100  0.86200  0.93100  1.0000
  Os  Os1       1.0  0.00000  0.00000  0.00000  1.0000
  Os  Os2       1.0  0.50000  0.00000  0.00000  1.0000
  Os  Os3       1.0  0.50000  0.50000  0.00000  1.0000
  Os  Os4       1.0  0.50000  0.50000  0.50000  1.0000
