data_image0
_chemical_formula_structural       Eu6Ir2O14
_chemical_formula_sum              "Eu6 Ir2 O14"
_cell_length_a       6.54174
_cell_length_b       6.54174
_cell_length_c       7.3955
_cell_angle_alpha    90
_cell_angle_beta     90
_cell_angle_gamma    67.2469

_space_group_name_H-M_alt    "P 1"
_space_group_IT_number       1

loop_
  _space_group_symop_operation_xyz
  'x, y, z'

loop_
  _atom_site_type_symbol
  _atom_site_label
  _atom_site_symmetry_multiplicity
  _atom_site_fract_x
  _atom_site_fract_y
  _atom_site_fract_z
  _atom_site_occupancy
  Eu  Eu1       1.0  0.00000  0.00000  0.00000  1.0000
  Eu  Eu2       1.0  0.46200  0.09330  0.25000  1.0000
  Eu  Eu3       1.0  0.90700  0.53800  0.25000  1.0000
  Eu  Eu4       1.0  0.00000  0.00000  0.50000  1.0000
  Eu  Eu5       1.0  0.09330  0.46200  0.75000  1.0000
  Eu  Eu6       1.0  0.53800  0.90700  0.75000  1.0000
  Ir  Ir1       1.0  0.50000  0.50000  0.00000  1.0000
  Ir  Ir2       1.0  0.50000  0.50000  0.50000  1.0000
  O   O1        1.0  0.20100  0.55300  0.05260  1.0000
  O   O2        1.0  0.44700  0.79900  0.05260  1.0000
  O   O3        1.0  0.09970  0.16700  0.25000  1.0000
  O   O4        1.0  0.60100  0.39900  0.25000  1.0000
  O   O5        1.0  0.83300  0.90000  0.25000  1.0000
  O   O6        1.0  0.20100  0.55300  0.44700  1.0000
  O   O7        1.0  0.44700  0.79900  0.44700  1.0000
  O   O8        1.0  0.55300  0.20100  0.55300  1.0000
  O   O9        1.0  0.79900  0.44700  0.55300  1.0000
  O   O10       1.0  0.16700  0.09970  0.75000  1.0000
  O   O11       1.0  0.39900  0.60100  0.75000  1.0000
  O   O12       1.0  0.90000  0.83300  0.75000  1.0000
  O   O13       1.0  0.55300  0.20100  0.94700  1.0000
  O   O14       1.0  0.79900  0.44700  0.94700  1.0000
