data_image0
_chemical_formula_structural       Ag16Ca6
_chemical_formula_sum              "Ag16 Ca6"
_cell_length_a       8.5617
_cell_length_b       8.5617
_cell_length_c       8.5617
_cell_angle_alpha    109.471
_cell_angle_beta     109.471
_cell_angle_gamma    109.471

_space_group_name_H-M_alt    "P 1"
_space_group_IT_number       1

loop_
  _space_group_symop_operation_xyz
  'x, y, z'

loop_
  _atom_site_type_symbol
  _atom_site_label
  _atom_site_symmetry_multiplicity
  _atom_site_fract_x
  _atom_site_fract_y
  _atom_site_fract_z
  _atom_site_occupancy
  Ag  Ag1       1.0  0.50000  0.00000  0.00000  1.0000
  Ag  Ag2       1.0  0.65600  0.34400  0.00000  1.0000
  Ag  Ag3       1.0  0.00000  0.50000  0.00000  1.0000
  Ag  Ag4       1.0  0.34400  0.65600  0.00000  1.0000
  Ag  Ag5       1.0  0.65600  0.65600  0.31300  1.0000
  Ag  Ag6       1.0  0.68700  0.34400  0.34400  1.0000
  Ag  Ag7       1.0  0.34400  0.68700  0.34400  1.0000
  Ag  Ag8       1.0  0.65600  0.00000  0.34400  1.0000
  Ag  Ag9       1.0  0.00000  0.65600  0.34400  1.0000
  Ag  Ag10      1.0  0.00000  0.00000  0.50000  1.0000
  Ag  Ag11      1.0  0.50000  0.50000  0.50000  1.0000
  Ag  Ag12      1.0  0.34400  0.00000  0.65600  1.0000
  Ag  Ag13      1.0  0.65600  0.31300  0.65600  1.0000
  Ag  Ag14      1.0  0.00000  0.34400  0.65600  1.0000
  Ag  Ag15      1.0  0.31300  0.65600  0.65600  1.0000
  Ag  Ag16      1.0  0.34400  0.34400  0.68700  1.0000
  Ca  Ca1       1.0  0.27600  0.27600  0.00000  1.0000
  Ca  Ca2       1.0  0.72400  0.72400  0.00000  1.0000
  Ca  Ca3       1.0  0.27600  0.00000  0.27600  1.0000
  Ca  Ca4       1.0  0.00000  0.27600  0.27600  1.0000
  Ca  Ca5       1.0  0.72400  0.00000  0.72400  1.0000
  Ca  Ca6       1.0  0.00000  0.72400  0.72400  1.0000
