data_image0
_chemical_formula_structural       Cl4N4O8Pd2Rb4
_chemical_formula_sum              "Cl4 N4 O8 Pd2 Rb4"
_cell_length_a       7.56548
_cell_length_b       7.61529
_cell_length_c       8.41807
_cell_angle_alpha    90
_cell_angle_beta     63.2974
_cell_angle_gamma    90

_space_group_name_H-M_alt    "P 1"
_space_group_IT_number       1

loop_
  _space_group_symop_operation_xyz
  'x, y, z'

loop_
  _atom_site_type_symbol
  _atom_site_label
  _atom_site_symmetry_multiplicity
  _atom_site_fract_x
  _atom_site_fract_y
  _atom_site_fract_z
  _atom_site_occupancy
  Cl  Cl1       1.0  0.28000  0.22000  0.00000  1.0000
  Cl  Cl2       1.0  0.78000  0.28000  0.00000  1.0000
  Cl  Cl3       1.0  0.22000  0.72000  0.00000  1.0000
  Cl  Cl4       1.0  0.72000  0.78000  0.00000  1.0000
  N   N1        1.0  0.36500  0.00000  0.27100  1.0000
  N   N2        1.0  0.86500  0.50000  0.27100  1.0000
  N   N3        1.0  0.63500  0.00000  0.72900  1.0000
  N   N4        1.0  0.13500  0.50000  0.72900  1.0000
  O   O1        1.0  0.42900  0.09590  0.35500  1.0000
  O   O2        1.0  0.92900  0.40400  0.35500  1.0000
  O   O3        1.0  0.71700  0.59600  0.35500  1.0000
  O   O4        1.0  0.21700  0.90400  0.35500  1.0000
  O   O5        1.0  0.78300  0.09590  0.64500  1.0000
  O   O6        1.0  0.28300  0.40400  0.64500  1.0000
  O   O7        1.0  0.07140  0.59600  0.64500  1.0000
  O   O8        1.0  0.57100  0.90400  0.64500  1.0000
  Pd  Pd1       1.0  0.50000  0.00000  0.00000  1.0000
  Pd  Pd2       1.0  0.00000  0.50000  0.00000  1.0000
  Rb  Rb1       1.0  0.86400  0.00000  0.27300  1.0000
  Rb  Rb2       1.0  0.36400  0.50000  0.27300  1.0000
  Rb  Rb3       1.0  0.13600  0.00000  0.72700  1.0000
  Rb  Rb4       1.0  0.63600  0.50000  0.72700  1.0000
