data_image0
_chemical_formula_structural       Bi4S12Ta6
_chemical_formula_sum              "Bi4 S12 Ta6"
_cell_length_a       5.74952
_cell_length_b       5.74952
_cell_length_c       17.5482
_cell_angle_alpha    89.998
_cell_angle_beta     90.002
_cell_angle_gamma    120

_space_group_name_H-M_alt    "P 1"
_space_group_IT_number       1

loop_
  _space_group_symop_operation_xyz
  'x, y, z'

loop_
  _atom_site_type_symbol
  _atom_site_label
  _atom_site_symmetry_multiplicity
  _atom_site_fract_x
  _atom_site_fract_y
  _atom_site_fract_z
  _atom_site_occupancy
  Bi  Bi1       1.0  0.33300  0.66700  0.25000  1.0000
  Bi  Bi2       1.0  0.66700  0.33300  0.25000  1.0000
  Bi  Bi3       1.0  0.33300  0.66700  0.75000  1.0000
  Bi  Bi4       1.0  0.66700  0.33300  0.75000  1.0000
  S   S1        1.0  0.33300  0.66700  0.08810  1.0000
  S   S2        1.0  0.66700  0.33300  0.08810  1.0000
  S   S3        1.0  0.00000  0.00000  0.09140  1.0000
  S   S4        1.0  0.00000  0.00000  0.40900  1.0000
  S   S5        1.0  0.33300  0.66700  0.41200  1.0000
  S   S6        1.0  0.66700  0.33300  0.41200  1.0000
  S   S7        1.0  0.33300  0.66700  0.58800  1.0000
  S   S8        1.0  0.66700  0.33300  0.58800  1.0000
  S   S9        1.0  0.00000  0.00000  0.59100  1.0000
  S   S10       1.0  0.00000  0.00000  0.90900  1.0000
  S   S11       1.0  0.33300  0.66700  0.91200  1.0000
  S   S12       1.0  0.66700  0.33300  0.91200  1.0000
  Ta  Ta1       1.0  0.67400  0.00000  0.00000  1.0000
  Ta  Ta2       1.0  0.32600  0.32600  0.00000  1.0000
  Ta  Ta3       1.0  0.00000  0.67400  0.00000  1.0000
  Ta  Ta4       1.0  0.32600  0.00000  0.50000  1.0000
  Ta  Ta5       1.0  0.00000  0.32600  0.50000  1.0000
  Ta  Ta6       1.0  0.67400  0.67400  0.50000  1.0000
