data_image0
_chemical_formula_structural       Bi6Cu2Pb2S12
_chemical_formula_sum              "Bi6 Cu2 Pb2 S12"
_cell_length_a       4.0348
_cell_length_b       11.1568
_cell_length_c       11.7376
_cell_angle_alpha    90
_cell_angle_beta     90
_cell_angle_gamma    90

_space_group_name_H-M_alt    "P 1"
_space_group_IT_number       1

loop_
  _space_group_symop_operation_xyz
  'x, y, z'

loop_
  _atom_site_type_symbol
  _atom_site_label
  _atom_site_symmetry_multiplicity
  _atom_site_fract_x
  _atom_site_fract_y
  _atom_site_fract_z
  _atom_site_occupancy
  Bi  Bi1       1.0  0.50000  0.78700  0.06310  1.0000
  Bi  Bi2       1.0  0.50000  0.56500  0.39400  1.0000
  Bi  Bi3       1.0  0.00000  0.92200  0.42600  1.0000
  Bi  Bi4       1.0  0.50000  0.21300  0.56300  1.0000
  Bi  Bi5       1.0  0.50000  0.43500  0.89400  1.0000
  Bi  Bi6       1.0  0.00000  0.07820  0.92600  1.0000
  Cu  Cu1       1.0  0.00000  0.53900  0.13900  1.0000
  Cu  Cu2       1.0  0.00000  0.46100  0.63900  1.0000
  Pb  Pb1       1.0  0.00000  0.25300  0.23400  1.0000
  Pb  Pb2       1.0  0.00000  0.74700  0.73400  1.0000
  S   S1        1.0  0.50000  0.20100  0.02900  1.0000
  S   S2        1.0  0.00000  0.94500  0.12200  1.0000
  S   S3        1.0  0.50000  0.44800  0.19300  1.0000
  S   S4        1.0  0.00000  0.68900  0.28900  1.0000
  S   S5        1.0  0.50000  0.10800  0.36300  1.0000
  S   S6        1.0  0.00000  0.37800  0.45900  1.0000
  S   S7        1.0  0.50000  0.79900  0.52900  1.0000
  S   S8        1.0  0.00000  0.05520  0.62200  1.0000
  S   S9        1.0  0.50000  0.55200  0.69300  1.0000
  S   S10       1.0  0.00000  0.31100  0.78900  1.0000
  S   S11       1.0  0.50000  0.89200  0.86300  1.0000
  S   S12       1.0  0.00000  0.62200  0.95900  1.0000
