data_image0
_chemical_formula_structural       C14Ho8
_chemical_formula_sum              "C14 Ho8"
_cell_length_a       3.6807
_cell_length_b       13.677
_cell_length_c       6.41523
_cell_angle_alpha    90
_cell_angle_beta     104.572
_cell_angle_gamma    90

_space_group_name_H-M_alt    "P 1"
_space_group_IT_number       1

loop_
  _space_group_symop_operation_xyz
  'x, y, z'

loop_
  _atom_site_type_symbol
  _atom_site_label
  _atom_site_symmetry_multiplicity
  _atom_site_fract_x
  _atom_site_fract_y
  _atom_site_fract_z
  _atom_site_occupancy
  C   C1        1.0  0.00000  0.00000  0.00000  1.0000
  C   C2        1.0  0.38300  0.69700  0.04950  1.0000
  C   C3        1.0  0.26800  0.60400  0.05110  1.0000
  C   C4        1.0  0.53800  0.78500  0.08090  1.0000
  C   C5        1.0  0.46200  0.28500  0.41900  1.0000
  C   C6        1.0  0.73200  0.10400  0.44900  1.0000
  C   C7        1.0  0.61700  0.19700  0.45000  1.0000
  C   C8        1.0  0.00000  0.50000  0.50000  1.0000
  C   C9        1.0  0.38300  0.80300  0.55000  1.0000
  C   C10       1.0  0.26800  0.89600  0.55100  1.0000
  C   C11       1.0  0.53800  0.71500  0.58100  1.0000
  C   C12       1.0  0.46200  0.21500  0.91900  1.0000
  C   C13       1.0  0.73200  0.39600  0.94900  1.0000
  C   C14       1.0  0.61700  0.30300  0.95000  1.0000
  Ho  Ho1       1.0  0.04930  0.16300  0.15800  1.0000
  Ho  Ho2       1.0  0.36500  0.44500  0.23900  1.0000
  Ho  Ho3       1.0  0.63500  0.94500  0.26100  1.0000
  Ho  Ho4       1.0  0.95100  0.66300  0.34200  1.0000
  Ho  Ho5       1.0  0.04930  0.33700  0.65800  1.0000
  Ho  Ho6       1.0  0.36500  0.05460  0.73900  1.0000
  Ho  Ho7       1.0  0.63500  0.55500  0.76100  1.0000
  Ho  Ho8       1.0  0.95100  0.83700  0.84200  1.0000
