data_image0
_chemical_formula_structural       F2K2O12Te6
_chemical_formula_sum              "F2 K2 O12 Te6"
_cell_length_a       7.06547
_cell_length_b       7.06559
_cell_length_c       7.06545
_cell_angle_alpha    95.8343
_cell_angle_beta     95.8351
_cell_angle_gamma    84.1667

_space_group_name_H-M_alt    "P 1"
_space_group_IT_number       1

loop_
  _space_group_symop_operation_xyz
  'x, y, z'

loop_
  _atom_site_type_symbol
  _atom_site_label
  _atom_site_symmetry_multiplicity
  _atom_site_fract_x
  _atom_site_fract_y
  _atom_site_fract_z
  _atom_site_occupancy
  F   F1        1.0  0.65100  0.65100  0.34900  1.0000
  F   F2        1.0  0.34900  0.34900  0.65100  1.0000
  K   K1        1.0  0.85100  0.85100  0.14900  1.0000
  K   K2        1.0  0.14900  0.14900  0.85100  1.0000
  O   O1        1.0  0.44900  0.34500  0.04860  1.0000
  O   O2        1.0  0.85800  0.34400  0.05890  1.0000
  O   O3        1.0  0.34400  0.94100  0.14200  1.0000
  O   O4        1.0  0.05890  0.14200  0.34400  1.0000
  O   O5        1.0  0.04860  0.55100  0.34500  1.0000
  O   O6        1.0  0.65600  0.04860  0.44900  1.0000
  O   O7        1.0  0.34400  0.95100  0.55100  1.0000
  O   O8        1.0  0.95100  0.44900  0.65500  1.0000
  O   O9        1.0  0.94100  0.85800  0.65600  1.0000
  O   O10       1.0  0.65600  0.05890  0.85800  1.0000
  O   O11       1.0  0.14200  0.65600  0.94100  1.0000
  O   O12       1.0  0.55100  0.65500  0.95100  1.0000
  Te  Te1       1.0  0.36100  0.64400  0.12800  1.0000
  Te  Te2       1.0  0.87200  0.36100  0.35600  1.0000
  Te  Te3       1.0  0.35600  0.12800  0.36100  1.0000
  Te  Te4       1.0  0.64400  0.87200  0.63900  1.0000
  Te  Te5       1.0  0.12800  0.63900  0.64400  1.0000
  Te  Te6       1.0  0.63900  0.35600  0.87200  1.0000
