data_image0
_chemical_formula_structural       O14Re2Tb6
_chemical_formula_sum              "O14 Re2 Tb6"
_cell_length_a       6.39748
_cell_length_b       6.39748
_cell_length_c       7.41681
_cell_angle_alpha    90
_cell_angle_beta     90
_cell_angle_gamma    69.6567

_space_group_name_H-M_alt    "P 1"
_space_group_IT_number       1

loop_
  _space_group_symop_operation_xyz
  'x, y, z'

loop_
  _atom_site_type_symbol
  _atom_site_label
  _atom_site_symmetry_multiplicity
  _atom_site_fract_x
  _atom_site_fract_y
  _atom_site_fract_z
  _atom_site_occupancy
  O   O1        1.0  0.06860  0.67600  0.03510  1.0000
  O   O2        1.0  0.32400  0.93100  0.03510  1.0000
  O   O3        1.0  0.93700  0.06260  0.25000  1.0000
  O   O4        1.0  0.39300  0.34200  0.25000  1.0000
  O   O5        1.0  0.65800  0.60700  0.25000  1.0000
  O   O6        1.0  0.06860  0.67600  0.46500  1.0000
  O   O7        1.0  0.32400  0.93100  0.46500  1.0000
  O   O8        1.0  0.67600  0.06860  0.53500  1.0000
  O   O9        1.0  0.93100  0.32400  0.53500  1.0000
  O   O10       1.0  0.34200  0.39300  0.75000  1.0000
  O   O11       1.0  0.60700  0.65800  0.75000  1.0000
  O   O12       1.0  0.06260  0.93700  0.75000  1.0000
  O   O13       1.0  0.67600  0.06860  0.96500  1.0000
  O   O14       1.0  0.93100  0.32400  0.96500  1.0000
  Re  Re1       1.0  0.00000  0.00000  0.00000  1.0000
  Re  Re2       1.0  0.00000  0.00000  0.50000  1.0000
  Tb  Tb1       1.0  0.50000  0.50000  0.00000  1.0000
  Tb  Tb2       1.0  0.02460  0.43200  0.25000  1.0000
  Tb  Tb3       1.0  0.56800  0.97500  0.25000  1.0000
  Tb  Tb4       1.0  0.50000  0.50000  0.50000  1.0000
  Tb  Tb5       1.0  0.43200  0.02460  0.75000  1.0000
  Tb  Tb6       1.0  0.97500  0.56800  0.75000  1.0000
