data_image0
_chemical_formula_structural       Tl6Yb16
_chemical_formula_sum              "Tl6 Yb16"
_cell_length_a       9.48335
_cell_length_b       9.54398
_cell_length_c       9.60909
_cell_angle_alpha    69.5836
_cell_angle_beta     78.7338
_cell_angle_gamma    60.025

_space_group_name_H-M_alt    "P 1"
_space_group_IT_number       1

loop_
  _space_group_symop_operation_xyz
  'x, y, z'

loop_
  _atom_site_type_symbol
  _atom_site_label
  _atom_site_symmetry_multiplicity
  _atom_site_fract_x
  _atom_site_fract_y
  _atom_site_fract_z
  _atom_site_occupancy
  Tl  Tl1       1.0  0.00000  0.00000  0.00000  1.0000
  Tl  Tl2       1.0  0.66200  0.66200  0.02390  1.0000
  Tl  Tl3       1.0  0.33500  0.83700  0.50000  1.0000
  Tl  Tl4       1.0  0.00000  0.50000  0.50000  1.0000
  Tl  Tl5       1.0  0.66500  0.16300  0.50000  1.0000
  Tl  Tl6       1.0  0.33800  0.33800  0.97600  1.0000
  Yb  Yb1       1.0  0.65100  0.26800  0.10800  1.0000
  Yb  Yb2       1.0  0.29500  0.00280  0.11300  1.0000
  Yb  Yb3       1.0  0.04970  0.62000  0.11400  1.0000
  Yb  Yb4       1.0  0.66700  0.79300  0.29400  1.0000
  Yb  Yb5       1.0  0.88200  0.34700  0.29500  1.0000
  Yb  Yb6       1.0  0.39900  0.56100  0.32900  1.0000
  Yb  Yb7       1.0  0.33000  0.20200  0.35100  1.0000
  Yb  Yb8       1.0  0.97800  0.90000  0.35500  1.0000
  Yb  Yb9       1.0  0.02190  0.10000  0.64500  1.0000
  Yb  Yb10      1.0  0.67000  0.79800  0.64900  1.0000
  Yb  Yb11      1.0  0.60100  0.43900  0.67100  1.0000
  Yb  Yb12      1.0  0.11800  0.65300  0.70500  1.0000
  Yb  Yb13      1.0  0.33300  0.20700  0.70600  1.0000
  Yb  Yb14      1.0  0.95000  0.38000  0.88600  1.0000
  Yb  Yb15      1.0  0.70500  0.99700  0.88700  1.0000
  Yb  Yb16      1.0  0.34900  0.73200  0.89200  1.0000
