data_image0
_chemical_formula_structural       Nb2O14Pr6
_chemical_formula_sum              "Nb2 O14 Pr6"
_cell_length_a       6.66452
_cell_length_b       6.66452
_cell_length_c       7.70369
_cell_angle_alpha    90
_cell_angle_beta     90
_cell_angle_gamma    68.3099

_space_group_name_H-M_alt    "P 1"
_space_group_IT_number       1

loop_
  _space_group_symop_operation_xyz
  'x, y, z'

loop_
  _atom_site_type_symbol
  _atom_site_label
  _atom_site_symmetry_multiplicity
  _atom_site_fract_x
  _atom_site_fract_y
  _atom_site_fract_z
  _atom_site_occupancy
  Nb  Nb1       1.0  0.50000  0.50000  0.00000  1.0000
  Nb  Nb2       1.0  0.50000  0.50000  0.50000  1.0000
  O   O1        1.0  0.18500  0.56100  0.03830  1.0000
  O   O2        1.0  0.43900  0.81500  0.03830  1.0000
  O   O3        1.0  0.10500  0.15600  0.25000  1.0000
  O   O4        1.0  0.57600  0.42400  0.25000  1.0000
  O   O5        1.0  0.84400  0.89500  0.25000  1.0000
  O   O6        1.0  0.18500  0.56100  0.46200  1.0000
  O   O7        1.0  0.43900  0.81500  0.46200  1.0000
  O   O8        1.0  0.56100  0.18500  0.53800  1.0000
  O   O9        1.0  0.81500  0.43900  0.53800  1.0000
  O   O10       1.0  0.15600  0.10500  0.75000  1.0000
  O   O11       1.0  0.42400  0.57600  0.75000  1.0000
  O   O12       1.0  0.89500  0.84400  0.75000  1.0000
  O   O13       1.0  0.56100  0.18500  0.96200  1.0000
  O   O14       1.0  0.81500  0.43900  0.96200  1.0000
  Pr  Pr1       1.0  0.00000  0.00000  0.00000  1.0000
  Pr  Pr2       1.0  0.47400  0.07750  0.25000  1.0000
  Pr  Pr3       1.0  0.92200  0.52600  0.25000  1.0000
  Pr  Pr4       1.0  0.00000  0.00000  0.50000  1.0000
  Pr  Pr5       1.0  0.07750  0.47400  0.75000  1.0000
  Pr  Pr6       1.0  0.52600  0.92200  0.75000  1.0000
