data_image0
_chemical_formula_structural       Cl6N2Nd8S6
_chemical_formula_sum              "Cl6 N2 Nd8 S6"
_cell_length_a       9.35436
_cell_length_b       9.35449
_cell_length_c       6.86881
_cell_angle_alpha    90
_cell_angle_beta     90
_cell_angle_gamma    120

_space_group_name_H-M_alt    "P 1"
_space_group_IT_number       1

loop_
  _space_group_symop_operation_xyz
  'x, y, z'

loop_
  _atom_site_type_symbol
  _atom_site_label
  _atom_site_symmetry_multiplicity
  _atom_site_fract_x
  _atom_site_fract_y
  _atom_site_fract_z
  _atom_site_occupancy
  Cl  Cl1       1.0  0.86900  0.73700  0.36200  1.0000
  Cl  Cl2       1.0  0.26300  0.13100  0.36200  1.0000
  Cl  Cl3       1.0  0.86900  0.13100  0.36200  1.0000
  Cl  Cl4       1.0  0.13100  0.26300  0.86200  1.0000
  Cl  Cl5       1.0  0.13100  0.86900  0.86200  1.0000
  Cl  Cl6       1.0  0.73700  0.86900  0.86200  1.0000
  N   N1        1.0  0.33300  0.66700  0.13100  1.0000
  N   N2        1.0  0.66700  0.33300  0.63100  1.0000
  Nd  Nd1       1.0  0.20200  0.40400  0.25200  1.0000
  Nd  Nd2       1.0  0.20200  0.79800  0.25200  1.0000
  Nd  Nd3       1.0  0.59600  0.79800  0.25200  1.0000
  Nd  Nd4       1.0  0.66700  0.33300  0.28600  1.0000
  Nd  Nd5       1.0  0.79800  0.59600  0.75200  1.0000
  Nd  Nd6       1.0  0.40400  0.20200  0.75200  1.0000
  Nd  Nd7       1.0  0.79800  0.20200  0.75200  1.0000
  Nd  Nd8       1.0  0.33300  0.66700  0.78600  1.0000
  S   S1        1.0  0.53200  0.46800  0.03020  1.0000
  S   S2        1.0  0.93500  0.46800  0.03020  1.0000
  S   S3        1.0  0.53200  0.06490  0.03030  1.0000
  S   S4        1.0  0.06490  0.53200  0.53000  1.0000
  S   S5        1.0  0.46800  0.53200  0.53000  1.0000
  S   S6        1.0  0.46800  0.93500  0.53000  1.0000
