data_image0
_chemical_formula_structural       Pd13Tl9
_chemical_formula_sum              "Pd13 Tl9"
_cell_length_a       9.08772
_cell_length_b       9.08774
_cell_length_c       5.70619
_cell_angle_alpha    90
_cell_angle_beta     89.9998
_cell_angle_gamma    120

_space_group_name_H-M_alt    "P 1"
_space_group_IT_number       1

loop_
  _space_group_symop_operation_xyz
  'x, y, z'

loop_
  _atom_site_type_symbol
  _atom_site_label
  _atom_site_symmetry_multiplicity
  _atom_site_fract_x
  _atom_site_fract_y
  _atom_site_fract_z
  _atom_site_occupancy
  Pd  Pd1       1.0  0.00000  0.00000  0.00000  1.0000
  Pd  Pd2       1.0  0.50000  0.00000  0.00000  1.0000
  Pd  Pd3       1.0  0.50000  0.50000  0.00000  1.0000
  Pd  Pd4       1.0  0.00000  0.50000  0.00000  1.0000
  Pd  Pd5       1.0  0.84100  0.68200  0.24800  1.0000
  Pd  Pd6       1.0  0.84100  0.15900  0.24800  1.0000
  Pd  Pd7       1.0  0.31800  0.15900  0.24800  1.0000
  Pd  Pd8       1.0  0.00000  0.50000  0.50000  1.0000
  Pd  Pd9       1.0  0.50000  0.50000  0.50000  1.0000
  Pd  Pd10      1.0  0.50000  0.00000  0.50000  1.0000
  Pd  Pd11      1.0  0.68200  0.84100  0.75200  1.0000
  Pd  Pd12      1.0  0.15900  0.31800  0.75200  1.0000
  Pd  Pd13      1.0  0.15900  0.84100  0.75200  1.0000
  Tl  Tl1       1.0  0.19300  0.38700  0.24600  1.0000
  Tl  Tl2       1.0  0.19300  0.80700  0.24600  1.0000
  Tl  Tl3       1.0  0.61300  0.80700  0.24600  1.0000
  Tl  Tl4       1.0  0.66700  0.33300  0.25100  1.0000
  Tl  Tl5       1.0  0.00000  0.00000  0.50000  1.0000
  Tl  Tl6       1.0  0.33300  0.66700  0.74900  1.0000
  Tl  Tl7       1.0  0.80700  0.61300  0.75400  1.0000
  Tl  Tl8       1.0  0.80700  0.19300  0.75400  1.0000
  Tl  Tl9       1.0  0.38700  0.19300  0.75400  1.0000
