data_image0
_chemical_formula_structural       Lu4O14Ru4
_chemical_formula_sum              "Lu4 O14 Ru4"
_cell_length_a       7.08938
_cell_length_b       7.08938
_cell_length_c       7.08938
_cell_angle_alpha    120
_cell_angle_beta     90
_cell_angle_gamma    120

_space_group_name_H-M_alt    "P 1"
_space_group_IT_number       1

loop_
  _space_group_symop_operation_xyz
  'x, y, z'

loop_
  _atom_site_type_symbol
  _atom_site_label
  _atom_site_symmetry_multiplicity
  _atom_site_fract_x
  _atom_site_fract_y
  _atom_site_fract_z
  _atom_site_occupancy
  Lu  Lu1       1.0  0.00000  0.50000  0.00000  1.0000
  Lu  Lu2       1.0  0.00000  0.00000  0.50000  1.0000
  Lu  Lu3       1.0  0.00000  0.50000  0.50000  1.0000
  Lu  Lu4       1.0  0.50000  0.00000  0.50000  1.0000
  O   O1        1.0  0.84200  0.18500  0.09240  1.0000
  O   O2        1.0  0.40800  0.75000  0.09240  1.0000
  O   O3        1.0  0.84200  0.75000  0.09240  1.0000
  O   O4        1.0  0.59200  0.25000  0.34200  1.0000
  O   O5        1.0  0.59200  0.68500  0.34200  1.0000
  O   O6        1.0  0.15800  0.25000  0.34200  1.0000
  O   O7        1.0  0.12500  0.75000  0.37500  1.0000
  O   O8        1.0  0.87500  0.25000  0.62500  1.0000
  O   O9        1.0  0.40800  0.31500  0.65800  1.0000
  O   O10       1.0  0.40800  0.75000  0.65800  1.0000
  O   O11       1.0  0.84200  0.75000  0.65800  1.0000
  O   O12       1.0  0.59200  0.25000  0.90800  1.0000
  O   O13       1.0  0.15800  0.81500  0.90800  1.0000
  O   O14       1.0  0.15800  0.25000  0.90800  1.0000
  Ru  Ru1       1.0  0.00000  0.00000  0.00000  1.0000
  Ru  Ru2       1.0  0.50000  0.00000  0.00000  1.0000
  Ru  Ru3       1.0  0.50000  0.50000  0.00000  1.0000
  Ru  Ru4       1.0  0.50000  0.50000  0.50000  1.0000
