data_image0
_chemical_formula_structural       Cs4Ni2P4S12
_chemical_formula_sum              "Cs4 Ni2 P4 S12"
_cell_length_a       5.94704
_cell_length_b       12.8427
_cell_length_c       7.77347
_cell_angle_alpha    90
_cell_angle_beta     93.6032
_cell_angle_gamma    90

_space_group_name_H-M_alt    "P 1"
_space_group_IT_number       1

loop_
  _space_group_symop_operation_xyz
  'x, y, z'

loop_
  _atom_site_type_symbol
  _atom_site_label
  _atom_site_symmetry_multiplicity
  _atom_site_fract_x
  _atom_site_fract_y
  _atom_site_fract_z
  _atom_site_occupancy
  Cs  Cs1       1.0  0.73500  0.32800  0.03050  1.0000
  Cs  Cs2       1.0  0.76500  0.82800  0.46900  1.0000
  Cs  Cs3       1.0  0.23500  0.17200  0.53100  1.0000
  Cs  Cs4       1.0  0.26500  0.67200  0.96900  1.0000
  Ni  Ni1       1.0  0.00000  0.00000  0.00000  1.0000
  Ni  Ni2       1.0  0.50000  0.50000  0.50000  1.0000
  P   P1        1.0  0.45200  0.03840  0.12000  1.0000
  P   P2        1.0  0.04820  0.53800  0.38000  1.0000
  P   P3        1.0  0.95200  0.46200  0.62000  1.0000
  P   P4        1.0  0.54800  0.96200  0.88000  1.0000
  S   S1        1.0  0.24100  0.15600  0.03770  1.0000
  S   S2        1.0  0.75700  0.07410  0.23400  1.0000
  S   S3        1.0  0.25600  0.93200  0.23400  1.0000
  S   S4        1.0  0.24400  0.43200  0.26600  1.0000
  S   S5        1.0  0.74300  0.57400  0.26600  1.0000
  S   S6        1.0  0.25900  0.65600  0.46200  1.0000
  S   S7        1.0  0.74100  0.34400  0.53800  1.0000
  S   S8        1.0  0.25700  0.42600  0.73400  1.0000
  S   S9        1.0  0.75600  0.56800  0.73400  1.0000
  S   S10       1.0  0.74400  0.06770  0.76600  1.0000
  S   S11       1.0  0.24300  0.92600  0.76600  1.0000
  S   S12       1.0  0.75900  0.84400  0.96200  1.0000
