data_image0
_chemical_formula_structural       Ce2Cu6Rb4Te10
_chemical_formula_sum              "Ce2 Cu6 Rb4 Te10"
_cell_length_a       6.2394
_cell_length_b       9.87646
_cell_length_c       12.6836
_cell_angle_alpha    111.255
_cell_angle_beta     90
_cell_angle_gamma    108.413

_space_group_name_H-M_alt    "P 1"
_space_group_IT_number       1

loop_
  _space_group_symop_operation_xyz
  'x, y, z'

loop_
  _atom_site_type_symbol
  _atom_site_label
  _atom_site_symmetry_multiplicity
  _atom_site_fract_x
  _atom_site_fract_y
  _atom_site_fract_z
  _atom_site_occupancy
  Ce  Ce1       1.0  0.29900  0.59700  0.18700  1.0000
  Ce  Ce2       1.0  0.70100  0.40300  0.81300  1.0000
  Cu  Cu1       1.0  0.24900  0.00000  0.00000  1.0000
  Cu  Cu2       1.0  0.75100  0.00000  0.00000  1.0000
  Cu  Cu3       1.0  0.39500  0.28500  0.00101  1.0000
  Cu  Cu4       1.0  0.89000  0.28500  0.00101  1.0000
  Cu  Cu5       1.0  0.11000  0.71500  0.99900  1.0000
  Cu  Cu6       1.0  0.60500  0.71500  0.99900  1.0000
  Rb  Rb1       1.0  0.99200  0.98300  0.31500  1.0000
  Rb  Rb2       1.0  0.67400  0.34800  0.32000  1.0000
  Rb  Rb3       1.0  0.32600  0.65200  0.68000  1.0000
  Rb  Rb4       1.0  0.00828  0.01660  0.68500  1.0000
  Te  Te1       1.0  0.77700  0.55400  0.10200  1.0000
  Te  Te2       1.0  0.46200  0.92300  0.14500  1.0000
  Te  Te3       1.0  0.11400  0.22800  0.14500  1.0000
  Te  Te4       1.0  0.13300  0.72400  0.43100  1.0000
  Te  Te5       1.0  0.59100  0.72400  0.43100  1.0000
  Te  Te6       1.0  0.40900  0.27600  0.56900  1.0000
  Te  Te7       1.0  0.86700  0.27600  0.56900  1.0000
  Te  Te8       1.0  0.88600  0.77200  0.85500  1.0000
  Te  Te9       1.0  0.53800  0.07700  0.85500  1.0000
  Te  Te10      1.0  0.22300  0.44600  0.89800  1.0000
