data_image0
_chemical_formula_structural       In9Ni13
_chemical_formula_sum              "In9 Ni13"
_cell_length_a       6.72624
_cell_length_b       6.72624
_cell_length_c       8.50538
_cell_angle_alpha    108.047
_cell_angle_beta     107.962
_cell_angle_gamma    102.609

_space_group_name_H-M_alt    "P 1"
_space_group_IT_number       1

loop_
  _space_group_symop_operation_xyz
  'x, y, z'

loop_
  _atom_site_type_symbol
  _atom_site_label
  _atom_site_symmetry_multiplicity
  _atom_site_fract_x
  _atom_site_fract_y
  _atom_site_fract_z
  _atom_site_occupancy
  In  In1       1.0  0.17400  0.94100  0.11600  1.0000
  In  In2       1.0  0.71100  0.45600  0.16700  1.0000
  In  In3       1.0  0.83000  0.05860  0.30900  1.0000
  In  In4       1.0  0.25000  0.47900  0.30900  1.0000
  In  In5       1.0  0.50000  0.00000  0.50000  1.0000
  In  In6       1.0  0.75000  0.52100  0.69100  1.0000
  In  In7       1.0  0.17000  0.94100  0.69100  1.0000
  In  In8       1.0  0.28900  0.54400  0.83300  1.0000
  In  In9       1.0  0.82600  0.05860  0.88400  1.0000
  Ni  Ni1       1.0  0.50000  0.00000  0.00000  1.0000
  Ni  Ni2       1.0  0.26500  0.26500  0.00000  1.0000
  Ni  Ni3       1.0  0.00000  0.50000  0.00000  1.0000
  Ni  Ni4       1.0  0.73500  0.73500  0.00000  1.0000
  Ni  Ni5       1.0  0.45300  0.72300  0.17600  1.0000
  Ni  Ni6       1.0  0.54500  0.27700  0.34100  1.0000
  Ni  Ni7       1.0  0.06360  0.79600  0.34100  1.0000
  Ni  Ni8       1.0  0.74000  0.74100  0.48100  1.0000
  Ni  Ni9       1.0  0.00000  0.50000  0.50000  1.0000
  Ni  Ni10      1.0  0.26000  0.25900  0.51900  1.0000
  Ni  Ni11      1.0  0.93600  0.20400  0.65900  1.0000
  Ni  Ni12      1.0  0.45500  0.72300  0.65900  1.0000
  Ni  Ni13      1.0  0.54700  0.27700  0.82400  1.0000
