data_image0
_chemical_formula_structural       Ca8Pd8Si6
_chemical_formula_sum              "Ca8 Pd8 Si6"
_cell_length_a       5.67087
_cell_length_b       7.81092
_cell_length_c       10.8602
_cell_angle_alpha    108.389
_cell_angle_beta     105.134
_cell_angle_gamma    90

_space_group_name_H-M_alt    "P 1"
_space_group_IT_number       1

loop_
  _space_group_symop_operation_xyz
  'x, y, z'

loop_
  _atom_site_type_symbol
  _atom_site_label
  _atom_site_symmetry_multiplicity
  _atom_site_fract_x
  _atom_site_fract_y
  _atom_site_fract_z
  _atom_site_occupancy
  Ca  Ca1       1.0  0.20000  0.67300  0.13500  1.0000
  Ca  Ca2       1.0  0.93500  0.17300  0.13500  1.0000
  Ca  Ca3       1.0  0.79600  0.90700  0.34000  1.0000
  Ca  Ca4       1.0  0.54400  0.40700  0.34000  1.0000
  Ca  Ca5       1.0  0.45600  0.59300  0.66000  1.0000
  Ca  Ca6       1.0  0.20400  0.09350  0.66000  1.0000
  Ca  Ca7       1.0  0.06520  0.82700  0.86500  1.0000
  Ca  Ca8       1.0  0.80000  0.32700  0.86500  1.0000
  Pd  Pd1       1.0  0.69700  0.52400  0.12400  1.0000
  Pd  Pd2       1.0  0.42800  0.02380  0.12400  1.0000
  Pd  Pd3       1.0  0.36000  0.81700  0.44400  1.0000
  Pd  Pd4       1.0  0.08370  0.31700  0.44400  1.0000
  Pd  Pd5       1.0  0.91600  0.68300  0.55600  1.0000
  Pd  Pd6       1.0  0.64000  0.18300  0.55600  1.0000
  Pd  Pd7       1.0  0.57200  0.97600  0.87600  1.0000
  Pd  Pd8       1.0  0.30300  0.47600  0.87600  1.0000
  Si  Si1       1.0  0.38000  0.25000  0.00000  1.0000
  Si  Si2       1.0  0.62000  0.75000  0.00000  1.0000
  Si  Si3       1.0  0.03890  0.56400  0.34300  1.0000
  Si  Si4       1.0  0.30400  0.06400  0.34300  1.0000
  Si  Si5       1.0  0.69600  0.93600  0.65700  1.0000
  Si  Si6       1.0  0.96100  0.43600  0.65700  1.0000
