data_image0
_chemical_formula_structural       Cs2Nb4Nd2O14
_chemical_formula_sum              "Cs2 Nb4 Nd2 O14"
_cell_length_a       5.48494
_cell_length_b       5.44414
_cell_length_c       11.1435
_cell_angle_alpha    90
_cell_angle_beta     90
_cell_angle_gamma    90

_space_group_name_H-M_alt    "P 1"
_space_group_IT_number       1

loop_
  _space_group_symop_operation_xyz
  'x, y, z'

loop_
  _atom_site_type_symbol
  _atom_site_label
  _atom_site_symmetry_multiplicity
  _atom_site_fract_x
  _atom_site_fract_y
  _atom_site_fract_z
  _atom_site_occupancy
  Cs  Cs1       1.0  0.25100  0.26800  0.50000  1.0000
  Cs  Cs2       1.0  0.75100  0.73200  0.50000  1.0000
  Nb  Nb1       1.0  0.74000  0.25100  0.20600  1.0000
  Nb  Nb2       1.0  0.24000  0.74900  0.20600  1.0000
  Nb  Nb3       1.0  0.74000  0.25100  0.79400  1.0000
  Nb  Nb4       1.0  0.24000  0.74900  0.79400  1.0000
  Nd  Nd1       1.0  0.28000  0.24800  0.00000  1.0000
  Nd  Nd2       1.0  0.78000  0.75200  0.00000  1.0000
  O   O1        1.0  0.71000  0.32900  0.00000  1.0000
  O   O2        1.0  0.21000  0.67100  0.00000  1.0000
  O   O3        1.0  0.01440  0.03710  0.14500  1.0000
  O   O4        1.0  0.51400  0.96300  0.14500  1.0000
  O   O5        1.0  0.41900  0.43800  0.19700  1.0000
  O   O6        1.0  0.91900  0.56200  0.19700  1.0000
  O   O7        1.0  0.75100  0.19600  0.36400  1.0000
  O   O8        1.0  0.25100  0.80400  0.36400  1.0000
  O   O9        1.0  0.75100  0.19600  0.63600  1.0000
  O   O10       1.0  0.25100  0.80400  0.63600  1.0000
  O   O11       1.0  0.41900  0.43800  0.80300  1.0000
  O   O12       1.0  0.91900  0.56200  0.80300  1.0000
  O   O13       1.0  0.01440  0.03710  0.85500  1.0000
  O   O14       1.0  0.51400  0.96300  0.85500  1.0000
