data_image0
_chemical_formula_structural       I4O16U2
_chemical_formula_sum              "I4 O16 U2"
_cell_length_a       4.19487
_cell_length_b       16.5437
_cell_length_c       5.17108
_cell_angle_alpha    90
_cell_angle_beta     107.748
_cell_angle_gamma    90

_space_group_name_H-M_alt    "P 1"
_space_group_IT_number       1

loop_
  _space_group_symop_operation_xyz
  'x, y, z'

loop_
  _atom_site_type_symbol
  _atom_site_label
  _atom_site_symmetry_multiplicity
  _atom_site_fract_x
  _atom_site_fract_y
  _atom_site_fract_z
  _atom_site_occupancy
  I   I1        1.0  0.32000  0.16400  0.21300  1.0000
  I   I2        1.0  0.18000  0.66400  0.28700  1.0000
  I   I3        1.0  0.82000  0.33600  0.71300  1.0000
  I   I4        1.0  0.68000  0.83600  0.78700  1.0000
  O   O1        1.0  0.95600  0.27400  0.01810  1.0000
  O   O2        1.0  0.03680  0.56500  0.11200  1.0000
  O   O3        1.0  0.87600  0.94300  0.18900  1.0000
  O   O4        1.0  0.58700  0.63300  0.24500  1.0000
  O   O5        1.0  0.91300  0.13300  0.25500  1.0000
  O   O6        1.0  0.62400  0.44300  0.31100  1.0000
  O   O7        1.0  0.46300  0.06490  0.38800  1.0000
  O   O8        1.0  0.54400  0.77400  0.48200  1.0000
  O   O9        1.0  0.45600  0.22600  0.51800  1.0000
  O   O10       1.0  0.53700  0.93500  0.61200  1.0000
  O   O11       1.0  0.37600  0.55700  0.68900  1.0000
  O   O12       1.0  0.08720  0.86700  0.74500  1.0000
  O   O13       1.0  0.41300  0.36700  0.75500  1.0000
  O   O14       1.0  0.12400  0.05650  0.81100  1.0000
  O   O15       1.0  0.96300  0.43500  0.88800  1.0000
  O   O16       1.0  0.04390  0.72600  0.98200  1.0000
  U   U1        1.0  0.50000  0.50000  0.00000  1.0000
  U   U2        1.0  0.00000  0.00000  0.50000  1.0000
