data_image0
_chemical_formula_structural       Cu12Sn10
_chemical_formula_sum              "Cu12 Sn10"
_cell_length_a       6.63826
_cell_length_b       6.63826
_cell_length_c       9.89206
_cell_angle_alpha    97.299
_cell_angle_beta     97.299
_cell_angle_gamma    67.0161

_space_group_name_H-M_alt    "P 1"
_space_group_IT_number       1

loop_
  _space_group_symop_operation_xyz
  'x, y, z'

loop_
  _atom_site_type_symbol
  _atom_site_label
  _atom_site_symmetry_multiplicity
  _atom_site_fract_x
  _atom_site_fract_y
  _atom_site_fract_z
  _atom_site_occupancy
  Cu  Cu1       1.0  0.00000  0.00000  0.00000  1.0000
  Cu  Cu2       1.0  0.81000  0.80200  0.11000  1.0000
  Cu  Cu3       1.0  0.62800  0.57400  0.20300  1.0000
  Cu  Cu4       1.0  0.84000  0.16000  0.25000  1.0000
  Cu  Cu5       1.0  0.42600  0.37200  0.29700  1.0000
  Cu  Cu6       1.0  0.19800  0.19000  0.39000  1.0000
  Cu  Cu7       1.0  0.00000  0.00000  0.50000  1.0000
  Cu  Cu8       1.0  0.80200  0.81000  0.61000  1.0000
  Cu  Cu9       1.0  0.57400  0.62800  0.70300  1.0000
  Cu  Cu10      1.0  0.16000  0.84000  0.75000  1.0000
  Cu  Cu11      1.0  0.37200  0.42600  0.79700  1.0000
  Cu  Cu12      1.0  0.19000  0.19800  0.89000  1.0000
  Sn  Sn1       1.0  0.55400  0.22900  0.02880  1.0000
  Sn  Sn2       1.0  0.05960  0.37000  0.14200  1.0000
  Sn  Sn3       1.0  0.20100  0.79900  0.25000  1.0000
  Sn  Sn4       1.0  0.63000  0.94000  0.35800  1.0000
  Sn  Sn5       1.0  0.77100  0.44600  0.47100  1.0000
  Sn  Sn6       1.0  0.22900  0.55400  0.52900  1.0000
  Sn  Sn7       1.0  0.37000  0.05960  0.64200  1.0000
  Sn  Sn8       1.0  0.79900  0.20100  0.75000  1.0000
  Sn  Sn9       1.0  0.94000  0.63000  0.85800  1.0000
  Sn  Sn10      1.0  0.44600  0.77100  0.97100  1.0000
