data_image0
_chemical_formula_structural       O14Pr6Re2
_chemical_formula_sum              "O14 Pr6 Re2"
_cell_length_a       6.64915
_cell_length_b       6.64915
_cell_length_c       7.59022
_cell_angle_alpha    90
_cell_angle_beta     90
_cell_angle_gamma    68.0349

_space_group_name_H-M_alt    "P 1"
_space_group_IT_number       1

loop_
  _space_group_symop_operation_xyz
  'x, y, z'

loop_
  _atom_site_type_symbol
  _atom_site_label
  _atom_site_symmetry_multiplicity
  _atom_site_fract_x
  _atom_site_fract_y
  _atom_site_fract_z
  _atom_site_occupancy
  O   O1        1.0  0.06010  0.68800  0.03950  1.0000
  O   O2        1.0  0.31200  0.94000  0.03950  1.0000
  O   O3        1.0  0.92400  0.07600  0.25000  1.0000
  O   O4        1.0  0.39700  0.34100  0.25000  1.0000
  O   O5        1.0  0.65900  0.60300  0.25000  1.0000
  O   O6        1.0  0.06010  0.68800  0.46100  1.0000
  O   O7        1.0  0.31200  0.94000  0.46100  1.0000
  O   O8        1.0  0.68800  0.06010  0.53900  1.0000
  O   O9        1.0  0.94000  0.31200  0.53900  1.0000
  O   O10       1.0  0.34100  0.39700  0.75000  1.0000
  O   O11       1.0  0.60300  0.65900  0.75000  1.0000
  O   O12       1.0  0.07600  0.92400  0.75000  1.0000
  O   O13       1.0  0.68800  0.06010  0.96100  1.0000
  O   O14       1.0  0.94000  0.31200  0.96100  1.0000
  Pr  Pr1       1.0  0.50000  0.50000  0.00000  1.0000
  Pr  Pr2       1.0  0.03120  0.41300  0.25000  1.0000
  Pr  Pr3       1.0  0.58700  0.96900  0.25000  1.0000
  Pr  Pr4       1.0  0.50000  0.50000  0.50000  1.0000
  Pr  Pr5       1.0  0.41300  0.03120  0.75000  1.0000
  Pr  Pr6       1.0  0.96900  0.58700  0.75000  1.0000
  Re  Re1       1.0  0.00000  0.00000  0.00000  1.0000
  Re  Re2       1.0  0.00000  0.00000  0.50000  1.0000
