data_image0
_chemical_formula_structural       Cu6Er4Rb2S10
_chemical_formula_sum              "Cu6 Er4 Rb2 S10"
_cell_length_a       3.92462
_cell_length_b       7.22837
_cell_length_c       16.3925
_cell_angle_alpha    90
_cell_angle_beta     90
_cell_angle_gamma    74.248

_space_group_name_H-M_alt    "P 1"
_space_group_IT_number       1

loop_
  _space_group_symop_operation_xyz
  'x, y, z'

loop_
  _atom_site_type_symbol
  _atom_site_label
  _atom_site_symmetry_multiplicity
  _atom_site_fract_x
  _atom_site_fract_y
  _atom_site_fract_z
  _atom_site_occupancy
  Cu  Cu1       1.0  0.08290  0.83400  0.03900  1.0000
  Cu  Cu2       1.0  0.84700  0.30600  0.25000  1.0000
  Cu  Cu3       1.0  0.08290  0.83400  0.46100  1.0000
  Cu  Cu4       1.0  0.91700  0.16600  0.53900  1.0000
  Cu  Cu5       1.0  0.15300  0.69400  0.75000  1.0000
  Cu  Cu6       1.0  0.91700  0.16600  0.96100  1.0000
  Er  Er1       1.0  0.30800  0.38400  0.09330  1.0000
  Er  Er2       1.0  0.30800  0.38400  0.40700  1.0000
  Er  Er3       1.0  0.69200  0.61600  0.59300  1.0000
  Er  Er4       1.0  0.69200  0.61600  0.90700  1.0000
  Rb  Rb1       1.0  0.56600  0.86800  0.25000  1.0000
  Rb  Rb2       1.0  0.43400  0.13200  0.75000  1.0000
  S   S1        1.0  0.66800  0.66300  0.06930  1.0000
  S   S2        1.0  0.93800  0.12400  0.11500  1.0000
  S   S3        1.0  0.26000  0.47900  0.25000  1.0000
  S   S4        1.0  0.93800  0.12400  0.38500  1.0000
  S   S5        1.0  0.66800  0.66300  0.43100  1.0000
  S   S6        1.0  0.33200  0.33700  0.56900  1.0000
  S   S7        1.0  0.06210  0.87600  0.61500  1.0000
  S   S8        1.0  0.74000  0.52100  0.75000  1.0000
  S   S9        1.0  0.06210  0.87600  0.88500  1.0000
  S   S10       1.0  0.33200  0.33700  0.93100  1.0000
