data_image0
_chemical_formula_structural       Cd8Se12Si2
_chemical_formula_sum              "Cd8 Se12 Si2"
_cell_length_a       7.44541
_cell_length_b       7.48106
_cell_length_c       12.8989
_cell_angle_alpha    106.288
_cell_angle_beta     106.775
_cell_angle_gamma    60.1575

_space_group_name_H-M_alt    "P 1"
_space_group_IT_number       1

loop_
  _space_group_symop_operation_xyz
  'x, y, z'

loop_
  _atom_site_type_symbol
  _atom_site_label
  _atom_site_symmetry_multiplicity
  _atom_site_fract_x
  _atom_site_fract_y
  _atom_site_fract_z
  _atom_site_occupancy
  Cd  Cd1       1.0  0.91900  0.51400  0.14300  1.0000
  Cd  Cd2       1.0  0.22600  0.84200  0.15300  1.0000
  Cd  Cd3       1.0  0.72300  0.26100  0.31000  1.0000
  Cd  Cd4       1.0  0.23200  0.77800  0.45800  1.0000
  Cd  Cd5       1.0  0.71100  0.01370  0.64300  1.0000
  Cd  Cd6       1.0  0.08540  0.34200  0.65300  1.0000
  Cd  Cd7       1.0  0.32600  0.76100  0.81000  1.0000
  Cd  Cd8       1.0  0.44900  0.27800  0.95800  1.0000
  Se  Se1       1.0  0.58200  0.47700  0.14600  1.0000
  Se  Se2       1.0  0.29300  0.18200  0.21100  1.0000
  Se  Se3       1.0  0.97400  0.84700  0.26600  1.0000
  Se  Se4       1.0  0.52000  0.89200  0.44300  1.0000
  Se  Se5       1.0  0.00029  0.41900  0.44600  1.0000
  Se  Se6       1.0  0.52600  0.38500  0.48200  1.0000
  Se  Se7       1.0  0.08580  0.97700  0.64600  1.0000
  Se  Se8       1.0  0.73600  0.68200  0.71100  1.0000
  Se  Se9       1.0  0.44500  0.34700  0.76600  1.0000
  Se  Se10      1.0  0.03040  0.39200  0.94300  1.0000
  Se  Se11      1.0  0.02720  0.91900  0.94600  1.0000
  Se  Se12      1.0  0.57100  0.88500  0.98200  1.0000
  Si  Si1       1.0  0.32100  0.21800  0.39600  1.0000
  Si  Si2       1.0  0.85700  0.71800  0.89600  1.0000
