data_image0
_chemical_formula_structural       Sn10Ti12
_chemical_formula_sum              "Sn10 Ti12"
_cell_length_a       9.22305
_cell_length_b       9.22305
_cell_length_c       5.67169
_cell_angle_alpha    90
_cell_angle_beta     90
_cell_angle_gamma    119.996

_space_group_name_H-M_alt    "P 1"
_space_group_IT_number       1

loop_
  _space_group_symop_operation_xyz
  'x, y, z'

loop_
  _atom_site_type_symbol
  _atom_site_label
  _atom_site_symmetry_multiplicity
  _atom_site_fract_x
  _atom_site_fract_y
  _atom_site_fract_z
  _atom_site_occupancy
  Sn  Sn1       1.0  0.33300  0.66700  0.25000  1.0000
  Sn  Sn2       1.0  0.66700  0.33300  0.75000  1.0000
  Sn  Sn3       1.0  0.79600  0.59200  0.25000  1.0000
  Sn  Sn4       1.0  0.20400  0.40800  0.75000  1.0000
  Sn  Sn5       1.0  0.40800  0.20400  0.25000  1.0000
  Sn  Sn6       1.0  0.79600  0.20400  0.25000  1.0000
  Sn  Sn7       1.0  0.20400  0.79600  0.75000  1.0000
  Sn  Sn8       1.0  0.59200  0.79600  0.75000  1.0000
  Sn  Sn9       1.0  0.00000  0.00000  0.00000  1.0000
  Sn  Sn10      1.0  0.00000  0.00000  0.50000  1.0000
  Ti  Ti1       1.0  0.50000  0.00000  0.00000  1.0000
  Ti  Ti2       1.0  0.50000  0.00000  0.50000  1.0000
  Ti  Ti3       1.0  0.00000  0.50000  0.00000  1.0000
  Ti  Ti4       1.0  0.50000  0.50000  0.00000  1.0000
  Ti  Ti5       1.0  0.50000  0.50000  0.50000  1.0000
  Ti  Ti6       1.0  0.00000  0.50000  0.50000  1.0000
  Ti  Ti7       1.0  0.15600  0.31300  0.25000  1.0000
  Ti  Ti8       1.0  0.84400  0.68700  0.75000  1.0000
  Ti  Ti9       1.0  0.68700  0.84400  0.25000  1.0000
  Ti  Ti10      1.0  0.15600  0.84400  0.25000  1.0000
  Ti  Ti11      1.0  0.84400  0.15600  0.75000  1.0000
  Ti  Ti12      1.0  0.31300  0.15600  0.75000  1.0000
