data_image0
_chemical_formula_structural       Br4Cu4O10Te4
_chemical_formula_sum              "Br4 Cu4 O10 Te4"
_cell_length_a       7.69182
_cell_length_b       7.69182
_cell_length_c       6.41091
_cell_angle_alpha    90
_cell_angle_beta     90
_cell_angle_gamma    90

_space_group_name_H-M_alt    "P 1"
_space_group_IT_number       1

loop_
  _space_group_symop_operation_xyz
  'x, y, z'

loop_
  _atom_site_type_symbol
  _atom_site_label
  _atom_site_symmetry_multiplicity
  _atom_site_fract_x
  _atom_site_fract_y
  _atom_site_fract_z
  _atom_site_occupancy
  Br  Br1       1.0  0.92100  0.21700  0.19500  1.0000
  Br  Br2       1.0  0.07860  0.78300  0.19500  1.0000
  Br  Br3       1.0  0.21700  0.07860  0.80500  1.0000
  Br  Br4       1.0  0.78300  0.92100  0.80500  1.0000
  Cu  Cu1       1.0  0.73500  0.46300  0.15300  1.0000
  Cu  Cu2       1.0  0.26500  0.53700  0.15300  1.0000
  Cu  Cu3       1.0  0.46300  0.26500  0.84700  1.0000
  Cu  Cu4       1.0  0.53700  0.73500  0.84700  1.0000
  O   O1        1.0  0.41300  0.32900  0.13300  1.0000
  O   O2        1.0  0.58700  0.67100  0.13300  1.0000
  O   O3        1.0  0.50000  0.00000  0.23400  1.0000
  O   O4        1.0  0.23900  0.46500  0.44100  1.0000
  O   O5        1.0  0.76100  0.53500  0.44100  1.0000
  O   O6        1.0  0.53500  0.23900  0.55900  1.0000
  O   O7        1.0  0.46500  0.76100  0.55900  1.0000
  O   O8        1.0  0.00000  0.50000  0.76600  1.0000
  O   O9        1.0  0.67100  0.41300  0.86700  1.0000
  O   O10       1.0  0.32900  0.58700  0.86700  1.0000
  Te  Te1       1.0  0.35300  0.17900  0.36500  1.0000
  Te  Te2       1.0  0.64700  0.82100  0.36500  1.0000
  Te  Te3       1.0  0.82100  0.35300  0.63500  1.0000
  Te  Te4       1.0  0.17900  0.64700  0.63500  1.0000
