data_image0
_chemical_formula_structural       Er4O14Sn4
_chemical_formula_sum              "Er4 O14 Sn4"
_cell_length_a       7.3193
_cell_length_b       7.3193
_cell_length_c       7.3193
_cell_angle_alpha    120
_cell_angle_beta     90
_cell_angle_gamma    120

_space_group_name_H-M_alt    "P 1"
_space_group_IT_number       1

loop_
  _space_group_symop_operation_xyz
  'x, y, z'

loop_
  _atom_site_type_symbol
  _atom_site_label
  _atom_site_symmetry_multiplicity
  _atom_site_fract_x
  _atom_site_fract_y
  _atom_site_fract_z
  _atom_site_occupancy
  Er  Er1       1.0  0.00000  0.50000  0.00000  1.0000
  Er  Er2       1.0  0.00000  0.50000  0.50000  1.0000
  Er  Er3       1.0  0.00000  0.00000  0.50000  1.0000
  Er  Er4       1.0  0.50000  0.00000  0.50000  1.0000
  O   O1        1.0  0.40900  0.75000  0.09120  1.0000
  O   O2        1.0  0.84100  0.75000  0.09120  1.0000
  O   O3        1.0  0.84100  0.18200  0.09120  1.0000
  O   O4        1.0  0.15900  0.25000  0.34100  1.0000
  O   O5        1.0  0.59100  0.68200  0.34100  1.0000
  O   O6        1.0  0.59100  0.25000  0.34100  1.0000
  O   O7        1.0  0.12500  0.75000  0.37500  1.0000
  O   O8        1.0  0.87500  0.25000  0.62500  1.0000
  O   O9        1.0  0.40900  0.31800  0.65900  1.0000
  O   O10       1.0  0.40900  0.75000  0.65900  1.0000
  O   O11       1.0  0.84100  0.75000  0.65900  1.0000
  O   O12       1.0  0.15900  0.81800  0.90900  1.0000
  O   O13       1.0  0.15900  0.25000  0.90900  1.0000
  O   O14       1.0  0.59100  0.25000  0.90900  1.0000
  Sn  Sn1       1.0  0.00000  0.00000  0.00000  1.0000
  Sn  Sn2       1.0  0.50000  0.00000  0.00000  1.0000
  Sn  Sn3       1.0  0.50000  0.50000  0.00000  1.0000
  Sn  Sn4       1.0  0.50000  0.50000  0.50000  1.0000
