data_image0
_chemical_formula_structural       Fe4K8O10
_chemical_formula_sum              "Fe4 K8 O10"
_cell_length_a       6.38881
_cell_length_b       5.93329
_cell_length_c       10.0011
_cell_angle_alpha    90
_cell_angle_beta     104.059
_cell_angle_gamma    90

_space_group_name_H-M_alt    "P 1"
_space_group_IT_number       1

loop_
  _space_group_symop_operation_xyz
  'x, y, z'

loop_
  _atom_site_type_symbol
  _atom_site_label
  _atom_site_symmetry_multiplicity
  _atom_site_fract_x
  _atom_site_fract_y
  _atom_site_fract_z
  _atom_site_occupancy
  Fe  Fe1       1.0  0.40700  0.11600  0.15600  1.0000
  Fe  Fe2       1.0  0.59300  0.61600  0.34400  1.0000
  Fe  Fe3       1.0  0.40700  0.38400  0.65600  1.0000
  Fe  Fe4       1.0  0.59300  0.88400  0.84400  1.0000
  K   K1        1.0  0.26700  0.62100  0.01630  1.0000
  K   K2        1.0  0.90600  0.90800  0.16300  1.0000
  K   K3        1.0  0.09380  0.40800  0.33700  1.0000
  K   K4        1.0  0.73300  0.12100  0.48400  1.0000
  K   K5        1.0  0.26700  0.87900  0.51600  1.0000
  K   K6        1.0  0.90600  0.59200  0.66300  1.0000
  K   K7        1.0  0.09380  0.09180  0.83700  1.0000
  K   K8        1.0  0.73300  0.37900  0.98400  1.0000
  O   O1        1.0  0.50000  0.00000  0.00000  1.0000
  O   O2        1.0  0.13600  0.23800  0.09830  1.0000
  O   O3        1.0  0.61000  0.35400  0.23000  1.0000
  O   O4        1.0  0.39000  0.85400  0.27000  1.0000
  O   O5        1.0  0.86400  0.73800  0.40200  1.0000
  O   O6        1.0  0.50000  0.50000  0.50000  1.0000
  O   O7        1.0  0.13600  0.26200  0.59800  1.0000
  O   O8        1.0  0.61000  0.14600  0.73000  1.0000
  O   O9        1.0  0.39000  0.64600  0.77000  1.0000
  O   O10       1.0  0.86400  0.76200  0.90200  1.0000
