data_image0
_chemical_formula_structural       Fe2K4P4Se12
_chemical_formula_sum              "Fe2 K4 P4 Se12"
_cell_length_a       6.41557
_cell_length_b       12.8072
_cell_length_c       7.65594
_cell_angle_alpha    90
_cell_angle_beta     102.637
_cell_angle_gamma    90

_space_group_name_H-M_alt    "P 1"
_space_group_IT_number       1

loop_
  _space_group_symop_operation_xyz
  'x, y, z'

loop_
  _atom_site_type_symbol
  _atom_site_label
  _atom_site_symmetry_multiplicity
  _atom_site_fract_x
  _atom_site_fract_y
  _atom_site_fract_z
  _atom_site_occupancy
  Fe  Fe1       1.0  0.50000  0.50000  0.00000  1.0000
  Fe  Fe2       1.0  0.00000  0.00000  0.50000  1.0000
  K   K1        1.0  0.22500  0.80600  0.04450  1.0000
  K   K2        1.0  0.27500  0.30600  0.45600  1.0000
  K   K3        1.0  0.72500  0.69400  0.54400  1.0000
  K   K4        1.0  0.77500  0.19400  0.95600  1.0000
  P   P1        1.0  0.98300  0.53300  0.13300  1.0000
  P   P2        1.0  0.51700  0.03340  0.36700  1.0000
  P   P3        1.0  0.48300  0.96700  0.63300  1.0000
  P   P4        1.0  0.01690  0.46700  0.86700  1.0000
  Se  Se1       1.0  0.76900  0.66900  0.06630  1.0000
  Se  Se2       1.0  0.17600  0.05680  0.23600  1.0000
  Se  Se3       1.0  0.80300  0.41500  0.25000  1.0000
  Se  Se4       1.0  0.69700  0.91500  0.25000  1.0000
  Se  Se5       1.0  0.32400  0.55700  0.26400  1.0000
  Se  Se6       1.0  0.73100  0.16900  0.43400  1.0000
  Se  Se7       1.0  0.26900  0.83100  0.56600  1.0000
  Se  Se8       1.0  0.67600  0.44300  0.73600  1.0000
  Se  Se9       1.0  0.30300  0.08530  0.75000  1.0000
  Se  Se10      1.0  0.19700  0.58500  0.75000  1.0000
  Se  Se11      1.0  0.82400  0.94300  0.76400  1.0000
  Se  Se12      1.0  0.23100  0.33100  0.93400  1.0000
