data_image0
_chemical_formula_structural       Ge14Nd8
_chemical_formula_sum              "Ge14 Nd8"
_cell_length_a       7.62588
_cell_length_b       6.02377
_cell_length_c       12.0647
_cell_angle_alpha    90
_cell_angle_beta     90
_cell_angle_gamma    113.263

_space_group_name_H-M_alt    "P 1"
_space_group_IT_number       1

loop_
  _space_group_symop_operation_xyz
  'x, y, z'

loop_
  _atom_site_type_symbol
  _atom_site_label
  _atom_site_symmetry_multiplicity
  _atom_site_fract_x
  _atom_site_fract_y
  _atom_site_fract_z
  _atom_site_occupancy
  Ge  Ge1       1.0  0.82300  0.89400  0.01050  1.0000
  Ge  Ge2       1.0  0.34500  0.42600  0.12800  1.0000
  Ge  Ge3       1.0  0.70600  0.52600  0.16300  1.0000
  Ge  Ge4       1.0  0.12200  0.56100  0.25000  1.0000
  Ge  Ge5       1.0  0.70600  0.18000  0.33700  1.0000
  Ge  Ge6       1.0  0.34500  0.91900  0.37200  1.0000
  Ge  Ge7       1.0  0.82300  0.93000  0.48900  1.0000
  Ge  Ge8       1.0  0.17700  0.10600  0.51100  1.0000
  Ge  Ge9       1.0  0.65500  0.57400  0.62800  1.0000
  Ge  Ge10      1.0  0.29400  0.47400  0.66300  1.0000
  Ge  Ge11      1.0  0.87800  0.43900  0.75000  1.0000
  Ge  Ge12      1.0  0.29400  0.82000  0.83700  1.0000
  Ge  Ge13      1.0  0.65500  0.08080  0.87200  1.0000
  Ge  Ge14      1.0  0.17700  0.07050  0.98900  1.0000
  Nd  Nd1       1.0  0.00000  0.48600  0.00000  1.0000
  Nd  Nd2       1.0  0.49000  0.98200  0.12000  1.0000
  Nd  Nd3       1.0  0.00974  0.00487  0.25000  1.0000
  Nd  Nd4       1.0  0.49000  0.50800  0.38000  1.0000
  Nd  Nd5       1.0  0.00000  0.51400  0.50000  1.0000
  Nd  Nd6       1.0  0.51000  0.01800  0.62000  1.0000
  Nd  Nd7       1.0  0.99000  0.99500  0.75000  1.0000
  Nd  Nd8       1.0  0.51000  0.49200  0.88000  1.0000
