data_image0
_chemical_formula_structural       O8Pa2Pr4
_chemical_formula_sum              "O8 Pa2 Pr4"
_cell_length_a       7.07768
_cell_length_b       7.07768
_cell_length_c       7.07768
_cell_angle_alpha    119.994
_cell_angle_beta     90.0104
_cell_angle_gamma    119.994

_space_group_name_H-M_alt    "P 1"
_space_group_IT_number       1

loop_
  _space_group_symop_operation_xyz
  'x, y, z'

loop_
  _atom_site_type_symbol
  _atom_site_label
  _atom_site_symmetry_multiplicity
  _atom_site_fract_x
  _atom_site_fract_y
  _atom_site_fract_z
  _atom_site_occupancy
  O   O1        1.0  0.12800  0.75200  0.37600  1.0000
  O   O2        1.0  0.62400  0.24800  0.37600  1.0000
  O   O3        1.0  0.62400  0.75200  0.37600  1.0000
  O   O4        1.0  0.12600  0.25200  0.37800  1.0000
  O   O5        1.0  0.62400  0.24800  0.87200  1.0000
  O   O6        1.0  0.12600  0.74800  0.87400  1.0000
  O   O7        1.0  0.62200  0.74800  0.87400  1.0000
  O   O8        1.0  0.12600  0.25200  0.87400  1.0000
  Pa  Pa1       1.0  0.00000  0.00000  0.00000  1.0000
  Pa  Pa2       1.0  0.75000  0.50000  0.25000  1.0000
  Pr  Pr1       1.0  0.37500  0.75000  0.12500  1.0000
  Pr  Pr2       1.0  0.37500  0.25000  0.62500  1.0000
  Pr  Pr3       1.0  0.87500  0.25000  0.62500  1.0000
  Pr  Pr4       1.0  0.37500  0.75000  0.62500  1.0000
