data_image0
_chemical_formula_structural       B4O12Sr6
_chemical_formula_sum              "B4 O12 Sr6"
_cell_length_a       6.6625
_cell_length_b       6.6625
_cell_length_c       6.6625
_cell_angle_alpha    85.4774
_cell_angle_beta     94.5226
_cell_angle_gamma    94.5226

_space_group_name_H-M_alt    "P 1"
_space_group_IT_number       1

loop_
  _space_group_symop_operation_xyz
  'x, y, z'

loop_
  _atom_site_type_symbol
  _atom_site_label
  _atom_site_symmetry_multiplicity
  _atom_site_fract_x
  _atom_site_fract_y
  _atom_site_fract_z
  _atom_site_occupancy
  B   B1        1.0  0.88400  0.11600  0.11600  1.0000
  B   B2        1.0  0.61600  0.38400  0.38400  1.0000
  B   B3        1.0  0.38400  0.61600  0.61600  1.0000
  B   B4        1.0  0.11600  0.88400  0.88400  1.0000
  O   O1        1.0  0.27400  0.89600  0.03430  1.0000
  O   O2        1.0  0.03430  0.27400  0.10400  1.0000
  O   O3        1.0  0.46600  0.39600  0.22600  1.0000
  O   O4        1.0  0.89600  0.96600  0.27400  1.0000
  O   O5        1.0  0.77400  0.53400  0.39600  1.0000
  O   O6        1.0  0.39600  0.77400  0.46600  1.0000
  O   O7        1.0  0.60400  0.22600  0.53400  1.0000
  O   O8        1.0  0.22600  0.46600  0.60400  1.0000
  O   O9        1.0  0.10400  0.03430  0.72600  1.0000
  O   O10       1.0  0.53400  0.60400  0.77400  1.0000
  O   O11       1.0  0.96600  0.72600  0.89600  1.0000
  O   O12       1.0  0.72600  0.10400  0.96600  1.0000
  Sr  Sr1       1.0  0.60500  0.75000  0.10500  1.0000
  Sr  Sr2       1.0  0.10500  0.60500  0.25000  1.0000
  Sr  Sr3       1.0  0.25000  0.10500  0.39500  1.0000
  Sr  Sr4       1.0  0.75000  0.89500  0.60500  1.0000
  Sr  Sr5       1.0  0.89500  0.39500  0.75000  1.0000
  Sr  Sr6       1.0  0.39500  0.25000  0.89500  1.0000
