data_image0
_chemical_formula_structural       O8Re2Sr4
_chemical_formula_sum              "O8 Re2 Sr4"
_cell_length_a       6.87138
_cell_length_b       6.87138
_cell_length_c       6.87138
_cell_angle_alpha    119.989
_cell_angle_beta     90.0192
_cell_angle_gamma    119.989

_space_group_name_H-M_alt    "P 1"
_space_group_IT_number       1

loop_
  _space_group_symop_operation_xyz
  'x, y, z'

loop_
  _atom_site_type_symbol
  _atom_site_label
  _atom_site_symmetry_multiplicity
  _atom_site_fract_x
  _atom_site_fract_y
  _atom_site_fract_z
  _atom_site_occupancy
  O   O1        1.0  0.11300  0.22700  0.34000  1.0000
  O   O2        1.0  0.63700  0.27300  0.36300  1.0000
  O   O3        1.0  0.09000  0.72700  0.36300  1.0000
  O   O4        1.0  0.63700  0.72700  0.36300  1.0000
  O   O5        1.0  0.11300  0.77300  0.88700  1.0000
  O   O6        1.0  0.11300  0.22700  0.88700  1.0000
  O   O7        1.0  0.66000  0.77300  0.88700  1.0000
  O   O8        1.0  0.63700  0.27300  0.91000  1.0000
  Re  Re1       1.0  0.00000  0.00000  0.00000  1.0000
  Re  Re2       1.0  0.75000  0.50000  0.25000  1.0000
  Sr  Sr1       1.0  0.37500  0.75000  0.12500  1.0000
  Sr  Sr2       1.0  0.37500  0.25000  0.62500  1.0000
  Sr  Sr3       1.0  0.87500  0.25000  0.62500  1.0000
  Sr  Sr4       1.0  0.37500  0.75000  0.62500  1.0000
