data_image0
_chemical_formula_structural       Br12Cs8Pb2
_chemical_formula_sum              "Br12 Cs8 Pb2"
_cell_length_a       9.89995
_cell_length_b       9.89995
_cell_length_c       9.89995
_cell_angle_alpha    91.1519
_cell_angle_beta     88.8481
_cell_angle_gamma    91.1519

_space_group_name_H-M_alt    "P 1"
_space_group_IT_number       1

loop_
  _space_group_symop_operation_xyz
  'x, y, z'

loop_
  _atom_site_type_symbol
  _atom_site_label
  _atom_site_symmetry_multiplicity
  _atom_site_fract_x
  _atom_site_fract_y
  _atom_site_fract_z
  _atom_site_occupancy
  Br  Br1       1.0  0.70500  0.07240  0.06230  1.0000
  Br  Br2       1.0  0.93800  0.70500  0.07240  1.0000
  Br  Br3       1.0  0.56200  0.57200  0.20500  1.0000
  Br  Br4       1.0  0.07240  0.06230  0.29500  1.0000
  Br  Br5       1.0  0.20500  0.43800  0.42800  1.0000
  Br  Br6       1.0  0.57200  0.20500  0.43800  1.0000
  Br  Br7       1.0  0.42800  0.79500  0.56200  1.0000
  Br  Br8       1.0  0.79500  0.56200  0.57200  1.0000
  Br  Br9       1.0  0.92800  0.93800  0.70500  1.0000
  Br  Br10      1.0  0.43800  0.42800  0.79500  1.0000
  Br  Br11      1.0  0.06230  0.29500  0.92800  1.0000
  Br  Br12      1.0  0.29500  0.92800  0.93800  1.0000
  Cs  Cs1       1.0  0.37500  0.25000  0.12500  1.0000
  Cs  Cs2       1.0  0.25000  0.75000  0.25000  1.0000
  Cs  Cs3       1.0  0.87500  0.37500  0.25000  1.0000
  Cs  Cs4       1.0  0.75000  0.87500  0.37500  1.0000
  Cs  Cs5       1.0  0.25000  0.12500  0.62500  1.0000
  Cs  Cs6       1.0  0.75000  0.25000  0.75000  1.0000
  Cs  Cs7       1.0  0.12500  0.62500  0.75000  1.0000
  Cs  Cs8       1.0  0.62500  0.75000  0.87500  1.0000
  Pb  Pb1       1.0  0.00000  0.00000  0.00000  1.0000
  Pb  Pb2       1.0  0.50000  0.50000  0.50000  1.0000
