data_image0
_chemical_formula_structural       Pb10Sc12
_chemical_formula_sum              "Pb10 Sc12"
_cell_length_a       6.19432
_cell_length_b       8.97439
_cell_length_c       11.1154
_cell_angle_alpha    113.809
_cell_angle_beta     106.179
_cell_angle_gamma    90

_space_group_name_H-M_alt    "P 1"
_space_group_IT_number       1

loop_
  _space_group_symop_operation_xyz
  'x, y, z'

loop_
  _atom_site_type_symbol
  _atom_site_label
  _atom_site_symmetry_multiplicity
  _atom_site_fract_x
  _atom_site_fract_y
  _atom_site_fract_z
  _atom_site_occupancy
  Pb  Pb1       1.0  0.25000  0.00000  0.00000  1.0000
  Pb  Pb2       1.0  0.75000  0.00000  0.00000  1.0000
  Pb  Pb3       1.0  0.07500  0.47300  0.15000  1.0000
  Pb  Pb4       1.0  0.57500  0.67700  0.15000  1.0000
  Pb  Pb5       1.0  0.20700  0.00913  0.41300  1.0000
  Pb  Pb6       1.0  0.70700  0.40400  0.41300  1.0000
  Pb  Pb7       1.0  0.29300  0.59600  0.58700  1.0000
  Pb  Pb8       1.0  0.79300  0.99100  0.58700  1.0000
  Pb  Pb9       1.0  0.42500  0.32300  0.85000  1.0000
  Pb  Pb10      1.0  0.92500  0.52700  0.85000  1.0000
  Sc  Sc1       1.0  0.56000  0.32600  0.12100  1.0000
  Sc  Sc2       1.0  0.06030  0.79400  0.12100  1.0000
  Sc  Sc3       1.0  0.64300  0.03240  0.28600  1.0000
  Sc  Sc4       1.0  0.14300  0.25300  0.28600  1.0000
  Sc  Sc5       1.0  0.44500  0.69500  0.39100  1.0000
  Sc  Sc6       1.0  0.94500  0.69500  0.39100  1.0000
  Sc  Sc7       1.0  0.05460  0.30500  0.60900  1.0000
  Sc  Sc8       1.0  0.55500  0.30500  0.60900  1.0000
  Sc  Sc9       1.0  0.85700  0.74700  0.71400  1.0000
  Sc  Sc10      1.0  0.35700  0.96800  0.71400  1.0000
  Sc  Sc11      1.0  0.94000  0.20600  0.87900  1.0000
  Sc  Sc12      1.0  0.44000  0.67400  0.87900  1.0000
