data_image0
_chemical_formula_structural       Eu6O14Ru2
_chemical_formula_sum              "Eu6 O14 Ru2"
_cell_length_a       6.56127
_cell_length_b       6.56127
_cell_length_c       7.25585
_cell_angle_alpha    90
_cell_angle_beta     90
_cell_angle_gamma    65.8148

_space_group_name_H-M_alt    "P 1"
_space_group_IT_number       1

loop_
  _space_group_symop_operation_xyz
  'x, y, z'

loop_
  _atom_site_type_symbol
  _atom_site_label
  _atom_site_symmetry_multiplicity
  _atom_site_fract_x
  _atom_site_fract_y
  _atom_site_fract_z
  _atom_site_occupancy
  Eu  Eu1       1.0  0.00000  0.00000  0.00000  1.0000
  Eu  Eu2       1.0  0.44400  0.11400  0.25000  1.0000
  Eu  Eu3       1.0  0.88600  0.55600  0.25000  1.0000
  Eu  Eu4       1.0  0.00000  0.00000  0.50000  1.0000
  Eu  Eu5       1.0  0.11400  0.44400  0.75000  1.0000
  Eu  Eu6       1.0  0.55600  0.88600  0.75000  1.0000
  O   O1        1.0  0.20500  0.55200  0.06270  1.0000
  O   O2        1.0  0.44800  0.79500  0.06270  1.0000
  O   O3        1.0  0.08280  0.18300  0.25000  1.0000
  O   O4        1.0  0.60800  0.39200  0.25000  1.0000
  O   O5        1.0  0.81700  0.91700  0.25000  1.0000
  O   O6        1.0  0.20500  0.55200  0.43700  1.0000
  O   O7        1.0  0.44800  0.79500  0.43700  1.0000
  O   O8        1.0  0.55200  0.20500  0.56300  1.0000
  O   O9        1.0  0.79500  0.44800  0.56300  1.0000
  O   O10       1.0  0.18300  0.08280  0.75000  1.0000
  O   O11       1.0  0.39200  0.60800  0.75000  1.0000
  O   O12       1.0  0.91700  0.81700  0.75000  1.0000
  O   O13       1.0  0.55200  0.20500  0.93700  1.0000
  O   O14       1.0  0.79500  0.44800  0.93700  1.0000
  Ru  Ru1       1.0  0.50000  0.50000  0.00000  1.0000
  Ru  Ru2       1.0  0.50000  0.50000  0.50000  1.0000
