data_image0
_chemical_formula_structural       Cl4O10Pb6W2
_chemical_formula_sum              "Cl4 O10 Pb6 W2"
_cell_length_a       5.62498
_cell_length_b       7.11166
_cell_length_c       11.0943
_cell_angle_alpha    90
_cell_angle_beta     90
_cell_angle_gamma    113.296

_space_group_name_H-M_alt    "P 1"
_space_group_IT_number       1

loop_
  _space_group_symop_operation_xyz
  'x, y, z'

loop_
  _atom_site_type_symbol
  _atom_site_label
  _atom_site_symmetry_multiplicity
  _atom_site_fract_x
  _atom_site_fract_y
  _atom_site_fract_z
  _atom_site_occupancy
  Cl  Cl1       1.0  0.00000  0.00000  0.00000  1.0000
  Cl  Cl2       1.0  0.52400  0.04830  0.25000  1.0000
  Cl  Cl3       1.0  0.00000  0.00000  0.50000  1.0000
  Cl  Cl4       1.0  0.47600  0.95200  0.75000  1.0000
  O   O1        1.0  0.49500  0.45800  0.13000  1.0000
  O   O2        1.0  0.96400  0.45800  0.13000  1.0000
  O   O3        1.0  0.89800  0.79600  0.25000  1.0000
  O   O4        1.0  0.49500  0.45800  0.37000  1.0000
  O   O5        1.0  0.96400  0.45800  0.37000  1.0000
  O   O6        1.0  0.03650  0.54200  0.63000  1.0000
  O   O7        1.0  0.50500  0.54200  0.63000  1.0000
  O   O8        1.0  0.10200  0.20400  0.75000  1.0000
  O   O9        1.0  0.03650  0.54200  0.87000  1.0000
  O   O10       1.0  0.50500  0.54200  0.87000  1.0000
  Pb  Pb1       1.0  0.35000  0.70000  0.03240  1.0000
  Pb  Pb2       1.0  0.09850  0.19700  0.25000  1.0000
  Pb  Pb3       1.0  0.35000  0.70000  0.46800  1.0000
  Pb  Pb4       1.0  0.65000  0.30000  0.53200  1.0000
  Pb  Pb5       1.0  0.90100  0.80300  0.75000  1.0000
  Pb  Pb6       1.0  0.65000  0.30000  0.96800  1.0000
  W   W1        1.0  0.76500  0.53100  0.25000  1.0000
  W   W2        1.0  0.23500  0.46900  0.75000  1.0000
