data_image0
_chemical_formula_structural       Ce4Ge12Zn6
_chemical_formula_sum              "Ce4 Ge12 Zn6"
_cell_length_a       12.8635
_cell_length_b       5.99253
_cell_length_c       5.98961
_cell_angle_alpha    90
_cell_angle_beta     90
_cell_angle_gamma    103.469

_space_group_name_H-M_alt    "P 1"
_space_group_IT_number       1

loop_
  _space_group_symop_operation_xyz
  'x, y, z'

loop_
  _atom_site_type_symbol
  _atom_site_label
  _atom_site_symmetry_multiplicity
  _atom_site_fract_x
  _atom_site_fract_y
  _atom_site_fract_z
  _atom_site_occupancy
  Ce  Ce1       1.0  0.21100  0.60600  0.25000  1.0000
  Ce  Ce2       1.0  0.78800  0.89400  0.25000  1.0000
  Ce  Ce3       1.0  0.21200  0.10600  0.75000  1.0000
  Ce  Ce4       1.0  0.78900  0.39400  0.75000  1.0000
  Ge  Ge1       1.0  0.40300  0.41700  0.03450  1.0000
  Ge  Ge2       1.0  0.40300  0.98600  0.03450  1.0000
  Ge  Ge3       1.0  0.13600  0.06800  0.25000  1.0000
  Ge  Ge4       1.0  0.88300  0.44200  0.25000  1.0000
  Ge  Ge5       1.0  0.40300  0.41700  0.46600  1.0000
  Ge  Ge6       1.0  0.40300  0.98600  0.46600  1.0000
  Ge  Ge7       1.0  0.59700  0.01400  0.53400  1.0000
  Ge  Ge8       1.0  0.59700  0.58300  0.53400  1.0000
  Ge  Ge9       1.0  0.11700  0.55800  0.75000  1.0000
  Ge  Ge10      1.0  0.86400  0.93200  0.75000  1.0000
  Ge  Ge11      1.0  0.59700  0.01400  0.96600  1.0000
  Ge  Ge12      1.0  0.59700  0.58300  0.96600  1.0000
  Zn  Zn1       1.0  0.00000  0.23700  0.00000  1.0000
  Zn  Zn2       1.0  0.00000  0.76300  0.00000  1.0000
  Zn  Zn3       1.0  0.67800  0.33900  0.25000  1.0000
  Zn  Zn4       1.0  0.00000  0.23700  0.50000  1.0000
  Zn  Zn5       1.0  0.00000  0.76300  0.50000  1.0000
  Zn  Zn6       1.0  0.32200  0.66100  0.75000  1.0000
