data_image0
_chemical_formula_structural       Au4Er14Te4
_chemical_formula_sum              "Au4 Er14 Te4"
_cell_length_a       3.98651
_cell_length_b       9.21643
_cell_length_c       17.0604
_cell_angle_alpha    104.002
_cell_angle_beta     90
_cell_angle_gamma    102.49

_space_group_name_H-M_alt    "P 1"
_space_group_IT_number       1

loop_
  _space_group_symop_operation_xyz
  'x, y, z'

loop_
  _atom_site_type_symbol
  _atom_site_label
  _atom_site_symmetry_multiplicity
  _atom_site_fract_x
  _atom_site_fract_y
  _atom_site_fract_z
  _atom_site_occupancy
  Au  Au1       1.0  0.17200  0.34300  0.11100  1.0000
  Au  Au2       1.0  0.61900  0.23900  0.39900  1.0000
  Au  Au3       1.0  0.38100  0.76100  0.60100  1.0000
  Au  Au4       1.0  0.82800  0.65700  0.88900  1.0000
  Er  Er1       1.0  0.00000  0.00000  0.00000  1.0000
  Er  Er2       1.0  0.33800  0.67600  0.01960  1.0000
  Er  Er3       1.0  0.57500  0.15000  0.17100  1.0000
  Er  Er4       1.0  0.78100  0.56100  0.19400  1.0000
  Er  Er5       1.0  0.19100  0.38200  0.31900  1.0000
  Er  Er6       1.0  0.00175  0.00350  0.33400  1.0000
  Er  Er7       1.0  0.82500  0.64900  0.46800  1.0000
  Er  Er8       1.0  0.50000  0.00000  0.50000  1.0000
  Er  Er9       1.0  0.17500  0.35100  0.53200  1.0000
  Er  Er10      1.0  0.99800  0.99600  0.66600  1.0000
  Er  Er11      1.0  0.80900  0.61800  0.68100  1.0000
  Er  Er12      1.0  0.21900  0.43900  0.80600  1.0000
  Er  Er13      1.0  0.42500  0.85000  0.82900  1.0000
  Er  Er14      1.0  0.66200  0.32400  0.98000  1.0000
  Te  Te1       1.0  0.93500  0.87100  0.15000  1.0000
  Te  Te2       1.0  0.36700  0.73300  0.33800  1.0000
  Te  Te3       1.0  0.63300  0.26700  0.66200  1.0000
  Te  Te4       1.0  0.06470  0.12900  0.85000  1.0000
