data_image0
_chemical_formula_structural       Hg4O14Os4
_chemical_formula_sum              "Hg4 O14 Os4"
_cell_length_a       7.28231
_cell_length_b       7.28231
_cell_length_c       7.28231
_cell_angle_alpha    120
_cell_angle_beta     90
_cell_angle_gamma    120

_space_group_name_H-M_alt    "P 1"
_space_group_IT_number       1

loop_
  _space_group_symop_operation_xyz
  'x, y, z'

loop_
  _atom_site_type_symbol
  _atom_site_label
  _atom_site_symmetry_multiplicity
  _atom_site_fract_x
  _atom_site_fract_y
  _atom_site_fract_z
  _atom_site_occupancy
  Hg  Hg1       1.0  0.00000  0.50000  0.00000  1.0000
  Hg  Hg2       1.0  0.50000  0.00000  0.50000  1.0000
  Hg  Hg3       1.0  0.00000  0.00000  0.50000  1.0000
  Hg  Hg4       1.0  0.00000  0.50000  0.50000  1.0000
  O   O1        1.0  0.81500  0.13000  0.06490  1.0000
  O   O2        1.0  0.81500  0.75000  0.06490  1.0000
  O   O3        1.0  0.43500  0.75000  0.06490  1.0000
  O   O4        1.0  0.18500  0.25000  0.31500  1.0000
  O   O5        1.0  0.56500  0.25000  0.31500  1.0000
  O   O6        1.0  0.56500  0.63000  0.31500  1.0000
  O   O7        1.0  0.12500  0.75000  0.37500  1.0000
  O   O8        1.0  0.87500  0.25000  0.62500  1.0000
  O   O9        1.0  0.43500  0.75000  0.68500  1.0000
  O   O10       1.0  0.43500  0.37000  0.68500  1.0000
  O   O11       1.0  0.81500  0.75000  0.68500  1.0000
  O   O12       1.0  0.56500  0.25000  0.93500  1.0000
  O   O13       1.0  0.18500  0.87000  0.93500  1.0000
  O   O14       1.0  0.18500  0.25000  0.93500  1.0000
  Os  Os1       1.0  0.00000  0.00000  0.00000  1.0000
  Os  Os2       1.0  0.50000  0.00000  0.00000  1.0000
  Os  Os3       1.0  0.50000  0.50000  0.00000  1.0000
  Os  Os4       1.0  0.50000  0.50000  0.50000  1.0000
