data_image0
_chemical_formula_structural       C14Y8
_chemical_formula_sum              "C14 Y8"
_cell_length_a       3.71353
_cell_length_b       13.756
_cell_length_c       6.46785
_cell_angle_alpha    90
_cell_angle_beta     104.509
_cell_angle_gamma    90

_space_group_name_H-M_alt    "P 1"
_space_group_IT_number       1

loop_
  _space_group_symop_operation_xyz
  'x, y, z'

loop_
  _atom_site_type_symbol
  _atom_site_label
  _atom_site_symmetry_multiplicity
  _atom_site_fract_x
  _atom_site_fract_y
  _atom_site_fract_z
  _atom_site_occupancy
  C   C1        1.0  0.00000  0.00000  0.00000  1.0000
  C   C2        1.0  0.38400  0.69600  0.04960  1.0000
  C   C3        1.0  0.27100  0.60500  0.05100  1.0000
  C   C4        1.0  0.53700  0.78400  0.08000  1.0000
  C   C5        1.0  0.46300  0.28400  0.42000  1.0000
  C   C6        1.0  0.72900  0.10500  0.44900  1.0000
  C   C7        1.0  0.61600  0.19600  0.45000  1.0000
  C   C8        1.0  0.00000  0.50000  0.50000  1.0000
  C   C9        1.0  0.38400  0.80400  0.55000  1.0000
  C   C10       1.0  0.27100  0.89500  0.55100  1.0000
  C   C11       1.0  0.53700  0.71600  0.58000  1.0000
  C   C12       1.0  0.46300  0.21600  0.92000  1.0000
  C   C13       1.0  0.72900  0.39500  0.94900  1.0000
  C   C14       1.0  0.61600  0.30400  0.95000  1.0000
  Y   Y1        1.0  0.04980  0.16300  0.15800  1.0000
  Y   Y2        1.0  0.36500  0.44500  0.23800  1.0000
  Y   Y3        1.0  0.63500  0.94500  0.26200  1.0000
  Y   Y4        1.0  0.95000  0.66300  0.34200  1.0000
  Y   Y5        1.0  0.04980  0.33700  0.65800  1.0000
  Y   Y6        1.0  0.36500  0.05500  0.73800  1.0000
  Y   Y7        1.0  0.63500  0.55500  0.76200  1.0000
  Y   Y8        1.0  0.95000  0.83700  0.84200  1.0000
