data_image0
_chemical_formula_structural       Ag4Ge2In4S12
_chemical_formula_sum              "Ag4 Ge2 In4 S12"
_cell_length_a       7.208
_cell_length_b       7.208
_cell_length_c       12.3855
_cell_angle_alpha    106.752
_cell_angle_beta     73.2481
_cell_angle_gamma    118.857

_space_group_name_H-M_alt    "P 1"
_space_group_IT_number       1

loop_
  _space_group_symop_operation_xyz
  'x, y, z'

loop_
  _atom_site_type_symbol
  _atom_site_label
  _atom_site_symmetry_multiplicity
  _atom_site_fract_x
  _atom_site_fract_y
  _atom_site_fract_z
  _atom_site_occupancy
  Ag  Ag1       1.0  0.01760  0.81000  0.25600  1.0000
  Ag  Ag2       1.0  0.19000  0.38700  0.41100  1.0000
  Ag  Ag3       1.0  0.19000  0.98200  0.75600  1.0000
  Ag  Ag4       1.0  0.61300  0.81000  0.91100  1.0000
  Ge  Ge1       1.0  0.06350  0.40100  0.00000  1.0000
  Ge  Ge2       1.0  0.59900  0.93700  0.50000  1.0000
  In  In1       1.0  0.49000  0.32100  0.05950  1.0000
  In  In2       1.0  0.69900  0.17400  0.25600  1.0000
  In  In3       1.0  0.67900  0.51000  0.55900  1.0000
  In  In4       1.0  0.82600  0.30100  0.75600  1.0000
  S   S1        1.0  0.88200  0.59700  0.05370  1.0000
  S   S2        1.0  0.89500  0.08580  0.05770  1.0000
  S   S3        1.0  0.36300  0.59800  0.07550  1.0000
  S   S4        1.0  0.35500  0.16900  0.24100  1.0000
  S   S5        1.0  0.64900  0.84100  0.31100  1.0000
  S   S6        1.0  0.93700  0.51600  0.37100  1.0000
  S   S7        1.0  0.40300  0.11800  0.55400  1.0000
  S   S8        1.0  0.91400  0.10500  0.55800  1.0000
  S   S9        1.0  0.40200  0.63700  0.57600  1.0000
  S   S10       1.0  0.83100  0.64500  0.74100  1.0000
  S   S11       1.0  0.15900  0.35100  0.81100  1.0000
  S   S12       1.0  0.48400  0.06320  0.87100  1.0000
