data_image0
_chemical_formula_structural       C8N8Pt2Rb4
_chemical_formula_sum              "C8 N8 Pt2 Rb4"
_cell_length_a       7.31298
_cell_length_b       8.67891
_cell_length_c       8.67891
_cell_angle_alpha    100.359
_cell_angle_beta     65.0828
_cell_angle_gamma    114.917

_space_group_name_H-M_alt    "P 1"
_space_group_IT_number       1

loop_
  _space_group_symop_operation_xyz
  'x, y, z'

loop_
  _atom_site_type_symbol
  _atom_site_label
  _atom_site_symmetry_multiplicity
  _atom_site_fract_x
  _atom_site_fract_y
  _atom_site_fract_z
  _atom_site_occupancy
  C   C1        1.0  0.33500  0.82200  0.17800  1.0000
  C   C2        1.0  0.81000  0.82200  0.17800  1.0000
  C   C3        1.0  0.00000  0.17900  0.17900  1.0000
  C   C4        1.0  0.50000  0.17900  0.17900  1.0000
  C   C5        1.0  1.00000  0.82100  0.82100  1.0000
  C   C6        1.0  0.50000  0.82100  0.82100  1.0000
  C   C7        1.0  0.19000  0.17800  0.82200  1.0000
  C   C8        1.0  0.66500  0.17800  0.82200  1.0000
  N   N1        1.0  0.24700  0.71700  0.28300  1.0000
  N   N2        1.0  0.68800  0.71700  0.28300  1.0000
  N   N3        1.0  0.00000  0.28400  0.28400  1.0000
  N   N4        1.0  0.50000  0.28400  0.28400  1.0000
  N   N5        1.0  0.00000  0.71600  0.71600  1.0000
  N   N6        1.0  0.50000  0.71600  0.71600  1.0000
  N   N7        1.0  0.31200  0.28300  0.71700  1.0000
  N   N8        1.0  0.75300  0.28300  0.71700  1.0000
  Pt  Pt1       1.0  0.00000  0.00000  0.00000  1.0000
  Pt  Pt2       1.0  0.50000  0.00000  0.00000  1.0000
  Rb  Rb1       1.0  0.50000  0.50000  0.00000  1.0000
  Rb  Rb2       1.0  0.77800  0.52800  0.47200  1.0000
  Rb  Rb3       1.0  0.50000  0.00000  0.50000  1.0000
  Rb  Rb4       1.0  0.22200  0.47200  0.52800  1.0000
