data_image0
_chemical_formula_structural       O8Pr2Sr4
_chemical_formula_sum              "O8 Pr2 Sr4"
_cell_length_a       6.20217
_cell_length_b       10.1982
_cell_length_c       3.67676
_cell_angle_alpha    90
_cell_angle_beta     90
_cell_angle_gamma    90

_space_group_name_H-M_alt    "P 1"
_space_group_IT_number       1

loop_
  _space_group_symop_operation_xyz
  'x, y, z'

loop_
  _atom_site_type_symbol
  _atom_site_label
  _atom_site_symmetry_multiplicity
  _atom_site_fract_x
  _atom_site_fract_y
  _atom_site_fract_z
  _atom_site_occupancy
  O   O1        1.0  0.84700  0.20700  0.00000  1.0000
  O   O2        1.0  0.34700  0.29300  0.00000  1.0000
  O   O3        1.0  0.65300  0.70700  0.00000  1.0000
  O   O4        1.0  0.15300  0.79300  0.00000  1.0000
  O   O5        1.0  0.23700  0.04550  0.50000  1.0000
  O   O6        1.0  0.73700  0.45400  0.50000  1.0000
  O   O7        1.0  0.26300  0.54600  0.50000  1.0000
  O   O8        1.0  0.76300  0.95400  0.50000  1.0000
  Pr  Pr1       1.0  0.00000  0.00000  0.00000  1.0000
  Pr  Pr2       1.0  0.50000  0.50000  0.00000  1.0000
  Sr  Sr1       1.0  0.56500  0.17800  0.50000  1.0000
  Sr  Sr2       1.0  0.06530  0.32200  0.50000  1.0000
  Sr  Sr3       1.0  0.93500  0.67800  0.50000  1.0000
  Sr  Sr4       1.0  0.43500  0.82200  0.50000  1.0000
