data_image0
_chemical_formula_structural       Hf2Mo4O16
_chemical_formula_sum              "Hf2 Mo4 O16"
_cell_length_a       6.9224
_cell_length_b       6.9224
_cell_length_c       7.42043
_cell_angle_alpha    116.109
_cell_angle_beta     63.8905
_cell_angle_gamma    111.005

_space_group_name_H-M_alt    "P 1"
_space_group_IT_number       1

loop_
  _space_group_symop_operation_xyz
  'x, y, z'

loop_
  _atom_site_type_symbol
  _atom_site_label
  _atom_site_symmetry_multiplicity
  _atom_site_fract_x
  _atom_site_fract_y
  _atom_site_fract_z
  _atom_site_occupancy
  Hf  Hf1       1.0  0.01960  0.01960  0.25000  1.0000
  Hf  Hf2       1.0  0.98000  0.98000  0.75000  1.0000
  Mo  Mo1       1.0  0.93500  0.50200  0.24400  1.0000
  Mo  Mo2       1.0  0.50200  0.93500  0.25600  1.0000
  Mo  Mo3       1.0  0.49800  0.06460  0.74400  1.0000
  Mo  Mo4       1.0  0.06460  0.49800  0.75600  1.0000
  O   O1        1.0  0.99100  0.68300  0.06130  1.0000
  O   O2        1.0  0.79700  0.97600  0.07760  1.0000
  O   O3        1.0  0.39900  0.66000  0.16100  1.0000
  O   O4        1.0  0.34900  0.05770  0.20800  1.0000
  O   O5        1.0  0.05770  0.34900  0.29200  1.0000
  O   O6        1.0  0.66000  0.39900  0.33900  1.0000
  O   O7        1.0  0.97600  0.79700  0.42200  1.0000
  O   O8        1.0  0.68300  0.99100  0.43900  1.0000
  O   O9        1.0  0.31700  0.00950  0.56100  1.0000
  O   O10       1.0  0.02420  0.20300  0.57800  1.0000
  O   O11       1.0  0.34000  0.60100  0.66100  1.0000
  O   O12       1.0  0.94200  0.65100  0.70800  1.0000
  O   O13       1.0  0.65100  0.94200  0.79200  1.0000
  O   O14       1.0  0.60100  0.34000  0.83900  1.0000
  O   O15       1.0  0.20300  0.02420  0.92200  1.0000
  O   O16       1.0  0.00950  0.31700  0.93900  1.0000
