data_image0
_chemical_formula_structural       Eu4O14Ru4
_chemical_formula_sum              "Eu4 O14 Ru4"
_cell_length_a       7.24991
_cell_length_b       7.24991
_cell_length_c       7.24991
_cell_angle_alpha    120
_cell_angle_beta     90
_cell_angle_gamma    120

_space_group_name_H-M_alt    "P 1"
_space_group_IT_number       1

loop_
  _space_group_symop_operation_xyz
  'x, y, z'

loop_
  _atom_site_type_symbol
  _atom_site_label
  _atom_site_symmetry_multiplicity
  _atom_site_fract_x
  _atom_site_fract_y
  _atom_site_fract_z
  _atom_site_occupancy
  Eu  Eu1       1.0  0.37500  0.75000  0.12500  1.0000
  Eu  Eu2       1.0  0.87500  0.25000  0.62500  1.0000
  Eu  Eu3       1.0  0.37500  0.25000  0.62500  1.0000
  Eu  Eu4       1.0  0.37500  0.75000  0.62500  1.0000
  O   O1        1.0  0.94500  0.50000  0.05540  1.0000
  O   O2        1.0  0.55500  0.11100  0.05540  1.0000
  O   O3        1.0  0.55500  0.50000  0.05540  1.0000
  O   O4        1.0  0.19500  0.00000  0.19500  1.0000
  O   O5        1.0  0.19500  0.38900  0.19500  1.0000
  O   O6        1.0  0.80500  0.00000  0.19500  1.0000
  O   O7        1.0  0.55500  0.50000  0.44500  1.0000
  O   O8        1.0  0.94500  0.50000  0.44500  1.0000
  O   O9        1.0  0.94500  0.88900  0.44500  1.0000
  O   O10       1.0  0.50000  0.00000  0.50000  1.0000
  O   O11       1.0  0.25000  0.50000  0.75000  1.0000
  O   O12       1.0  0.19500  0.00000  0.80500  1.0000
  O   O13       1.0  0.80500  0.00000  0.80500  1.0000
  O   O14       1.0  0.80500  0.61100  0.80500  1.0000
  Ru  Ru1       1.0  0.37500  0.25000  0.12500  1.0000
  Ru  Ru2       1.0  0.87500  0.25000  0.12500  1.0000
  Ru  Ru3       1.0  0.87500  0.75000  0.12500  1.0000
  Ru  Ru4       1.0  0.87500  0.75000  0.62500  1.0000
