data_image0
_chemical_formula_structural       Re8Si14
_chemical_formula_sum              "Re8 Si14"
_cell_length_a       3.13792
_cell_length_b       8.36542
_cell_length_c       11.7907
_cell_angle_alpha    92.5371
_cell_angle_beta     97.6469
_cell_angle_gamma    90

_space_group_name_H-M_alt    "P 1"
_space_group_IT_number       1

loop_
  _space_group_symop_operation_xyz
  'x, y, z'

loop_
  _atom_site_type_symbol
  _atom_site_label
  _atom_site_symmetry_multiplicity
  _atom_site_fract_x
  _atom_site_fract_y
  _atom_site_fract_z
  _atom_site_occupancy
  Re  Re1       1.0  0.62500  0.38000  0.24900  1.0000
  Re  Re2       1.0  0.12800  0.89300  0.25600  1.0000
  Re  Re3       1.0  0.24800  0.76300  0.49600  1.0000
  Re  Re4       1.0  0.74800  0.25700  0.49700  1.0000
  Re  Re5       1.0  0.87400  0.12600  0.74900  1.0000
  Re  Re6       1.0  0.37900  0.64500  0.75800  1.0000
  Re  Re7       1.0  0.49700  0.50400  0.99400  1.0000
  Re  Re8       1.0  0.99800  0.02030  0.99700  1.0000
  Si  Si1       1.0  0.04210  0.31000  0.08410  1.0000
  Si  Si2       1.0  0.05930  0.66700  0.11900  1.0000
  Si  Si3       1.0  0.57900  0.07900  0.15900  1.0000
  Si  Si4       1.0  0.66000  0.67700  0.32000  1.0000
  Si  Si5       1.0  0.16500  0.18100  0.32900  1.0000
  Si  Si6       1.0  0.20400  0.47700  0.40900  1.0000
  Si  Si7       1.0  0.70900  0.96400  0.41800  1.0000
  Si  Si8       1.0  0.29400  0.06020  0.58800  1.0000
  Si  Si9       1.0  0.30500  0.43600  0.61000  1.0000
  Si  Si10      1.0  0.82900  0.82900  0.65900  1.0000
  Si  Si11      1.0  0.90700  0.42400  0.81300  1.0000
  Si  Si12      1.0  0.41600  0.93100  0.83300  1.0000
  Si  Si13      1.0  0.45600  0.21900  0.91300  1.0000
  Si  Si14      1.0  0.95900  0.72500  0.91900  1.0000
