data_image0
_chemical_formula_structural       Al6C10Hf6
_chemical_formula_sum              "Al6 C10 Hf6"
_cell_length_a       3.32521
_cell_length_b       3.3252
_cell_length_c       27.4506
_cell_angle_alpha    90
_cell_angle_beta     90
_cell_angle_gamma    120

_space_group_name_H-M_alt    "P 1"
_space_group_IT_number       1

loop_
  _space_group_symop_operation_xyz
  'x, y, z'

loop_
  _atom_site_type_symbol
  _atom_site_label
  _atom_site_symmetry_multiplicity
  _atom_site_fract_x
  _atom_site_fract_y
  _atom_site_fract_z
  _atom_site_occupancy
  Al  Al1       1.0  0.33300  0.66700  0.17600  1.0000
  Al  Al2       1.0  0.00000  0.00000  0.25000  1.0000
  Al  Al3       1.0  0.33300  0.66700  0.32400  1.0000
  Al  Al4       1.0  0.66700  0.33300  0.67600  1.0000
  Al  Al5       1.0  0.00000  0.00000  0.75000  1.0000
  Al  Al6       1.0  0.66700  0.33300  0.82400  1.0000
  C   C1        1.0  0.33300  0.66700  0.04950  1.0000
  C   C2        1.0  0.00000  0.00000  0.15100  1.0000
  C   C3        1.0  0.33300  0.66700  0.25000  1.0000
  C   C4        1.0  0.00000  0.00000  0.34900  1.0000
  C   C5        1.0  0.33300  0.66700  0.45000  1.0000
  C   C6        1.0  0.66700  0.33300  0.55000  1.0000
  C   C7        1.0  0.00000  0.00000  0.65100  1.0000
  C   C8        1.0  0.66700  0.33300  0.75000  1.0000
  C   C9        1.0  0.00000  0.00000  0.84900  1.0000
  C   C10       1.0  0.66700  0.33300  0.95000  1.0000
  Hf  Hf1       1.0  0.00000  0.00000  0.00000  1.0000
  Hf  Hf2       1.0  0.66700  0.33300  0.09430  1.0000
  Hf  Hf3       1.0  0.66700  0.33300  0.40600  1.0000
  Hf  Hf4       1.0  0.00000  0.00000  0.50000  1.0000
  Hf  Hf5       1.0  0.33300  0.66700  0.59400  1.0000
  Hf  Hf6       1.0  0.33300  0.66700  0.90600  1.0000
