data_image0
_chemical_formula_structural       O14Ru2Sm6
_chemical_formula_sum              "O14 Ru2 Sm6"
_cell_length_a       6.49901
_cell_length_b       6.49901
_cell_length_c       7.44993
_cell_angle_alpha    90
_cell_angle_beta     90
_cell_angle_gamma    68.2797

_space_group_name_H-M_alt    "P 1"
_space_group_IT_number       1

loop_
  _space_group_symop_operation_xyz
  'x, y, z'

loop_
  _atom_site_type_symbol
  _atom_site_label
  _atom_site_symmetry_multiplicity
  _atom_site_fract_x
  _atom_site_fract_y
  _atom_site_fract_z
  _atom_site_occupancy
  O   O1        1.0  0.18400  0.56100  0.04270  1.0000
  O   O2        1.0  0.43900  0.81600  0.04270  1.0000
  O   O3        1.0  0.10300  0.16000  0.25000  1.0000
  O   O4        1.0  0.59000  0.41000  0.25000  1.0000
  O   O5        1.0  0.84000  0.89700  0.25000  1.0000
  O   O6        1.0  0.18400  0.56100  0.45700  1.0000
  O   O7        1.0  0.43900  0.81600  0.45700  1.0000
  O   O8        1.0  0.56100  0.18400  0.54300  1.0000
  O   O9        1.0  0.81600  0.43900  0.54300  1.0000
  O   O10       1.0  0.16000  0.10300  0.75000  1.0000
  O   O11       1.0  0.41000  0.59000  0.75000  1.0000
  O   O12       1.0  0.89700  0.84000  0.75000  1.0000
  O   O13       1.0  0.56100  0.18400  0.95700  1.0000
  O   O14       1.0  0.81600  0.43900  0.95700  1.0000
  Ru  Ru1       1.0  0.50000  0.50000  0.00000  1.0000
  Ru  Ru2       1.0  0.50000  0.50000  0.50000  1.0000
  Sm  Sm1       1.0  0.00000  0.00000  0.00000  1.0000
  Sm  Sm2       1.0  0.47000  0.08730  0.25000  1.0000
  Sm  Sm3       1.0  0.91300  0.53000  0.25000  1.0000
  Sm  Sm4       1.0  0.00000  0.00000  0.50000  1.0000
  Sm  Sm5       1.0  0.08730  0.47000  0.75000  1.0000
  Sm  Sm6       1.0  0.53000  0.91300  0.75000  1.0000
