data_image0
_chemical_formula_structural       Ge16Yb6
_chemical_formula_sum              "Ge16 Yb6"
_cell_length_a       7.40224
_cell_length_b       7.56962
_cell_length_c       10.4498
_cell_angle_alpha    69.0692
_cell_angle_beta     69.8695
_cell_angle_gamma    64.4319

_space_group_name_H-M_alt    "P 1"
_space_group_IT_number       1

loop_
  _space_group_symop_operation_xyz
  'x, y, z'

loop_
  _atom_site_type_symbol
  _atom_site_label
  _atom_site_symmetry_multiplicity
  _atom_site_fract_x
  _atom_site_fract_y
  _atom_site_fract_z
  _atom_site_occupancy
  Ge  Ge1       1.0  0.31800  0.09470  0.06880  1.0000
  Ge  Ge2       1.0  0.62400  0.35800  0.07540  1.0000
  Ge  Ge3       1.0  0.82600  0.55400  0.08310  1.0000
  Ge  Ge4       1.0  0.12500  0.87300  0.09220  1.0000
  Ge  Ge5       1.0  0.33400  0.69200  0.30700  1.0000
  Ge  Ge6       1.0  0.12800  0.03230  0.35500  1.0000
  Ge  Ge7       1.0  0.82300  0.54900  0.47500  1.0000
  Ge  Ge8       1.0  0.32400  0.10700  0.47900  1.0000
  Ge  Ge9       1.0  0.67600  0.89300  0.52100  1.0000
  Ge  Ge10      1.0  0.17700  0.45100  0.52500  1.0000
  Ge  Ge11      1.0  0.87200  0.96800  0.64500  1.0000
  Ge  Ge12      1.0  0.66600  0.30800  0.69300  1.0000
  Ge  Ge13      1.0  0.87500  0.12700  0.90800  1.0000
  Ge  Ge14      1.0  0.17400  0.44600  0.91700  1.0000
  Ge  Ge15      1.0  0.37600  0.64200  0.92500  1.0000
  Ge  Ge16      1.0  0.68200  0.90500  0.93100  1.0000
  Yb  Yb1       1.0  0.17800  0.43800  0.21900  1.0000
  Yb  Yb2       1.0  0.66400  0.90900  0.22400  1.0000
  Yb  Yb3       1.0  0.67000  0.31700  0.37500  1.0000
  Yb  Yb4       1.0  0.33000  0.68300  0.62500  1.0000
  Yb  Yb5       1.0  0.33600  0.09130  0.77600  1.0000
  Yb  Yb6       1.0  0.82200  0.56200  0.78100  1.0000
