data_image0
_chemical_formula_structural       Ge12Pr4Zn6
_chemical_formula_sum              "Ge12 Pr4 Zn6"
_cell_length_a       12.7999
_cell_length_b       5.97626
_cell_length_c       5.97178
_cell_angle_alpha    90
_cell_angle_beta     90
_cell_angle_gamma    103.5

_space_group_name_H-M_alt    "P 1"
_space_group_IT_number       1

loop_
  _space_group_symop_operation_xyz
  'x, y, z'

loop_
  _atom_site_type_symbol
  _atom_site_label
  _atom_site_symmetry_multiplicity
  _atom_site_fract_x
  _atom_site_fract_y
  _atom_site_fract_z
  _atom_site_occupancy
  Ge  Ge1       1.0  0.59800  0.08320  0.03410  1.0000
  Ge  Ge2       1.0  0.59800  0.51500  0.03410  1.0000
  Ge  Ge3       1.0  0.11600  0.05820  0.25000  1.0000
  Ge  Ge4       1.0  0.86200  0.43100  0.25000  1.0000
  Ge  Ge5       1.0  0.59800  0.08320  0.46600  1.0000
  Ge  Ge6       1.0  0.59800  0.51500  0.46600  1.0000
  Ge  Ge7       1.0  0.40200  0.48500  0.53400  1.0000
  Ge  Ge8       1.0  0.40200  0.91700  0.53400  1.0000
  Ge  Ge9       1.0  0.13800  0.56900  0.75000  1.0000
  Ge  Ge10      1.0  0.88400  0.94200  0.75000  1.0000
  Ge  Ge11      1.0  0.40200  0.48500  0.96600  1.0000
  Ge  Ge12      1.0  0.40200  0.91700  0.96600  1.0000
  Pr  Pr1       1.0  0.21200  0.60600  0.25000  1.0000
  Pr  Pr2       1.0  0.78900  0.89500  0.25000  1.0000
  Pr  Pr3       1.0  0.21100  0.10500  0.75000  1.0000
  Pr  Pr4       1.0  0.78800  0.39400  0.75000  1.0000
  Zn  Zn1       1.0  0.00000  0.26500  0.00000  1.0000
  Zn  Zn2       1.0  0.00000  0.73500  0.00000  1.0000
  Zn  Zn3       1.0  0.31900  0.16000  0.25000  1.0000
  Zn  Zn4       1.0  0.00000  0.26500  0.50000  1.0000
  Zn  Zn5       1.0  0.00000  0.73500  0.50000  1.0000
  Zn  Zn6       1.0  0.68100  0.84000  0.75000  1.0000
