data_image0
_chemical_formula_structural       Dy10In8Pd4
_chemical_formula_sum              "Dy10 In8 Pd4"
_cell_length_a       18.2345
_cell_length_b       8.0566
_cell_length_c       3.65733
_cell_angle_alpha    90
_cell_angle_beta     90
_cell_angle_gamma    90

_space_group_name_H-M_alt    "P 1"
_space_group_IT_number       1

loop_
  _space_group_symop_operation_xyz
  'x, y, z'

loop_
  _atom_site_type_symbol
  _atom_site_label
  _atom_site_symmetry_multiplicity
  _atom_site_fract_x
  _atom_site_fract_y
  _atom_site_fract_z
  _atom_site_occupancy
  Dy  Dy1       1.0  0.00000  0.00000  0.00000  1.0000
  Dy  Dy2       1.0  0.41700  0.11700  0.00000  1.0000
  Dy  Dy3       1.0  0.22000  0.24300  0.00000  1.0000
  Dy  Dy4       1.0  0.72000  0.25700  0.00000  1.0000
  Dy  Dy5       1.0  0.91700  0.38300  0.00000  1.0000
  Dy  Dy6       1.0  0.50000  0.50000  0.00000  1.0000
  Dy  Dy7       1.0  0.08270  0.61700  0.00000  1.0000
  Dy  Dy8       1.0  0.28000  0.74300  0.00000  1.0000
  Dy  Dy9       1.0  0.78000  0.75700  0.00000  1.0000
  Dy  Dy10      1.0  0.58300  0.88300  0.00000  1.0000
  In  In1       1.0  0.85000  0.07720  0.50000  1.0000
  In  In2       1.0  0.56900  0.21100  0.50000  1.0000
  In  In3       1.0  0.06860  0.28900  0.50000  1.0000
  In  In4       1.0  0.35000  0.42300  0.50000  1.0000
  In  In5       1.0  0.65000  0.57700  0.50000  1.0000
  In  In6       1.0  0.93100  0.71100  0.50000  1.0000
  In  In7       1.0  0.43100  0.78900  0.50000  1.0000
  In  In8       1.0  0.15000  0.92300  0.50000  1.0000
  Pd  Pd1       1.0  0.30400  0.02610  0.50000  1.0000
  Pd  Pd2       1.0  0.80400  0.47400  0.50000  1.0000
  Pd  Pd3       1.0  0.19600  0.52600  0.50000  1.0000
  Pd  Pd4       1.0  0.69600  0.97400  0.50000  1.0000
