data_image0
_chemical_formula_structural       La4O14Ti4
_chemical_formula_sum              "La4 O14 Ti4"
_cell_length_a       3.92987
_cell_length_b       5.53235
_cell_length_c       12.9407
_cell_angle_alpha    90
_cell_angle_beta     81.2664
_cell_angle_gamma    90

_space_group_name_H-M_alt    "P 1"
_space_group_IT_number       1

loop_
  _space_group_symop_operation_xyz
  'x, y, z'

loop_
  _atom_site_type_symbol
  _atom_site_label
  _atom_site_symmetry_multiplicity
  _atom_site_fract_x
  _atom_site_fract_y
  _atom_site_fract_z
  _atom_site_occupancy
  La  La1       1.0  0.44600  0.74900  0.10800  1.0000
  La  La2       1.0  0.29700  0.17000  0.40700  1.0000
  La  La3       1.0  0.70300  0.67000  0.59300  1.0000
  La  La4       1.0  0.55400  0.24900  0.89200  1.0000
  O   O1        1.0  0.98900  0.96100  0.02170  1.0000
  O   O2        1.0  0.45100  0.25800  0.09740  1.0000
  O   O3        1.0  0.90800  0.55600  0.18500  1.0000
  O   O4        1.0  0.88400  0.04410  0.23300  1.0000
  O   O5        1.0  0.34600  0.74600  0.30800  1.0000
  O   O6        1.0  0.79600  0.44100  0.40800  1.0000
  O   O7        1.0  0.78000  0.92900  0.44000  1.0000
  O   O8        1.0  0.22000  0.42900  0.56000  1.0000
  O   O9        1.0  0.20400  0.94100  0.59200  1.0000
  O   O10       1.0  0.65400  0.24600  0.69200  1.0000
  O   O11       1.0  0.11600  0.54400  0.76700  1.0000
  O   O12       1.0  0.09240  0.05630  0.81500  1.0000
  O   O13       1.0  0.54900  0.75800  0.90300  1.0000
  O   O14       1.0  0.01090  0.46100  0.97800  1.0000
  Ti  Ti1       1.0  0.94100  0.24000  0.11700  1.0000
  Ti  Ti2       1.0  0.83700  0.71000  0.32500  1.0000
  Ti  Ti3       1.0  0.16300  0.21000  0.67500  1.0000
  Ti  Ti4       1.0  0.05870  0.74000  0.88300  1.0000
