data_image0
_chemical_formula_structural       Bi3Cl5O10Te4
_chemical_formula_sum              "Bi3 Cl5 O10 Te4"
_cell_length_a       4.07762
_cell_length_b       7.91831
_cell_length_c       13.2399
_cell_angle_alpha    97.6692
_cell_angle_beta     90
_cell_angle_gamma    104.921

_space_group_name_H-M_alt    "P 1"
_space_group_IT_number       1

loop_
  _space_group_symop_operation_xyz
  'x, y, z'

loop_
  _atom_site_type_symbol
  _atom_site_label
  _atom_site_symmetry_multiplicity
  _atom_site_fract_x
  _atom_site_fract_y
  _atom_site_fract_z
  _atom_site_occupancy
  Bi  Bi1       1.0  0.00000  0.00000  0.00000  1.0000
  Bi  Bi2       1.0  0.78200  0.56400  0.19300  1.0000
  Bi  Bi3       1.0  0.21800  0.43600  0.80700  1.0000
  Cl  Cl1       1.0  0.17700  0.35400  0.02760  1.0000
  Cl  Cl2       1.0  0.15500  0.30900  0.27700  1.0000
  Cl  Cl3       1.0  0.50000  0.00000  0.50000  1.0000
  Cl  Cl4       1.0  0.84500  0.69100  0.72300  1.0000
  Cl  Cl5       1.0  0.82300  0.64600  0.97200  1.0000
  O   O1        1.0  0.51100  0.02240  0.10100  1.0000
  O   O2        1.0  0.94200  0.88400  0.19700  1.0000
  O   O3        1.0  0.34700  0.69400  0.19800  1.0000
  O   O4        1.0  0.83800  0.67600  0.35600  1.0000
  O   O5        1.0  0.70700  0.41400  0.49700  1.0000
  O   O6        1.0  0.29300  0.58600  0.50300  1.0000
  O   O7        1.0  0.16200  0.32400  0.64400  1.0000
  O   O8        1.0  0.65300  0.30600  0.80200  1.0000
  O   O9        1.0  0.05810  0.11600  0.80300  1.0000
  O   O10       1.0  0.48900  0.97800  0.89900  1.0000
  Te  Te1       1.0  0.47400  0.94900  0.23100  1.0000
  Te  Te2       1.0  0.84000  0.68000  0.49700  1.0000
  Te  Te3       1.0  0.16000  0.32000  0.50300  1.0000
  Te  Te4       1.0  0.52600  0.05100  0.76900  1.0000
