data_image0
_chemical_formula_structural       Ge12Nd4Zn6
_chemical_formula_sum              "Ge12 Nd4 Zn6"
_cell_length_a       5.9454
_cell_length_b       5.94915
_cell_length_c       12.7478
_cell_angle_alpha    76.5062
_cell_angle_beta     90
_cell_angle_gamma    90

_space_group_name_H-M_alt    "P 1"
_space_group_IT_number       1

loop_
  _space_group_symop_operation_xyz
  'x, y, z'

loop_
  _atom_site_type_symbol
  _atom_site_label
  _atom_site_symmetry_multiplicity
  _atom_site_fract_x
  _atom_site_fract_y
  _atom_site_fract_z
  _atom_site_occupancy
  Ge  Ge1       1.0  0.75000  0.94200  0.11600  1.0000
  Ge  Ge2       1.0  0.25000  0.43000  0.14000  1.0000
  Ge  Ge3       1.0  0.03350  0.08300  0.40200  1.0000
  Ge  Ge4       1.0  0.46600  0.08300  0.40200  1.0000
  Ge  Ge5       1.0  0.03350  0.51500  0.40200  1.0000
  Ge  Ge6       1.0  0.46600  0.51500  0.40200  1.0000
  Ge  Ge7       1.0  0.53400  0.48500  0.59800  1.0000
  Ge  Ge8       1.0  0.96600  0.48500  0.59800  1.0000
  Ge  Ge9       1.0  0.53400  0.91700  0.59800  1.0000
  Ge  Ge10      1.0  0.96600  0.91700  0.59800  1.0000
  Ge  Ge11      1.0  0.75000  0.57000  0.86000  1.0000
  Ge  Ge12      1.0  0.25000  0.05820  0.88400  1.0000
  Nd  Nd1       1.0  0.25000  0.89400  0.21100  1.0000
  Nd  Nd2       1.0  0.75000  0.39400  0.21200  1.0000
  Nd  Nd3       1.0  0.25000  0.60600  0.78800  1.0000
  Nd  Nd4       1.0  0.75000  0.10600  0.78900  1.0000
  Zn  Zn1       1.0  0.00000  0.26500  0.00000  1.0000
  Zn  Zn2       1.0  0.50000  0.26500  0.00000  1.0000
  Zn  Zn3       1.0  0.00000  0.73500  0.00000  1.0000
  Zn  Zn4       1.0  0.50000  0.73500  0.00000  1.0000
  Zn  Zn5       1.0  0.75000  0.84000  0.31900  1.0000
  Zn  Zn6       1.0  0.25000  0.16000  0.68100  1.0000
