data_image0
_chemical_formula_structural       Ga6N10Sr6
_chemical_formula_sum              "Ga6 N10 Sr6"
_cell_length_a       5.9592
_cell_length_b       7.22185
_cell_length_c       8.70282
_cell_angle_alpha    108.457
_cell_angle_beta     103.773
_cell_angle_gamma    95.3647

_space_group_name_H-M_alt    "P 1"
_space_group_IT_number       1

loop_
  _space_group_symop_operation_xyz
  'x, y, z'

loop_
  _atom_site_type_symbol
  _atom_site_label
  _atom_site_symmetry_multiplicity
  _atom_site_fract_x
  _atom_site_fract_y
  _atom_site_fract_z
  _atom_site_occupancy
  Ga  Ga1       1.0  0.09260  0.68400  0.02650  1.0000
  Ga  Ga2       1.0  0.87700  0.12300  0.28400  1.0000
  Ga  Ga3       1.0  0.29000  0.04550  0.43200  1.0000
  Ga  Ga4       1.0  0.71000  0.95500  0.56800  1.0000
  Ga  Ga5       1.0  0.12300  0.87700  0.71600  1.0000
  Ga  Ga6       1.0  0.90700  0.31600  0.97400  1.0000
  N   N1        1.0  0.23600  0.47400  0.09560  1.0000
  N   N2        1.0  0.74100  0.22500  0.11000  1.0000
  N   N3        1.0  0.04250  0.89100  0.22200  1.0000
  N   N4        1.0  0.61300  0.05260  0.38100  1.0000
  N   N5        1.0  0.16200  0.29000  0.47500  1.0000
  N   N6        1.0  0.83800  0.71000  0.52500  1.0000
  N   N7        1.0  0.38700  0.94700  0.61900  1.0000
  N   N8        1.0  0.95700  0.10900  0.77800  1.0000
  N   N9        1.0  0.25900  0.77500  0.89000  1.0000
  N   N10       1.0  0.76400  0.52600  0.90400  1.0000
  Sr  Sr1       1.0  0.33200  0.13800  0.12700  1.0000
  Sr  Sr2       1.0  0.65700  0.65500  0.20300  1.0000
  Sr  Sr3       1.0  0.18400  0.58900  0.39200  1.0000
  Sr  Sr4       1.0  0.81600  0.41100  0.60800  1.0000
  Sr  Sr5       1.0  0.34300  0.34500  0.79700  1.0000
  Sr  Sr6       1.0  0.66800  0.86200  0.87300  1.0000
