data_image0
_chemical_formula_structural       Hg4Mo4O14
_chemical_formula_sum              "Hg4 Mo4 O14"
_cell_length_a       7.12986
_cell_length_b       7.10814
_cell_length_c       8.06844
_cell_angle_alpha    64.9036
_cell_angle_beta     65.3057
_cell_angle_gamma    66.2453

_space_group_name_H-M_alt    "P 1"
_space_group_IT_number       1

loop_
  _space_group_symop_operation_xyz
  'x, y, z'

loop_
  _atom_site_type_symbol
  _atom_site_label
  _atom_site_symmetry_multiplicity
  _atom_site_fract_x
  _atom_site_fract_y
  _atom_site_fract_z
  _atom_site_occupancy
  Hg  Hg1       1.0  0.18600  0.32600  0.36700  1.0000
  Hg  Hg2       1.0  0.62300  0.81800  0.37700  1.0000
  Hg  Hg3       1.0  0.37700  0.18200  0.62300  1.0000
  Hg  Hg4       1.0  0.81400  0.67400  0.63300  1.0000
  Mo  Mo1       1.0  0.29800  0.88000  0.12300  1.0000
  Mo  Mo2       1.0  0.80800  0.37300  0.13900  1.0000
  Mo  Mo3       1.0  0.19200  0.62700  0.86100  1.0000
  Mo  Mo4       1.0  0.70200  0.12000  0.87700  1.0000
  O   O1        1.0  0.69400  0.29900  0.00541  1.0000
  O   O2        1.0  0.09920  0.11100  0.04220  1.0000
  O   O3        1.0  0.02830  0.45400  0.15300  1.0000
  O   O4        1.0  0.45000  0.01880  0.16500  1.0000
  O   O5        1.0  0.58800  0.59900  0.18100  1.0000
  O   O6        1.0  0.16000  0.76200  0.35700  1.0000
  O   O7        1.0  0.76900  0.17300  0.36000  1.0000
  O   O8        1.0  0.23100  0.82700  0.64000  1.0000
  O   O9        1.0  0.84000  0.23800  0.64300  1.0000
  O   O10       1.0  0.41200  0.40100  0.81900  1.0000
  O   O11       1.0  0.55000  0.98100  0.83500  1.0000
  O   O12       1.0  0.97200  0.54600  0.84700  1.0000
  O   O13       1.0  0.90100  0.88900  0.95800  1.0000
  O   O14       1.0  0.30600  0.70100  0.99500  1.0000
