data_image0
_chemical_formula_structural       Li2O14P4Sc2
_chemical_formula_sum              "Li2 O14 P4 Sc2"
_cell_length_a       7.01593
_cell_length_b       8.32635
_cell_length_c       4.90505
_cell_angle_alpha    90
_cell_angle_beta     110.603
_cell_angle_gamma    90

_space_group_name_H-M_alt    "P 1"
_space_group_IT_number       1

loop_
  _space_group_symop_operation_xyz
  'x, y, z'

loop_
  _atom_site_type_symbol
  _atom_site_label
  _atom_site_symmetry_multiplicity
  _atom_site_fract_x
  _atom_site_fract_y
  _atom_site_fract_z
  _atom_site_occupancy
  Li  Li1       1.0  0.67300  0.86000  0.19100  1.0000
  Li  Li2       1.0  0.32700  0.36000  0.80900  1.0000
  O   O1        1.0  0.87200  0.32000  0.07500  1.0000
  O   O2        1.0  0.87000  0.69900  0.11900  1.0000
  O   O3        1.0  0.49200  0.03410  0.20300  1.0000
  O   O4        1.0  0.51100  0.33900  0.24100  1.0000
  O   O5        1.0  0.07360  0.93600  0.37000  1.0000
  O   O6        1.0  0.23500  0.65700  0.39000  1.0000
  O   O7        1.0  0.59800  0.68100  0.40000  1.0000
  O   O8        1.0  0.40200  0.18100  0.60000  1.0000
  O   O9        1.0  0.76500  0.15700  0.61000  1.0000
  O   O10       1.0  0.92600  0.43600  0.63000  1.0000
  O   O11       1.0  0.48900  0.83900  0.75900  1.0000
  O   O12       1.0  0.50800  0.53400  0.79700  1.0000
  O   O13       1.0  0.13000  0.19900  0.88100  1.0000
  O   O14       1.0  0.12800  0.82000  0.92500  1.0000
  P   P1        1.0  0.07320  0.78600  0.19100  1.0000
  P   P2        1.0  0.52900  0.18000  0.40400  1.0000
  P   P3        1.0  0.47100  0.68000  0.59600  1.0000
  P   P4        1.0  0.92700  0.28600  0.80900  1.0000
  Sc  Sc1       1.0  0.73400  0.50000  0.22200  1.0000
  Sc  Sc2       1.0  0.26600  0.00010  0.77800  1.0000
