data_image0
_chemical_formula_structural       Ba2O14Sr2Ta4
_chemical_formula_sum              "Ba2 O14 Sr2 Ta4"
_cell_length_a       4.00161
_cell_length_b       7.85237
_cell_length_c       10.9899
_cell_angle_alpha    110.932
_cell_angle_beta     100.49
_cell_angle_gamma    90

_space_group_name_H-M_alt    "P 1"
_space_group_IT_number       1

loop_
  _space_group_symop_operation_xyz
  'x, y, z'

loop_
  _atom_site_type_symbol
  _atom_site_label
  _atom_site_symmetry_multiplicity
  _atom_site_fract_x
  _atom_site_fract_y
  _atom_site_fract_z
  _atom_site_occupancy
  Ba  Ba1       1.0  0.73900  0.23900  0.47800  1.0000
  Ba  Ba2       1.0  0.26100  0.76100  0.52200  1.0000
  O   O1        1.0  0.00000  0.29000  0.00000  1.0000
  O   O2        1.0  0.00000  0.71000  0.00000  1.0000
  O   O3        1.0  0.07900  0.07900  0.15800  1.0000
  O   O4        1.0  0.59300  0.34000  0.18600  1.0000
  O   O5        1.0  0.59300  0.84700  0.18600  1.0000
  O   O6        1.0  0.11500  0.61500  0.23000  1.0000
  O   O7        1.0  0.19500  0.39500  0.38900  1.0000
  O   O8        1.0  0.19500  0.99400  0.38900  1.0000
  O   O9        1.0  0.80500  0.00586  0.61100  1.0000
  O   O10       1.0  0.80500  0.60500  0.61100  1.0000
  O   O11       1.0  0.88500  0.38500  0.77000  1.0000
  O   O12       1.0  0.40700  0.15300  0.81400  1.0000
  O   O13       1.0  0.40700  0.66000  0.81400  1.0000
  O   O14       1.0  0.92100  0.92100  0.84200  1.0000
  Sr  Sr1       1.0  0.50000  0.00000  0.00000  1.0000
  Sr  Sr2       1.0  0.50000  0.50000  0.00000  1.0000
  Ta  Ta1       1.0  0.10400  0.35200  0.20700  1.0000
  Ta  Ta2       1.0  0.10400  0.85600  0.20700  1.0000
  Ta  Ta3       1.0  0.89600  0.14400  0.79300  1.0000
  Ta  Ta4       1.0  0.89600  0.64800  0.79300  1.0000
