data_image0
_chemical_formula_structural       Na2O14P4Y2
_chemical_formula_sum              "Na2 O14 P4 Y2"
_cell_length_a       7.03344
_cell_length_b       5.24062
_cell_length_c       8.63175
_cell_angle_alpha    90
_cell_angle_beta     111.347
_cell_angle_gamma    90

_space_group_name_H-M_alt    "P 1"
_space_group_IT_number       1

loop_
  _space_group_symop_operation_xyz
  'x, y, z'

loop_
  _atom_site_type_symbol
  _atom_site_label
  _atom_site_symmetry_multiplicity
  _atom_site_fract_x
  _atom_site_fract_y
  _atom_site_fract_z
  _atom_site_occupancy
  Na  Na1       1.0  0.16700  0.49000  0.04830  1.0000
  Na  Na2       1.0  0.83300  0.99000  0.95200  1.0000
  O   O1        1.0  0.29500  0.05660  0.03140  1.0000
  O   O2        1.0  0.48400  0.67100  0.19200  1.0000
  O   O3        1.0  0.02840  0.23800  0.19600  1.0000
  O   O4        1.0  0.04610  0.76600  0.23700  1.0000
  O   O5        1.0  0.66200  0.10100  0.23900  1.0000
  O   O6        1.0  0.37400  0.02860  0.34000  1.0000
  O   O7        1.0  0.13100  0.06830  0.48800  1.0000
  O   O8        1.0  0.86900  0.56800  0.51200  1.0000
  O   O9        1.0  0.62600  0.52900  0.66000  1.0000
  O   O10       1.0  0.33800  0.60100  0.76100  1.0000
  O   O11       1.0  0.95400  0.26600  0.76300  1.0000
  O   O12       1.0  0.97200  0.73800  0.80400  1.0000
  O   O13       1.0  0.51600  0.17100  0.80800  1.0000
  O   O14       1.0  0.70500  0.55700  0.96900  1.0000
  P   P1        1.0  0.45800  0.96200  0.19300  1.0000
  P   P2        1.0  0.13500  0.02170  0.31600  1.0000
  P   P3        1.0  0.86500  0.52200  0.68400  1.0000
  P   P4        1.0  0.54200  0.46200  0.80700  1.0000
  Y   Y1        1.0  0.79600  0.49400  0.24800  1.0000
  Y   Y2        1.0  0.20400  0.99400  0.75200  1.0000
