data_image0
_chemical_formula_structural       Ag6Cs2Se10Tb4
_chemical_formula_sum              "Ag6 Cs2 Se10 Tb4"
_cell_length_a       4.31234
_cell_length_b       8.06826
_cell_length_c       17.5373
_cell_angle_alpha    90
_cell_angle_beta     90
_cell_angle_gamma    74.4998

_space_group_name_H-M_alt    "P 1"
_space_group_IT_number       1

loop_
  _space_group_symop_operation_xyz
  'x, y, z'

loop_
  _atom_site_type_symbol
  _atom_site_label
  _atom_site_symmetry_multiplicity
  _atom_site_fract_x
  _atom_site_fract_y
  _atom_site_fract_z
  _atom_site_occupancy
  Ag  Ag1       1.0  0.08340  0.83300  0.04150  1.0000
  Ag  Ag2       1.0  0.84300  0.31400  0.25000  1.0000
  Ag  Ag3       1.0  0.08340  0.83300  0.45800  1.0000
  Ag  Ag4       1.0  0.91700  0.16700  0.54200  1.0000
  Ag  Ag5       1.0  0.15700  0.68600  0.75000  1.0000
  Ag  Ag6       1.0  0.91700  0.16700  0.95800  1.0000
  Cs  Cs1       1.0  0.56200  0.87700  0.25000  1.0000
  Cs  Cs2       1.0  0.43800  0.12300  0.75000  1.0000
  Se  Se1       1.0  0.68200  0.63700  0.07000  1.0000
  Se  Se2       1.0  0.93100  0.13700  0.11600  1.0000
  Se  Se3       1.0  0.24600  0.50700  0.25000  1.0000
  Se  Se4       1.0  0.93100  0.13700  0.38400  1.0000
  Se  Se5       1.0  0.68200  0.63700  0.43000  1.0000
  Se  Se6       1.0  0.31800  0.36300  0.57000  1.0000
  Se  Se7       1.0  0.06870  0.86300  0.61600  1.0000
  Se  Se8       1.0  0.75400  0.49300  0.75000  1.0000
  Se  Se9       1.0  0.06870  0.86300  0.88400  1.0000
  Se  Se10      1.0  0.31800  0.36300  0.93000  1.0000
  Tb  Tb1       1.0  0.30700  0.38500  0.09510  1.0000
  Tb  Tb2       1.0  0.30700  0.38500  0.40500  1.0000
  Tb  Tb3       1.0  0.69300  0.61500  0.59500  1.0000
  Tb  Tb4       1.0  0.69300  0.61500  0.90500  1.0000
