data_image0
_chemical_formula_structural       Ge12La4Zn6
_chemical_formula_sum              "Ge12 La4 Zn6"
_cell_length_a       12.8724
_cell_length_b       6.01886
_cell_length_c       6.01137
_cell_angle_alpha    90
_cell_angle_beta     90
_cell_angle_gamma    103.52

_space_group_name_H-M_alt    "P 1"
_space_group_IT_number       1

loop_
  _space_group_symop_operation_xyz
  'x, y, z'

loop_
  _atom_site_type_symbol
  _atom_site_label
  _atom_site_symmetry_multiplicity
  _atom_site_fract_x
  _atom_site_fract_y
  _atom_site_fract_z
  _atom_site_occupancy
  Ge  Ge1       1.0  0.40300  0.41600  0.03520  1.0000
  Ge  Ge2       1.0  0.40300  0.98700  0.03520  1.0000
  Ge  Ge3       1.0  0.13300  0.06650  0.25000  1.0000
  Ge  Ge4       1.0  0.88300  0.44100  0.25000  1.0000
  Ge  Ge5       1.0  0.40300  0.41600  0.46500  1.0000
  Ge  Ge6       1.0  0.40300  0.98700  0.46500  1.0000
  Ge  Ge7       1.0  0.59700  0.01330  0.53500  1.0000
  Ge  Ge8       1.0  0.59700  0.58400  0.53500  1.0000
  Ge  Ge9       1.0  0.11700  0.55900  0.75000  1.0000
  Ge  Ge10      1.0  0.86700  0.93300  0.75000  1.0000
  Ge  Ge11      1.0  0.59700  0.01330  0.96500  1.0000
  Ge  Ge12      1.0  0.59700  0.58400  0.96500  1.0000
  La  La1       1.0  0.21100  0.60600  0.25000  1.0000
  La  La2       1.0  0.78900  0.89400  0.25000  1.0000
  La  La3       1.0  0.21100  0.10600  0.75000  1.0000
  La  La4       1.0  0.78900  0.39400  0.75000  1.0000
  Zn  Zn1       1.0  0.00000  0.23900  0.00000  1.0000
  Zn  Zn2       1.0  0.00000  0.76100  0.00000  1.0000
  Zn  Zn3       1.0  0.67800  0.33900  0.25000  1.0000
  Zn  Zn4       1.0  0.00000  0.23900  0.50000  1.0000
  Zn  Zn5       1.0  0.00000  0.76100  0.50000  1.0000
  Zn  Zn6       1.0  0.32200  0.66100  0.75000  1.0000
