data_image0
_chemical_formula_structural       Li2O14P4Ti2
_chemical_formula_sum              "Li2 O14 P4 Ti2"
_cell_length_a       4.86907
_cell_length_b       8.1613
_cell_length_c       6.94175
_cell_angle_alpha    90
_cell_angle_beta     109.55
_cell_angle_gamma    90

_space_group_name_H-M_alt    "P 1"
_space_group_IT_number       1

loop_
  _space_group_symop_operation_xyz
  'x, y, z'

loop_
  _atom_site_type_symbol
  _atom_site_label
  _atom_site_symmetry_multiplicity
  _atom_site_fract_x
  _atom_site_fract_y
  _atom_site_fract_z
  _atom_site_occupancy
  Li  Li1       1.0  0.68500  0.06380  0.18100  1.0000
  Li  Li2       1.0  0.31500  0.56400  0.81900  1.0000
  O   O1        1.0  0.74700  0.54500  0.00347  1.0000
  O   O2        1.0  0.30500  0.73400  0.01330  1.0000
  O   O3        1.0  0.89500  0.87800  0.10400  1.0000
  O   O4        1.0  0.09850  0.35400  0.25900  1.0000
  O   O5        1.0  0.55600  0.52400  0.35500  1.0000
  O   O6        1.0  0.61400  0.89500  0.37600  1.0000
  O   O7        1.0  0.11600  0.63700  0.43200  1.0000
  O   O8        1.0  0.88400  0.13700  0.56800  1.0000
  O   O9        1.0  0.38600  0.39500  0.62400  1.0000
  O   O10       1.0  0.44400  0.02440  0.64500  1.0000
  O   O11       1.0  0.90100  0.85400  0.74100  1.0000
  O   O12       1.0  0.10500  0.37800  0.89600  1.0000
  O   O13       1.0  0.69500  0.23400  0.98700  1.0000
  O   O14       1.0  0.25300  0.04480  0.99700  1.0000
  P   P1        1.0  0.90300  0.38000  0.02330  1.0000
  P   P2        1.0  0.29500  0.48500  0.42100  1.0000
  P   P3        1.0  0.70500  0.98500  0.57900  1.0000
  P   P4        1.0  0.09750  0.88000  0.97700  1.0000
  Ti  Ti1       1.0  0.71500  0.69800  0.23000  1.0000
  Ti  Ti2       1.0  0.28500  0.19800  0.77000  1.0000
