data_image0
_chemical_formula_structural       Gd6O14Re2
_chemical_formula_sum              "Gd6 O14 Re2"
_cell_length_a       6.43563
_cell_length_b       6.43563
_cell_length_c       7.45068
_cell_angle_alpha    90
_cell_angle_beta     90
_cell_angle_gamma    69.2467

_space_group_name_H-M_alt    "P 1"
_space_group_IT_number       1

loop_
  _space_group_symop_operation_xyz
  'x, y, z'

loop_
  _atom_site_type_symbol
  _atom_site_label
  _atom_site_symmetry_multiplicity
  _atom_site_fract_x
  _atom_site_fract_y
  _atom_site_fract_z
  _atom_site_occupancy
  Gd  Gd1       1.0  0.50000  0.50000  0.00000  1.0000
  Gd  Gd2       1.0  0.02400  0.42800  0.25000  1.0000
  Gd  Gd3       1.0  0.57200  0.97600  0.25000  1.0000
  Gd  Gd4       1.0  0.50000  0.50000  0.50000  1.0000
  Gd  Gd5       1.0  0.42800  0.02400  0.75000  1.0000
  Gd  Gd6       1.0  0.97600  0.57200  0.75000  1.0000
  O   O1        1.0  0.06430  0.68000  0.03790  1.0000
  O   O2        1.0  0.32000  0.93600  0.03790  1.0000
  O   O3        1.0  0.92100  0.07910  0.25000  1.0000
  O   O4        1.0  0.39300  0.34300  0.25000  1.0000
  O   O5        1.0  0.65700  0.60700  0.25000  1.0000
  O   O6        1.0  0.06430  0.68000  0.46200  1.0000
  O   O7        1.0  0.32000  0.93600  0.46200  1.0000
  O   O8        1.0  0.68000  0.06430  0.53800  1.0000
  O   O9        1.0  0.93600  0.32000  0.53800  1.0000
  O   O10       1.0  0.34300  0.39300  0.75000  1.0000
  O   O11       1.0  0.60700  0.65700  0.75000  1.0000
  O   O12       1.0  0.07910  0.92100  0.75000  1.0000
  O   O13       1.0  0.68000  0.06430  0.96200  1.0000
  O   O14       1.0  0.93600  0.32000  0.96200  1.0000
  Re  Re1       1.0  0.00000  0.00000  0.00000  1.0000
  Re  Re2       1.0  0.00000  0.00000  0.50000  1.0000
