data_image0
_chemical_formula_structural       Ba6Ga4S12
_chemical_formula_sum              "Ba6 Ga4 S12"
_cell_length_a       8.58714
_cell_length_b       8.58714
_cell_length_c       9.15734
_cell_angle_alpha    90.9674
_cell_angle_beta     90.9674
_cell_angle_gamma    115.619

_space_group_name_H-M_alt    "P 1"
_space_group_IT_number       1

loop_
  _space_group_symop_operation_xyz
  'x, y, z'

loop_
  _atom_site_type_symbol
  _atom_site_label
  _atom_site_symmetry_multiplicity
  _atom_site_fract_x
  _atom_site_fract_y
  _atom_site_fract_z
  _atom_site_occupancy
  Ba  Ba1       1.0  0.45800  0.73400  0.00969  1.0000
  Ba  Ba2       1.0  0.03610  0.96400  0.25000  1.0000
  Ba  Ba3       1.0  0.26600  0.54200  0.49000  1.0000
  Ba  Ba4       1.0  0.73400  0.45800  0.51000  1.0000
  Ba  Ba5       1.0  0.96400  0.03610  0.75000  1.0000
  Ba  Ba6       1.0  0.54200  0.26600  0.99000  1.0000
  Ga  Ga1       1.0  0.02000  0.34500  0.06850  1.0000
  Ga  Ga2       1.0  0.65500  0.98000  0.43200  1.0000
  Ga  Ga3       1.0  0.34500  0.02000  0.56800  1.0000
  Ga  Ga4       1.0  0.98000  0.65500  0.93200  1.0000
  S   S1        1.0  0.79700  0.07930  0.04210  1.0000
  S   S2        1.0  0.91600  0.53100  0.16700  1.0000
  S   S3        1.0  0.27200  0.36800  0.16800  1.0000
  S   S4        1.0  0.63200  0.72800  0.33200  1.0000
  S   S5        1.0  0.46900  0.08440  0.33300  1.0000
  S   S6        1.0  0.92100  0.20300  0.45800  1.0000
  S   S7        1.0  0.07930  0.79700  0.54200  1.0000
  S   S8        1.0  0.53100  0.91600  0.66700  1.0000
  S   S9        1.0  0.36800  0.27200  0.66800  1.0000
  S   S10       1.0  0.72800  0.63200  0.83200  1.0000
  S   S11       1.0  0.08440  0.46900  0.83300  1.0000
  S   S12       1.0  0.20300  0.92100  0.95800  1.0000
