data_image0
_chemical_formula_structural       O14Sb2Sm6
_chemical_formula_sum              "O14 Sb2 Sm6"
_cell_length_a       6.55487
_cell_length_b       6.55487
_cell_length_c       7.61264
_cell_angle_alpha    90
_cell_angle_beta     90
_cell_angle_gamma    70.3349

_space_group_name_H-M_alt    "P 1"
_space_group_IT_number       1

loop_
  _space_group_symop_operation_xyz
  'x, y, z'

loop_
  _atom_site_type_symbol
  _atom_site_label
  _atom_site_symmetry_multiplicity
  _atom_site_fract_x
  _atom_site_fract_y
  _atom_site_fract_z
  _atom_site_occupancy
  O   O1        1.0  0.06560  0.06560  0.00000  1.0000
  O   O2        1.0  0.36500  0.36500  0.00000  1.0000
  O   O3        1.0  0.63000  0.63000  0.00000  1.0000
  O   O4        1.0  0.06990  0.68300  0.22000  1.0000
  O   O5        1.0  0.68200  0.07190  0.22100  1.0000
  O   O6        1.0  0.92800  0.31800  0.27900  1.0000
  O   O7        1.0  0.31700  0.93000  0.28000  1.0000
  O   O8        1.0  0.37000  0.37000  0.50000  1.0000
  O   O9        1.0  0.63500  0.63500  0.50000  1.0000
  O   O10       1.0  0.93400  0.93400  0.50000  1.0000
  O   O11       1.0  0.93000  0.31700  0.72000  1.0000
  O   O12       1.0  0.31800  0.92800  0.72100  1.0000
  O   O13       1.0  0.07190  0.68200  0.77900  1.0000
  O   O14       1.0  0.68300  0.06990  0.78000  1.0000
  Sb  Sb1       1.0  0.00000  0.00015  0.25000  1.0000
  Sb  Sb2       1.0  0.00015  0.00000  0.75000  1.0000
  Sm  Sm1       1.0  0.46700  0.99900  0.00059  1.0000
  Sm  Sm2       1.0  0.50100  0.49900  0.25000  1.0000
  Sm  Sm3       1.0  0.00060  0.53300  0.49900  1.0000
  Sm  Sm4       1.0  0.53300  0.00060  0.50100  1.0000
  Sm  Sm5       1.0  0.49900  0.50100  0.75000  1.0000
  Sm  Sm6       1.0  0.99900  0.46700  0.99900  1.0000
