data_image0
_chemical_formula_structural       Cl12N2Sc8
_chemical_formula_sum              "Cl12 N2 Sc8"
_cell_length_a       11.6093
_cell_length_b       12.083
_cell_length_c       3.49679
_cell_angle_alpha    90
_cell_angle_beta     90
_cell_angle_gamma    90

_space_group_name_H-M_alt    "P 1"
_space_group_IT_number       1

loop_
  _space_group_symop_operation_xyz
  'x, y, z'

loop_
  _atom_site_type_symbol
  _atom_site_label
  _atom_site_symmetry_multiplicity
  _atom_site_fract_x
  _atom_site_fract_y
  _atom_site_fract_z
  _atom_site_occupancy
  Cl  Cl1       1.0  0.74000  0.06870  0.00000  1.0000
  Cl  Cl2       1.0  0.48400  0.24100  0.00000  1.0000
  Cl  Cl3       1.0  0.98400  0.25900  0.00000  1.0000
  Cl  Cl4       1.0  0.24000  0.43100  0.00000  1.0000
  Cl  Cl5       1.0  0.76000  0.56900  0.00000  1.0000
  Cl  Cl6       1.0  0.01620  0.74100  0.00000  1.0000
  Cl  Cl7       1.0  0.51600  0.75900  0.00000  1.0000
  Cl  Cl8       1.0  0.26000  0.93100  0.00000  1.0000
  Cl  Cl9       1.0  0.23300  0.17800  0.50000  1.0000
  Cl  Cl10      1.0  0.73300  0.32200  0.50000  1.0000
  Cl  Cl11      1.0  0.26700  0.67800  0.50000  1.0000
  Cl  Cl12      1.0  0.76700  0.82200  0.50000  1.0000
  N   N1        1.0  0.00000  0.00000  0.50000  1.0000
  N   N2        1.0  0.50000  0.50000  0.50000  1.0000
  Sc  Sc1       1.0  0.10000  0.07830  0.00000  1.0000
  Sc  Sc2       1.0  0.60000  0.42200  0.00000  1.0000
  Sc  Sc3       1.0  0.40000  0.57800  0.00000  1.0000
  Sc  Sc4       1.0  0.90000  0.92200  0.00000  1.0000
  Sc  Sc5       1.0  0.88000  0.14300  0.50000  1.0000
  Sc  Sc6       1.0  0.38000  0.35700  0.50000  1.0000
  Sc  Sc7       1.0  0.62000  0.64300  0.50000  1.0000
  Sc  Sc8       1.0  0.12000  0.85700  0.50000  1.0000
