data_image0
_chemical_formula_structural       Cu6K2Se10Tm4
_chemical_formula_sum              "Cu6 K2 Se10 Tm4"
_cell_length_a       4.08754
_cell_length_b       7.47059
_cell_length_c       16.7861
_cell_angle_alpha    90
_cell_angle_beta     90
_cell_angle_gamma    74.1229

_space_group_name_H-M_alt    "P 1"
_space_group_IT_number       1

loop_
  _space_group_symop_operation_xyz
  'x, y, z'

loop_
  _atom_site_type_symbol
  _atom_site_label
  _atom_site_symmetry_multiplicity
  _atom_site_fract_x
  _atom_site_fract_y
  _atom_site_fract_z
  _atom_site_occupancy
  Cu  Cu1       1.0  0.58400  0.83100  0.02950  1.0000
  Cu  Cu2       1.0  0.34000  0.31900  0.25000  1.0000
  Cu  Cu3       1.0  0.58400  0.83100  0.47000  1.0000
  Cu  Cu4       1.0  0.41600  0.16900  0.53000  1.0000
  Cu  Cu5       1.0  0.66000  0.68100  0.75000  1.0000
  Cu  Cu6       1.0  0.41600  0.16900  0.97000  1.0000
  K   K1        1.0  0.06150  0.87700  0.25000  1.0000
  K   K2        1.0  0.93900  0.12300  0.75000  1.0000
  Se  Se1       1.0  0.16700  0.66600  0.07270  1.0000
  Se  Se2       1.0  0.44000  0.11900  0.11900  1.0000
  Se  Se3       1.0  0.74900  0.50200  0.25000  1.0000
  Se  Se4       1.0  0.44000  0.11900  0.38100  1.0000
  Se  Se5       1.0  0.16700  0.66600  0.42700  1.0000
  Se  Se6       1.0  0.83300  0.33400  0.57300  1.0000
  Se  Se7       1.0  0.56000  0.88100  0.61900  1.0000
  Se  Se8       1.0  0.25100  0.49800  0.75000  1.0000
  Se  Se9       1.0  0.56000  0.88100  0.88100  1.0000
  Se  Se10      1.0  0.83300  0.33400  0.92700  1.0000
  Tm  Tm1       1.0  0.80800  0.38300  0.09290  1.0000
  Tm  Tm2       1.0  0.80800  0.38300  0.40700  1.0000
  Tm  Tm3       1.0  0.19200  0.61700  0.59300  1.0000
  Tm  Tm4       1.0  0.19200  0.61700  0.90700  1.0000
