data_image0
_chemical_formula_structural       Cu6Ho4K2Se10
_chemical_formula_sum              "Cu6 Ho4 K2 Se10"
_cell_length_a       4.09951
_cell_length_b       7.48901
_cell_length_c       16.8931
_cell_angle_alpha    90
_cell_angle_beta     90
_cell_angle_gamma    74.1153

_space_group_name_H-M_alt    "P 1"
_space_group_IT_number       1

loop_
  _space_group_symop_operation_xyz
  'x, y, z'

loop_
  _atom_site_type_symbol
  _atom_site_label
  _atom_site_symmetry_multiplicity
  _atom_site_fract_x
  _atom_site_fract_y
  _atom_site_fract_z
  _atom_site_occupancy
  Cu  Cu1       1.0  0.58400  0.83300  0.03090  1.0000
  Cu  Cu2       1.0  0.34100  0.31900  0.25000  1.0000
  Cu  Cu3       1.0  0.58400  0.83300  0.46900  1.0000
  Cu  Cu4       1.0  0.41600  0.16700  0.53100  1.0000
  Cu  Cu5       1.0  0.65900  0.68100  0.75000  1.0000
  Cu  Cu6       1.0  0.41600  0.16700  0.96900  1.0000
  Ho  Ho1       1.0  0.80800  0.38400  0.09320  1.0000
  Ho  Ho2       1.0  0.80800  0.38400  0.40700  1.0000
  Ho  Ho3       1.0  0.19200  0.61600  0.59300  1.0000
  Ho  Ho4       1.0  0.19200  0.61600  0.90700  1.0000
  K   K1        1.0  0.06250  0.87500  0.25000  1.0000
  K   K2        1.0  0.93800  0.12500  0.75000  1.0000
  Se  Se1       1.0  0.16600  0.66700  0.07190  1.0000
  Se  Se2       1.0  0.44100  0.11800  0.11900  1.0000
  Se  Se3       1.0  0.74900  0.50200  0.25000  1.0000
  Se  Se4       1.0  0.44100  0.11800  0.38100  1.0000
  Se  Se5       1.0  0.16600  0.66700  0.42800  1.0000
  Se  Se6       1.0  0.83400  0.33300  0.57200  1.0000
  Se  Se7       1.0  0.55900  0.88200  0.61900  1.0000
  Se  Se8       1.0  0.25100  0.49800  0.75000  1.0000
  Se  Se9       1.0  0.55900  0.88200  0.88100  1.0000
  Se  Se10      1.0  0.83400  0.33300  0.92800  1.0000
