data_image0
_chemical_formula_structural       Ag2Fe2O14V4
_chemical_formula_sum              "Ag2 Fe2 O14 V4"
_cell_length_a       5.60005
_cell_length_b       7.42786
_cell_length_c       7.67042
_cell_angle_alpha    65.057
_cell_angle_beta     89.544
_cell_angle_gamma    78.7695

_space_group_name_H-M_alt    "P 1"
_space_group_IT_number       1

loop_
  _space_group_symop_operation_xyz
  'x, y, z'

loop_
  _atom_site_type_symbol
  _atom_site_label
  _atom_site_symmetry_multiplicity
  _atom_site_fract_x
  _atom_site_fract_y
  _atom_site_fract_z
  _atom_site_occupancy
  Ag  Ag1       1.0  0.82800  0.66300  0.03820  1.0000
  Ag  Ag2       1.0  0.17200  0.33700  0.96200  1.0000
  Fe  Fe1       1.0  0.17600  0.32000  0.47600  1.0000
  Fe  Fe2       1.0  0.82400  0.68000  0.52400  1.0000
  O   O1        1.0  0.67500  0.25300  0.00972  1.0000
  O   O2        1.0  0.20800  0.01960  0.16100  1.0000
  O   O3        1.0  0.92600  0.34900  0.27200  1.0000
  O   O4        1.0  0.42900  0.33200  0.29700  1.0000
  O   O5        1.0  0.59400  0.69600  0.32600  1.0000
  O   O6        1.0  0.10000  0.63500  0.36300  1.0000
  O   O7        1.0  0.78100  0.97300  0.41300  1.0000
  O   O8        1.0  0.21900  0.02710  0.58700  1.0000
  O   O9        1.0  0.90000  0.36500  0.63700  1.0000
  O   O10       1.0  0.40600  0.30400  0.67400  1.0000
  O   O11       1.0  0.57100  0.66800  0.70300  1.0000
  O   O12       1.0  0.07350  0.65100  0.72800  1.0000
  O   O13       1.0  0.79200  0.98000  0.83900  1.0000
  O   O14       1.0  0.32500  0.74700  0.99000  1.0000
  V   V1        1.0  0.30600  0.77600  0.21300  1.0000
  V   V2        1.0  0.70500  0.21800  0.25500  1.0000
  V   V3        1.0  0.29500  0.78200  0.74500  1.0000
  V   V4        1.0  0.69400  0.22400  0.78700  1.0000
