data_image0
_chemical_formula_structural       Ni4O14Sb4
_chemical_formula_sum              "Ni4 O14 Sb4"
_cell_length_a       7.10312
_cell_length_b       7.10312
_cell_length_c       7.10312
_cell_angle_alpha    120
_cell_angle_beta     90
_cell_angle_gamma    120

_space_group_name_H-M_alt    "P 1"
_space_group_IT_number       1

loop_
  _space_group_symop_operation_xyz
  'x, y, z'

loop_
  _atom_site_type_symbol
  _atom_site_label
  _atom_site_symmetry_multiplicity
  _atom_site_fract_x
  _atom_site_fract_y
  _atom_site_fract_z
  _atom_site_occupancy
  Ni  Ni1       1.0  0.00000  0.50000  0.00000  1.0000
  Ni  Ni2       1.0  0.00000  0.50000  0.50000  1.0000
  Ni  Ni3       1.0  0.00000  0.00000  0.50000  1.0000
  Ni  Ni4       1.0  0.50000  0.00000  0.50000  1.0000
  O   O1        1.0  0.41700  0.75000  0.08270  1.0000
  O   O2        1.0  0.83300  0.75000  0.08270  1.0000
  O   O3        1.0  0.83300  0.16500  0.08270  1.0000
  O   O4        1.0  0.58300  0.66500  0.33300  1.0000
  O   O5        1.0  0.16700  0.25000  0.33300  1.0000
  O   O6        1.0  0.58300  0.25000  0.33300  1.0000
  O   O7        1.0  0.12500  0.75000  0.37500  1.0000
  O   O8        1.0  0.87500  0.25000  0.62500  1.0000
  O   O9        1.0  0.41700  0.33500  0.66700  1.0000
  O   O10       1.0  0.41700  0.75000  0.66700  1.0000
  O   O11       1.0  0.83300  0.75000  0.66700  1.0000
  O   O12       1.0  0.16700  0.83500  0.91700  1.0000
  O   O13       1.0  0.16700  0.25000  0.91700  1.0000
  O   O14       1.0  0.58300  0.25000  0.91700  1.0000
  Sb  Sb1       1.0  0.00000  0.00000  0.00000  1.0000
  Sb  Sb2       1.0  0.50000  0.00000  0.00000  1.0000
  Sb  Sb3       1.0  0.50000  0.50000  0.00000  1.0000
  Sb  Sb4       1.0  0.50000  0.50000  0.50000  1.0000
