data_image0
_chemical_formula_structural       Cd2O12Pt2Sr6
_chemical_formula_sum              "Cd2 O12 Pt2 Sr6"
_cell_length_a       6.78757
_cell_length_b       6.78757
_cell_length_c       6.78757
_cell_angle_alpha    90.1534
_cell_angle_beta     90.1534
_cell_angle_gamma    90.1534

_space_group_name_H-M_alt    "P 1"
_space_group_IT_number       1

loop_
  _space_group_symop_operation_xyz
  'x, y, z'

loop_
  _atom_site_type_symbol
  _atom_site_label
  _atom_site_symmetry_multiplicity
  _atom_site_fract_x
  _atom_site_fract_y
  _atom_site_fract_z
  _atom_site_occupancy
  Cd  Cd1       1.0  0.25000  0.25000  0.25000  1.0000
  Cd  Cd2       1.0  0.75000  0.75000  0.75000  1.0000
  O   O1        1.0  0.71300  0.91700  0.05210  1.0000
  O   O2        1.0  0.94800  0.28700  0.08280  1.0000
  O   O3        1.0  0.55200  0.41700  0.21300  1.0000
  O   O4        1.0  0.08280  0.94800  0.28700  1.0000
  O   O5        1.0  0.21300  0.55200  0.41700  1.0000
  O   O6        1.0  0.58300  0.78700  0.44800  1.0000
  O   O7        1.0  0.41700  0.21300  0.55200  1.0000
  O   O8        1.0  0.78700  0.44800  0.58300  1.0000
  O   O9        1.0  0.91700  0.05210  0.71300  1.0000
  O   O10       1.0  0.44800  0.58300  0.78700  1.0000
  O   O11       1.0  0.05210  0.71300  0.91700  1.0000
  O   O12       1.0  0.28700  0.08280  0.94800  1.0000
  Pt  Pt1       1.0  0.00000  0.00000  0.00000  1.0000
  Pt  Pt2       1.0  0.50000  0.50000  0.50000  1.0000
  Sr  Sr1       1.0  0.38600  0.75000  0.11400  1.0000
  Sr  Sr2       1.0  0.88600  0.61400  0.25000  1.0000
  Sr  Sr3       1.0  0.75000  0.11400  0.38600  1.0000
  Sr  Sr4       1.0  0.25000  0.88600  0.61400  1.0000
  Sr  Sr5       1.0  0.11400  0.38600  0.75000  1.0000
  Sr  Sr6       1.0  0.61400  0.25000  0.88600  1.0000
