data_image0
_chemical_formula_structural       Dy6O14Re2
_chemical_formula_sum              "Dy6 O14 Re2"
_cell_length_a       6.397
_cell_length_b       6.397
_cell_length_c       7.4061
_cell_angle_alpha    90
_cell_angle_beta     90
_cell_angle_gamma    70.6178

_space_group_name_H-M_alt    "P 1"
_space_group_IT_number       1

loop_
  _space_group_symop_operation_xyz
  'x, y, z'

loop_
  _atom_site_type_symbol
  _atom_site_label
  _atom_site_symmetry_multiplicity
  _atom_site_fract_x
  _atom_site_fract_y
  _atom_site_fract_z
  _atom_site_occupancy
  Dy  Dy1       1.0  0.53400  0.00000  0.00081  1.0000
  Dy  Dy2       1.0  0.49600  0.50400  0.25000  1.0000
  Dy  Dy3       1.0  0.00000  0.46600  0.49900  1.0000
  Dy  Dy4       1.0  0.46600  0.00000  0.50100  1.0000
  Dy  Dy5       1.0  0.50400  0.49600  0.75000  1.0000
  Dy  Dy6       1.0  0.00000  0.53400  0.99900  1.0000
  O   O1        1.0  0.36900  0.36900  0.00000  1.0000
  O   O2        1.0  0.63600  0.63600  0.00000  1.0000
  O   O3        1.0  0.93000  0.93000  0.00000  1.0000
  O   O4        1.0  0.92800  0.32100  0.22000  1.0000
  O   O5        1.0  0.32400  0.92300  0.22100  1.0000
  O   O6        1.0  0.07740  0.67600  0.27900  1.0000
  O   O7        1.0  0.67900  0.07250  0.28000  1.0000
  O   O8        1.0  0.07020  0.07020  0.50000  1.0000
  O   O9        1.0  0.36400  0.36400  0.50000  1.0000
  O   O10       1.0  0.63100  0.63100  0.50000  1.0000
  O   O11       1.0  0.07250  0.67900  0.72000  1.0000
  O   O12       1.0  0.67600  0.07740  0.72100  1.0000
  O   O13       1.0  0.92300  0.32400  0.77900  1.0000
  O   O14       1.0  0.32100  0.92800  0.78000  1.0000
  Re  Re1       1.0  0.00020  1.00000  0.25000  1.0000
  Re  Re2       1.0  0.00000  0.00019  0.75000  1.0000
