data_image0
_chemical_formula_structural       In8Lu10Pd4
_chemical_formula_sum              "In8 Lu10 Pd4"
_cell_length_a       17.9387
_cell_length_b       7.95939
_cell_length_c       3.57666
_cell_angle_alpha    90
_cell_angle_beta     90
_cell_angle_gamma    90

_space_group_name_H-M_alt    "P 1"
_space_group_IT_number       1

loop_
  _space_group_symop_operation_xyz
  'x, y, z'

loop_
  _atom_site_type_symbol
  _atom_site_label
  _atom_site_symmetry_multiplicity
  _atom_site_fract_x
  _atom_site_fract_y
  _atom_site_fract_z
  _atom_site_occupancy
  In  In1       1.0  0.85200  0.08480  0.50000  1.0000
  In  In2       1.0  0.56800  0.21500  0.50000  1.0000
  In  In3       1.0  0.06810  0.28500  0.50000  1.0000
  In  In4       1.0  0.35200  0.41500  0.50000  1.0000
  In  In5       1.0  0.64800  0.58500  0.50000  1.0000
  In  In6       1.0  0.93200  0.71500  0.50000  1.0000
  In  In7       1.0  0.43200  0.78500  0.50000  1.0000
  In  In8       1.0  0.14800  0.91500  0.50000  1.0000
  Lu  Lu1       1.0  0.00000  0.00000  0.00000  1.0000
  Lu  Lu2       1.0  0.41800  0.11300  0.00000  1.0000
  Lu  Lu3       1.0  0.22000  0.23600  0.00000  1.0000
  Lu  Lu4       1.0  0.72000  0.26400  0.00000  1.0000
  Lu  Lu5       1.0  0.91800  0.38700  0.00000  1.0000
  Lu  Lu6       1.0  0.50000  0.50000  0.00000  1.0000
  Lu  Lu7       1.0  0.08230  0.61300  0.00000  1.0000
  Lu  Lu8       1.0  0.28000  0.73600  0.00000  1.0000
  Lu  Lu9       1.0  0.78000  0.76400  0.00000  1.0000
  Lu  Lu10      1.0  0.58200  0.88700  0.00000  1.0000
  Pd  Pd1       1.0  0.30500  0.02170  0.50000  1.0000
  Pd  Pd2       1.0  0.80500  0.47800  0.50000  1.0000
  Pd  Pd3       1.0  0.19500  0.52200  0.50000  1.0000
  Pd  Pd4       1.0  0.69500  0.97800  0.50000  1.0000
