data_image0
_chemical_formula_structural       O12Rh2Sr8
_chemical_formula_sum              "O12 Rh2 Sr8"
_cell_length_a       6.85454
_cell_length_b       6.85454
_cell_length_c       6.85454
_cell_angle_alpha    90.1002
_cell_angle_beta     90.1002
_cell_angle_gamma    90.1002

_space_group_name_H-M_alt    "P 1"
_space_group_IT_number       1

loop_
  _space_group_symop_operation_xyz
  'x, y, z'

loop_
  _atom_site_type_symbol
  _atom_site_label
  _atom_site_symmetry_multiplicity
  _atom_site_fract_x
  _atom_site_fract_y
  _atom_site_fract_z
  _atom_site_occupancy
  O   O1        1.0  0.92700  0.71400  0.05910  1.0000
  O   O2        1.0  0.28600  0.94100  0.07340  1.0000
  O   O3        1.0  0.42700  0.55900  0.21400  1.0000
  O   O4        1.0  0.94100  0.07340  0.28600  1.0000
  O   O5        1.0  0.55900  0.21400  0.42700  1.0000
  O   O6        1.0  0.78600  0.57300  0.44100  1.0000
  O   O7        1.0  0.21400  0.42700  0.55900  1.0000
  O   O8        1.0  0.44100  0.78600  0.57300  1.0000
  O   O9        1.0  0.05910  0.92700  0.71400  1.0000
  O   O10       1.0  0.57300  0.44100  0.78600  1.0000
  O   O11       1.0  0.71400  0.05910  0.92700  1.0000
  O   O12       1.0  0.07340  0.28600  0.94100  1.0000
  Rh  Rh1       1.0  0.00000  0.00000  0.00000  1.0000
  Rh  Rh2       1.0  0.50000  0.50000  0.50000  1.0000
  Sr  Sr1       1.0  0.75000  0.38400  0.11600  1.0000
  Sr  Sr2       1.0  0.25000  0.25000  0.25000  1.0000
  Sr  Sr3       1.0  0.61600  0.88400  0.25000  1.0000
  Sr  Sr4       1.0  0.11600  0.75000  0.38400  1.0000
  Sr  Sr5       1.0  0.88400  0.25000  0.61600  1.0000
  Sr  Sr6       1.0  0.38400  0.11600  0.75000  1.0000
  Sr  Sr7       1.0  0.75000  0.75000  0.75000  1.0000
  Sr  Sr8       1.0  0.25000  0.61600  0.88400  1.0000
