data_image0
_chemical_formula_structural       Ni2O12Pb2Sr6
_chemical_formula_sum              "Ni2 O12 Pb2 Sr6"
_cell_length_a       6.74864
_cell_length_b       6.74864
_cell_length_c       6.74864
_cell_angle_alpha    91.6986
_cell_angle_beta     91.6986
_cell_angle_gamma    91.6986

_space_group_name_H-M_alt    "P 1"
_space_group_IT_number       1

loop_
  _space_group_symop_operation_xyz
  'x, y, z'

loop_
  _atom_site_type_symbol
  _atom_site_label
  _atom_site_symmetry_multiplicity
  _atom_site_fract_x
  _atom_site_fract_y
  _atom_site_fract_z
  _atom_site_occupancy
  Ni  Ni1       1.0  0.00000  0.00000  0.00000  1.0000
  Ni  Ni2       1.0  0.50000  0.50000  0.50000  1.0000
  O   O1        1.0  0.70700  0.90600  0.04210  1.0000
  O   O2        1.0  0.95800  0.29300  0.09430  1.0000
  O   O3        1.0  0.54200  0.40600  0.20700  1.0000
  O   O4        1.0  0.09430  0.95800  0.29300  1.0000
  O   O5        1.0  0.20700  0.54200  0.40600  1.0000
  O   O6        1.0  0.59400  0.79300  0.45800  1.0000
  O   O7        1.0  0.40600  0.20700  0.54200  1.0000
  O   O8        1.0  0.79300  0.45800  0.59400  1.0000
  O   O9        1.0  0.90600  0.04210  0.70700  1.0000
  O   O10       1.0  0.45800  0.59400  0.79300  1.0000
  O   O11       1.0  0.04210  0.70700  0.90600  1.0000
  O   O12       1.0  0.29300  0.09430  0.95800  1.0000
  Pb  Pb1       1.0  0.25000  0.25000  0.25000  1.0000
  Pb  Pb2       1.0  0.75000  0.75000  0.75000  1.0000
  Sr  Sr1       1.0  0.37800  0.75000  0.12200  1.0000
  Sr  Sr2       1.0  0.87800  0.62200  0.25000  1.0000
  Sr  Sr3       1.0  0.75000  0.12200  0.37800  1.0000
  Sr  Sr4       1.0  0.25000  0.87800  0.62200  1.0000
  Sr  Sr5       1.0  0.12200  0.37800  0.75000  1.0000
  Sr  Sr6       1.0  0.62200  0.25000  0.87800  1.0000
