data_image0
_chemical_formula_structural       Al4Gd6Ni12
_chemical_formula_sum              "Al4 Gd6 Ni12"
_cell_length_a       7.75046
_cell_length_b       7.75046
_cell_length_c       7.75046
_cell_angle_alpha    109.471
_cell_angle_beta     109.471
_cell_angle_gamma    109.471

_space_group_name_H-M_alt    "P 1"
_space_group_IT_number       1

loop_
  _space_group_symop_operation_xyz
  'x, y, z'

loop_
  _atom_site_type_symbol
  _atom_site_label
  _atom_site_symmetry_multiplicity
  _atom_site_fract_x
  _atom_site_fract_y
  _atom_site_fract_z
  _atom_site_occupancy
  Al  Al1       1.0  0.50000  0.00000  0.00000  1.0000
  Al  Al2       1.0  0.00000  0.50000  0.00000  1.0000
  Al  Al3       1.0  0.00000  0.00000  0.50000  1.0000
  Al  Al4       1.0  0.50000  0.50000  0.50000  1.0000
  Gd  Gd1       1.0  0.29300  0.29300  0.00000  1.0000
  Gd  Gd2       1.0  0.70700  0.70700  0.00000  1.0000
  Gd  Gd3       1.0  0.29300  0.00000  0.29300  1.0000
  Gd  Gd4       1.0  0.00000  0.29300  0.29300  1.0000
  Gd  Gd5       1.0  0.70700  0.00000  0.70700  1.0000
  Gd  Gd6       1.0  0.00000  0.70700  0.70700  1.0000
  Ni  Ni1       1.0  0.66600  0.33400  0.00000  1.0000
  Ni  Ni2       1.0  0.33400  0.66600  0.00000  1.0000
  Ni  Ni3       1.0  0.66600  0.66600  0.33100  1.0000
  Ni  Ni4       1.0  0.66600  0.00000  0.33400  1.0000
  Ni  Ni5       1.0  0.66900  0.33400  0.33400  1.0000
  Ni  Ni6       1.0  0.00000  0.66600  0.33400  1.0000
  Ni  Ni7       1.0  0.33400  0.66900  0.33400  1.0000
  Ni  Ni8       1.0  0.33400  0.00000  0.66600  1.0000
  Ni  Ni9       1.0  0.66600  0.33100  0.66600  1.0000
  Ni  Ni10      1.0  0.00000  0.33400  0.66600  1.0000
  Ni  Ni11      1.0  0.33100  0.66600  0.66600  1.0000
  Ni  Ni12      1.0  0.33400  0.33400  0.66900  1.0000
