data_image0
_chemical_formula_structural       O8Pr2U4
_chemical_formula_sum              "O8 Pr2 U4"
_cell_length_a       7.13748
_cell_length_b       7.13748
_cell_length_c       7.13748
_cell_angle_alpha    119.993
_cell_angle_beta     90.0115
_cell_angle_gamma    119.993

_space_group_name_H-M_alt    "P 1"
_space_group_IT_number       1

loop_
  _space_group_symop_operation_xyz
  'x, y, z'

loop_
  _atom_site_type_symbol
  _atom_site_label
  _atom_site_symmetry_multiplicity
  _atom_site_fract_x
  _atom_site_fract_y
  _atom_site_fract_z
  _atom_site_occupancy
  O   O1        1.0  0.61900  0.23800  0.38100  1.0000
  O   O2        1.0  0.14200  0.76200  0.38100  1.0000
  O   O3        1.0  0.61900  0.76200  0.38100  1.0000
  O   O4        1.0  0.13100  0.26200  0.39200  1.0000
  O   O5        1.0  0.61900  0.23800  0.85800  1.0000
  O   O6        1.0  0.13100  0.73800  0.86900  1.0000
  O   O7        1.0  0.60800  0.73800  0.86900  1.0000
  O   O8        1.0  0.13100  0.26200  0.86900  1.0000
  Pr  Pr1       1.0  0.00000  0.00000  0.00000  1.0000
  Pr  Pr2       1.0  0.75000  0.50000  0.25000  1.0000
  U   U1        1.0  0.37500  0.75000  0.12500  1.0000
  U   U2        1.0  0.87500  0.25000  0.62500  1.0000
  U   U3        1.0  0.37500  0.75000  0.62500  1.0000
  U   U4        1.0  0.37500  0.25000  0.62500  1.0000
