data_image0
_chemical_formula_structural       Ba2CuO6Tl2
_chemical_formula_sum              "Ba2 Cu1 O6 Tl2"
_cell_length_a       12.1034
_cell_length_b       3.844
_cell_length_c       3.844
_cell_angle_alpha    90
_cell_angle_beta     99.1371
_cell_angle_gamma    99.1371

_space_group_name_H-M_alt    "P 1"
_space_group_IT_number       1

loop_
  _space_group_symop_operation_xyz
  'x, y, z'

loop_
  _atom_site_type_symbol
  _atom_site_label
  _atom_site_symmetry_multiplicity
  _atom_site_fract_x
  _atom_site_fract_y
  _atom_site_fract_z
  _atom_site_occupancy
  Ba  Ba1       1.0  0.16400  0.08190  0.08190  1.0000
  Ba  Ba2       1.0  0.83600  0.91800  0.91800  1.0000
  Cu  Cu1       1.0  0.00000  0.50000  0.50000  1.0000
  O   O1        1.0  0.00000  0.50000  0.00000  1.0000
  O   O2        1.0  0.42100  0.21000  0.21000  1.0000
  O   O3        1.0  0.76800  0.38400  0.38400  1.0000
  O   O4        1.0  0.00000  0.00000  0.50000  1.0000
  O   O5        1.0  0.23200  0.61600  0.61600  1.0000
  O   O6        1.0  0.57900  0.79000  0.79000  1.0000
  Tl  Tl1       1.0  0.59700  0.29800  0.29800  1.0000
  Tl  Tl2       1.0  0.40300  0.70200  0.70200  1.0000
