data_image0
_chemical_formula_structural       Ag4In4Se12Si2
_chemical_formula_sum              "Ag4 In4 Se12 Si2"
_cell_length_a       7.4518
_cell_length_b       7.4518
_cell_length_c       12.7839
_cell_angle_alpha    106.632
_cell_angle_beta     73.3679
_cell_angle_gamma    119.127

_space_group_name_H-M_alt    "P 1"
_space_group_IT_number       1

loop_
  _space_group_symop_operation_xyz
  'x, y, z'

loop_
  _atom_site_type_symbol
  _atom_site_label
  _atom_site_symmetry_multiplicity
  _atom_site_fract_x
  _atom_site_fract_y
  _atom_site_fract_z
  _atom_site_occupancy
  Ag  Ag1       1.0  0.00961  0.80600  0.25300  1.0000
  Ag  Ag2       1.0  0.19600  0.39600  0.41600  1.0000
  Ag  Ag3       1.0  0.19400  0.99000  0.75300  1.0000
  Ag  Ag4       1.0  0.60400  0.80400  0.91600  1.0000
  In  In1       1.0  0.49000  0.32100  0.06080  1.0000
  In  In2       1.0  0.70600  0.17500  0.25900  1.0000
  In  In3       1.0  0.67900  0.51000  0.56100  1.0000
  In  In4       1.0  0.82500  0.29400  0.75900  1.0000
  Se  Se1       1.0  0.89100  0.60300  0.04800  1.0000
  Se  Se2       1.0  0.89900  0.08510  0.05550  1.0000
  Se  Se3       1.0  0.35400  0.60200  0.08530  1.0000
  Se  Se4       1.0  0.35200  0.17000  0.24700  1.0000
  Se  Se5       1.0  0.63900  0.82900  0.31400  1.0000
  Se  Se6       1.0  0.95000  0.52700  0.37300  1.0000
  Se  Se7       1.0  0.39700  0.10900  0.54800  1.0000
  Se  Se8       1.0  0.91500  0.10100  0.55600  1.0000
  Se  Se9       1.0  0.39800  0.64600  0.58500  1.0000
  Se  Se10      1.0  0.83000  0.64800  0.74700  1.0000
  Se  Se11      1.0  0.17100  0.36100  0.81400  1.0000
  Se  Se12      1.0  0.47300  0.05040  0.87300  1.0000
  Si  Si1       1.0  0.06410  0.40200  0.00184  1.0000
  Si  Si2       1.0  0.59800  0.93600  0.50200  1.0000
