data_image0
_chemical_formula_structural       Cl16Cu2Ga4
_chemical_formula_sum              "Cl16 Cu2 Ga4"
_cell_length_a       6.54688
_cell_length_b       7.44436
_cell_length_c       12.3714
_cell_angle_alpha    90
_cell_angle_beta     93.9392
_cell_angle_gamma    90

_space_group_name_H-M_alt    "P 1"
_space_group_IT_number       1

loop_
  _space_group_symop_operation_xyz
  'x, y, z'

loop_
  _atom_site_type_symbol
  _atom_site_label
  _atom_site_symmetry_multiplicity
  _atom_site_fract_x
  _atom_site_fract_y
  _atom_site_fract_z
  _atom_site_occupancy
  Cl  Cl1       1.0  0.88000  0.23900  0.09670  1.0000
  Cl  Cl2       1.0  0.30200  0.00893  0.10900  1.0000
  Cl  Cl3       1.0  0.36300  0.49300  0.13700  1.0000
  Cl  Cl4       1.0  0.83200  0.72700  0.14200  1.0000
  Cl  Cl5       1.0  0.16800  0.22700  0.35800  1.0000
  Cl  Cl6       1.0  0.63700  0.99300  0.36300  1.0000
  Cl  Cl7       1.0  0.69800  0.50900  0.39100  1.0000
  Cl  Cl8       1.0  0.12000  0.73900  0.40300  1.0000
  Cl  Cl9       1.0  0.88000  0.26100  0.59700  1.0000
  Cl  Cl10      1.0  0.30200  0.49100  0.60900  1.0000
  Cl  Cl11      1.0  0.36300  0.00690  0.63700  1.0000
  Cl  Cl12      1.0  0.83200  0.77300  0.64200  1.0000
  Cl  Cl13      1.0  0.16800  0.27300  0.85800  1.0000
  Cl  Cl14      1.0  0.63700  0.50700  0.86300  1.0000
  Cl  Cl15      1.0  0.69800  0.99100  0.89100  1.0000
  Cl  Cl16      1.0  0.12000  0.76100  0.90300  1.0000
  Cu  Cu1       1.0  0.00000  0.00000  0.00000  1.0000
  Cu  Cu2       1.0  0.00000  0.50000  0.50000  1.0000
  Ga  Ga1       1.0  0.19400  0.26600  0.18600  1.0000
  Ga  Ga2       1.0  0.80600  0.76600  0.31400  1.0000
  Ga  Ga3       1.0  0.19400  0.23400  0.68600  1.0000
  Ga  Ga4       1.0  0.80600  0.73400  0.81400  1.0000
