data_image0
_chemical_formula_structural       F12Hg8O2
_chemical_formula_sum              "F12 Hg8 O2"
_cell_length_a       7.73577
_cell_length_b       7.73576
_cell_length_c       5.983
_cell_angle_alpha    90
_cell_angle_beta     90
_cell_angle_gamma    120

_space_group_name_H-M_alt    "P 1"
_space_group_IT_number       1

loop_
  _space_group_symop_operation_xyz
  'x, y, z'

loop_
  _atom_site_type_symbol
  _atom_site_label
  _atom_site_symmetry_multiplicity
  _atom_site_fract_x
  _atom_site_fract_y
  _atom_site_fract_z
  _atom_site_occupancy
  F   F1        1.0  0.46400  0.92900  0.22500  1.0000
  F   F2        1.0  0.07140  0.53600  0.22500  1.0000
  F   F3        1.0  0.46400  0.53600  0.22500  1.0000
  F   F4        1.0  0.25300  0.12700  0.39600  1.0000
  F   F5        1.0  0.87300  0.12700  0.39600  1.0000
  F   F6        1.0  0.87300  0.74700  0.39600  1.0000
  F   F7        1.0  0.53600  0.07140  0.72500  1.0000
  F   F8        1.0  0.53600  0.46400  0.72500  1.0000
  F   F9        1.0  0.92900  0.46400  0.72500  1.0000
  F   F10       1.0  0.12700  0.87300  0.89600  1.0000
  F   F11       1.0  0.74700  0.87300  0.89600  1.0000
  F   F12       1.0  0.12700  0.25300  0.89600  1.0000
  Hg  Hg1       1.0  0.36300  0.18200  0.00148  1.0000
  Hg  Hg2       1.0  0.81800  0.18200  0.00148  1.0000
  Hg  Hg3       1.0  0.81800  0.63700  0.00148  1.0000
  Hg  Hg4       1.0  0.66700  0.33300  0.47800  1.0000
  Hg  Hg5       1.0  0.18200  0.81800  0.50100  1.0000
  Hg  Hg6       1.0  0.63700  0.81800  0.50100  1.0000
  Hg  Hg7       1.0  0.18200  0.36300  0.50100  1.0000
  Hg  Hg8       1.0  0.33300  0.66700  0.97800  1.0000
  O   O1        1.0  0.66700  0.33300  0.12500  1.0000
  O   O2        1.0  0.33300  0.66700  0.62500  1.0000
