data_image0
_chemical_formula_structural       Cu6F14Na2
_chemical_formula_sum              "Cu6 F14 Na2"
_cell_length_a       6.90991
_cell_length_b       6.99169
_cell_length_c       6.99169
_cell_angle_alpha    61.5677
_cell_angle_beta     116.986
_cell_angle_gamma    116.986

_space_group_name_H-M_alt    "P 1"
_space_group_IT_number       1

loop_
  _space_group_symop_operation_xyz
  'x, y, z'

loop_
  _atom_site_type_symbol
  _atom_site_label
  _atom_site_symmetry_multiplicity
  _atom_site_fract_x
  _atom_site_fract_y
  _atom_site_fract_z
  _atom_site_occupancy
  Cu  Cu1       1.0  0.00000  0.00000  0.00000  1.0000
  Cu  Cu2       1.0  0.50000  0.00000  0.00000  1.0000
  Cu  Cu3       1.0  0.50000  0.50000  0.00000  1.0000
  Cu  Cu4       1.0  0.00000  0.50000  0.00000  1.0000
  Cu  Cu5       1.0  0.50000  0.00000  0.50000  1.0000
  Cu  Cu6       1.0  0.00000  0.00000  0.50000  1.0000
  F   F1        1.0  0.82400  0.63000  0.02880  1.0000
  F   F2        1.0  0.25000  0.88800  0.11200  1.0000
  F   F3        1.0  0.50500  0.69800  0.11800  1.0000
  F   F4        1.0  0.99500  0.88200  0.30200  1.0000
  F   F5        1.0  0.10500  0.36800  0.31900  1.0000
  F   F6        1.0  0.60500  0.31900  0.36800  1.0000
  F   F7        1.0  0.67600  0.97100  0.37000  1.0000
  F   F8        1.0  0.32400  0.02880  0.63000  1.0000
  F   F9        1.0  0.39500  0.68100  0.63200  1.0000
  F   F10       1.0  0.89500  0.63200  0.68100  1.0000
  F   F11       1.0  0.00498  0.11800  0.69800  1.0000
  F   F12       1.0  0.49500  0.30200  0.88200  1.0000
  F   F13       1.0  0.75000  0.11200  0.88800  1.0000
  F   F14       1.0  0.17600  0.37000  0.97100  1.0000
  Na  Na1       1.0  0.50000  0.50000  0.50000  1.0000
  Na  Na2       1.0  0.00000  0.50000  0.50000  1.0000
