data_image0
_chemical_formula_structural       O14Sb2Y6
_chemical_formula_sum              "O14 Sb2 Y6"
_cell_length_a       6.42846
_cell_length_b       6.42846
_cell_length_c       7.47425
_cell_angle_alpha    90
_cell_angle_beta     90
_cell_angle_gamma    70.4801

_space_group_name_H-M_alt    "P 1"
_space_group_IT_number       1

loop_
  _space_group_symop_operation_xyz
  'x, y, z'

loop_
  _atom_site_type_symbol
  _atom_site_label
  _atom_site_symmetry_multiplicity
  _atom_site_fract_x
  _atom_site_fract_y
  _atom_site_fract_z
  _atom_site_occupancy
  O   O1        1.0  0.67700  0.07310  0.03020  1.0000
  O   O2        1.0  0.07310  0.67700  0.03020  1.0000
  O   O3        1.0  0.06970  0.06970  0.25000  1.0000
  O   O4        1.0  0.36300  0.36300  0.25000  1.0000
  O   O5        1.0  0.63000  0.63000  0.25000  1.0000
  O   O6        1.0  0.67700  0.07310  0.47000  1.0000
  O   O7        1.0  0.07310  0.67700  0.47000  1.0000
  O   O8        1.0  0.92700  0.32300  0.53000  1.0000
  O   O9        1.0  0.32300  0.92700  0.53000  1.0000
  O   O10       1.0  0.37000  0.37000  0.75000  1.0000
  O   O11       1.0  0.63700  0.63700  0.75000  1.0000
  O   O12       1.0  0.93000  0.93000  0.75000  1.0000
  O   O13       1.0  0.92700  0.32300  0.97000  1.0000
  O   O14       1.0  0.32300  0.92700  0.97000  1.0000
  Sb  Sb1       1.0  0.00000  0.00000  0.00000  1.0000
  Sb  Sb2       1.0  0.00000  0.00000  0.50000  1.0000
  Y   Y1        1.0  0.50000  0.50000  0.00000  1.0000
  Y   Y2        1.0  0.00000  0.46800  0.25000  1.0000
  Y   Y3        1.0  0.46800  0.00000  0.25000  1.0000
  Y   Y4        1.0  0.50000  0.50000  0.50000  1.0000
  Y   Y5        1.0  0.53200  0.00047  0.75000  1.0000
  Y   Y6        1.0  0.00047  0.53200  0.75000  1.0000
