data_image0
_chemical_formula_structural       In8Lu10Ni4
_chemical_formula_sum              "In8 Lu10 Ni4"
_cell_length_a       17.6221
_cell_length_b       7.86151
_cell_length_c       3.53715
_cell_angle_alpha    90
_cell_angle_beta     90
_cell_angle_gamma    90

_space_group_name_H-M_alt    "P 1"
_space_group_IT_number       1

loop_
  _space_group_symop_operation_xyz
  'x, y, z'

loop_
  _atom_site_type_symbol
  _atom_site_label
  _atom_site_symmetry_multiplicity
  _atom_site_fract_x
  _atom_site_fract_y
  _atom_site_fract_z
  _atom_site_occupancy
  In  In1       1.0  0.84800  0.07510  0.50000  1.0000
  In  In2       1.0  0.56800  0.20600  0.50000  1.0000
  In  In3       1.0  0.06780  0.29400  0.50000  1.0000
  In  In4       1.0  0.34800  0.42500  0.50000  1.0000
  In  In5       1.0  0.65200  0.57500  0.50000  1.0000
  In  In6       1.0  0.93200  0.70600  0.50000  1.0000
  In  In7       1.0  0.43200  0.79400  0.50000  1.0000
  In  In8       1.0  0.15200  0.92500  0.50000  1.0000
  Lu  Lu1       1.0  0.00000  0.00000  0.00000  1.0000
  Lu  Lu2       1.0  0.41200  0.11600  0.00000  1.0000
  Lu  Lu3       1.0  0.22100  0.24500  0.00000  1.0000
  Lu  Lu4       1.0  0.72100  0.25500  0.00000  1.0000
  Lu  Lu5       1.0  0.91200  0.38400  0.00000  1.0000
  Lu  Lu6       1.0  0.50000  0.50000  0.00000  1.0000
  Lu  Lu7       1.0  0.08820  0.61600  0.00000  1.0000
  Lu  Lu8       1.0  0.27900  0.74500  0.00000  1.0000
  Lu  Lu9       1.0  0.77900  0.75500  0.00000  1.0000
  Lu  Lu10      1.0  0.58800  0.88400  0.00000  1.0000
  Ni  Ni1       1.0  0.30400  0.02490  0.50000  1.0000
  Ni  Ni2       1.0  0.80400  0.47500  0.50000  1.0000
  Ni  Ni3       1.0  0.19600  0.52500  0.50000  1.0000
  Ni  Ni4       1.0  0.69600  0.97500  0.50000  1.0000
