data_image0
_chemical_formula_structural       O14Sm6Ta2
_chemical_formula_sum              "O14 Sm6 Ta2"
_cell_length_a       6.53912
_cell_length_b       6.53912
_cell_length_c       7.6075
_cell_angle_alpha    90
_cell_angle_beta     90
_cell_angle_gamma    70.2778

_space_group_name_H-M_alt    "P 1"
_space_group_IT_number       1

loop_
  _space_group_symop_operation_xyz
  'x, y, z'

loop_
  _atom_site_type_symbol
  _atom_site_label
  _atom_site_symmetry_multiplicity
  _atom_site_fract_x
  _atom_site_fract_y
  _atom_site_fract_z
  _atom_site_occupancy
  O   O1        1.0  0.68200  0.07110  0.03110  1.0000
  O   O2        1.0  0.07110  0.68200  0.03110  1.0000
  O   O3        1.0  0.06180  0.06180  0.25000  1.0000
  O   O4        1.0  0.36500  0.36500  0.25000  1.0000
  O   O5        1.0  0.63000  0.63000  0.25000  1.0000
  O   O6        1.0  0.68200  0.07110  0.46900  1.0000
  O   O7        1.0  0.07110  0.68200  0.46900  1.0000
  O   O8        1.0  0.92900  0.31800  0.53100  1.0000
  O   O9        1.0  0.31800  0.92900  0.53100  1.0000
  O   O10       1.0  0.37000  0.37000  0.75000  1.0000
  O   O11       1.0  0.63500  0.63500  0.75000  1.0000
  O   O12       1.0  0.93800  0.93800  0.75000  1.0000
  O   O13       1.0  0.92900  0.31800  0.96900  1.0000
  O   O14       1.0  0.31800  0.92900  0.96900  1.0000
  Sm  Sm1       1.0  0.50000  0.50000  0.00000  1.0000
  Sm  Sm2       1.0  0.00000  0.46400  0.25000  1.0000
  Sm  Sm3       1.0  0.46400  0.00000  0.25000  1.0000
  Sm  Sm4       1.0  0.50000  0.50000  0.50000  1.0000
  Sm  Sm5       1.0  0.53600  0.00049  0.75000  1.0000
  Sm  Sm6       1.0  0.00049  0.53600  0.75000  1.0000
  Ta  Ta1       1.0  0.00000  0.00000  0.00000  1.0000
  Ta  Ta2       1.0  0.00000  0.00000  0.50000  1.0000
