data_image0
_chemical_formula_structural       Na10Nb2O10
_chemical_formula_sum              "Na10 Nb2 O10"
_cell_length_a       5.96846
_cell_length_b       5.96846
_cell_length_c       9.98804
_cell_angle_alpha    98.6753
_cell_angle_beta     98.6753
_cell_angle_gamma    116.779

_space_group_name_H-M_alt    "P 1"
_space_group_IT_number       1

loop_
  _space_group_symop_operation_xyz
  'x, y, z'

loop_
  _atom_site_type_symbol
  _atom_site_label
  _atom_site_symmetry_multiplicity
  _atom_site_fract_x
  _atom_site_fract_y
  _atom_site_fract_z
  _atom_site_occupancy
  Na  Na1       1.0  0.55600  0.28500  0.04970  1.0000
  Na  Na2       1.0  0.01110  0.82600  0.07970  1.0000
  Na  Na3       1.0  0.66900  0.83100  0.25000  1.0000
  Na  Na4       1.0  0.67400  0.48900  0.42000  1.0000
  Na  Na5       1.0  0.21500  0.94400  0.45000  1.0000
  Na  Na6       1.0  0.78500  0.05580  0.55000  1.0000
  Na  Na7       1.0  0.32600  0.51100  0.58000  1.0000
  Na  Na8       1.0  0.33100  0.16900  0.75000  1.0000
  Na  Na9       1.0  0.98900  0.17400  0.92000  1.0000
  Na  Na10      1.0  0.44400  0.71500  0.95000  1.0000
  Nb  Nb1       1.0  0.09210  0.40800  0.25000  1.0000
  Nb  Nb2       1.0  0.90800  0.59200  0.75000  1.0000
  O   O1        1.0  0.80600  0.09180  0.10300  1.0000
  O   O2        1.0  0.30500  0.46100  0.11600  1.0000
  O   O3        1.0  0.90400  0.59600  0.25000  1.0000
  O   O4        1.0  0.03900  0.19500  0.38400  1.0000
  O   O5        1.0  0.40800  0.69400  0.39700  1.0000
  O   O6        1.0  0.59200  0.30600  0.60300  1.0000
  O   O7        1.0  0.96100  0.80500  0.61600  1.0000
  O   O8        1.0  0.09620  0.40400  0.75000  1.0000
  O   O9        1.0  0.69500  0.53900  0.88400  1.0000
  O   O10       1.0  0.19400  0.90800  0.89700  1.0000
