data_image0
_chemical_formula_structural       Ce10In8Pt4
_chemical_formula_sum              "Ce10 In8 Pt4"
_cell_length_a       8.33173
_cell_length_b       18.8513
_cell_length_c       3.86224
_cell_angle_alpha    90
_cell_angle_beta     90
_cell_angle_gamma    90

_space_group_name_H-M_alt    "P 1"
_space_group_IT_number       1

loop_
  _space_group_symop_operation_xyz
  'x, y, z'

loop_
  _atom_site_type_symbol
  _atom_site_label
  _atom_site_symmetry_multiplicity
  _atom_site_fract_x
  _atom_site_fract_y
  _atom_site_fract_z
  _atom_site_occupancy
  Ce  Ce1       1.0  0.00000  0.00000  0.00000  1.0000
  Ce  Ce2       1.0  0.61900  0.08320  0.00000  1.0000
  Ce  Ce3       1.0  0.24200  0.22200  0.00000  1.0000
  Ce  Ce4       1.0  0.74200  0.27800  0.00000  1.0000
  Ce  Ce5       1.0  0.11900  0.41700  0.00000  1.0000
  Ce  Ce6       1.0  0.50000  0.50000  0.00000  1.0000
  Ce  Ce7       1.0  0.88100  0.58300  0.00000  1.0000
  Ce  Ce8       1.0  0.25800  0.72200  0.00000  1.0000
  Ce  Ce9       1.0  0.75800  0.77800  0.00000  1.0000
  Ce  Ce10      1.0  0.38100  0.91700  0.00000  1.0000
  In  In1       1.0  0.28900  0.07110  0.50000  1.0000
  In  In2       1.0  0.93300  0.14900  0.50000  1.0000
  In  In3       1.0  0.43300  0.35100  0.50000  1.0000
  In  In4       1.0  0.78900  0.42900  0.50000  1.0000
  In  In5       1.0  0.21100  0.57100  0.50000  1.0000
  In  In6       1.0  0.56700  0.64900  0.50000  1.0000
  In  In7       1.0  0.06680  0.85100  0.50000  1.0000
  In  In8       1.0  0.71100  0.92900  0.50000  1.0000
  Pt  Pt1       1.0  0.52000  0.19600  0.50000  1.0000
  Pt  Pt2       1.0  0.01950  0.30400  0.50000  1.0000
  Pt  Pt3       1.0  0.98000  0.69600  0.50000  1.0000
  Pt  Pt4       1.0  0.48000  0.80400  0.50000  1.0000
