data_image0
_chemical_formula_structural       C8N8Pt2Tl4
_chemical_formula_sum              "C8 N8 Pt2 Tl4"
_cell_length_a       6.27352
_cell_length_b       7.31629
_cell_length_c       9.55272
_cell_angle_alpha    90
_cell_angle_beta     104.989
_cell_angle_gamma    90

_space_group_name_H-M_alt    "P 1"
_space_group_IT_number       1

loop_
  _space_group_symop_operation_xyz
  'x, y, z'

loop_
  _atom_site_type_symbol
  _atom_site_label
  _atom_site_symmetry_multiplicity
  _atom_site_fract_x
  _atom_site_fract_y
  _atom_site_fract_z
  _atom_site_occupancy
  C   C1        1.0  0.79100  0.66300  0.06490  1.0000
  C   C2        1.0  0.19400  0.49800  0.20100  1.0000
  C   C3        1.0  0.30600  0.99800  0.29900  1.0000
  C   C4        1.0  0.70900  0.16300  0.43500  1.0000
  C   C5        1.0  0.29100  0.83700  0.56500  1.0000
  C   C6        1.0  0.69400  0.00228  0.70100  1.0000
  C   C7        1.0  0.80600  0.50200  0.79900  1.0000
  C   C8        1.0  0.20900  0.33700  0.93500  1.0000
  N   N1        1.0  0.67100  0.76100  0.10600  1.0000
  N   N2        1.0  0.19300  0.99700  0.18000  1.0000
  N   N3        1.0  0.30700  0.49700  0.32000  1.0000
  N   N4        1.0  0.82900  0.26100  0.39400  1.0000
  N   N5        1.0  0.17100  0.73900  0.60600  1.0000
  N   N6        1.0  0.69300  0.50300  0.68000  1.0000
  N   N7        1.0  0.80700  0.00277  0.82000  1.0000
  N   N8        1.0  0.32900  0.23900  0.89400  1.0000
  Pt  Pt1       1.0  0.00000  0.50000  0.00000  1.0000
  Pt  Pt2       1.0  0.50000  0.00000  0.50000  1.0000
  Tl  Tl1       1.0  0.77100  0.15200  0.08120  1.0000
  Tl  Tl2       1.0  0.72900  0.65200  0.41900  1.0000
  Tl  Tl3       1.0  0.27100  0.34800  0.58100  1.0000
  Tl  Tl4       1.0  0.22900  0.84800  0.91900  1.0000
