data_image0
_chemical_formula_structural       Cr8Si10Zr4
_chemical_formula_sum              "Cr8 Si10 Zr4"
_cell_length_a       4.95035
_cell_length_b       7.59966
_cell_length_c       9.24357
_cell_angle_alpha    114.273
_cell_angle_beta     105.532
_cell_angle_gamma    90

_space_group_name_H-M_alt    "P 1"
_space_group_IT_number       1

loop_
  _space_group_symop_operation_xyz
  'x, y, z'

loop_
  _atom_site_type_symbol
  _atom_site_label
  _atom_site_symmetry_multiplicity
  _atom_site_fract_x
  _atom_site_fract_y
  _atom_site_fract_z
  _atom_site_occupancy
  Cr  Cr1       1.0  0.06140  0.31400  0.12300  1.0000
  Cr  Cr2       1.0  0.56100  0.80900  0.12300  1.0000
  Cr  Cr3       1.0  0.44100  0.69100  0.38200  1.0000
  Cr  Cr4       1.0  0.94100  0.69100  0.38200  1.0000
  Cr  Cr5       1.0  0.05880  0.30900  0.61800  1.0000
  Cr  Cr6       1.0  0.55900  0.30900  0.61800  1.0000
  Cr  Cr7       1.0  0.43900  0.19100  0.87700  1.0000
  Cr  Cr8       1.0  0.93900  0.68600  0.87700  1.0000
  Si  Si1       1.0  0.25000  0.00000  0.00000  1.0000
  Si  Si2       1.0  0.75000  0.00000  0.00000  1.0000
  Si  Si3       1.0  0.56400  0.49100  0.12800  1.0000
  Si  Si4       1.0  0.06400  0.63700  0.12800  1.0000
  Si  Si5       1.0  0.71100  0.00177  0.42200  1.0000
  Si  Si6       1.0  0.21100  0.42000  0.42200  1.0000
  Si  Si7       1.0  0.78900  0.58000  0.57800  1.0000
  Si  Si8       1.0  0.28900  0.99800  0.57800  1.0000
  Si  Si9       1.0  0.93600  0.36300  0.87200  1.0000
  Si  Si10      1.0  0.43600  0.50900  0.87200  1.0000
  Zr  Zr1       1.0  0.14100  0.01920  0.28200  1.0000
  Zr  Zr2       1.0  0.64100  0.26300  0.28200  1.0000
  Zr  Zr3       1.0  0.35900  0.73700  0.71800  1.0000
  Zr  Zr4       1.0  0.85900  0.98100  0.71800  1.0000
