data_image0
_chemical_formula_structural       Ca2Cu4Eu4O12
_chemical_formula_sum              "Ca2 Cu4 Eu4 O12"
_cell_length_a       6.14848
_cell_length_b       6.10907
_cell_length_c       8.0386
_cell_angle_alpha    112.333
_cell_angle_beta     105.66
_cell_angle_gamma    90

_space_group_name_H-M_alt    "P 1"
_space_group_IT_number       1

loop_
  _space_group_symop_operation_xyz
  'x, y, z'

loop_
  _atom_site_type_symbol
  _atom_site_label
  _atom_site_symmetry_multiplicity
  _atom_site_fract_x
  _atom_site_fract_y
  _atom_site_fract_z
  _atom_site_occupancy
  Ca  Ca1       1.0  0.25000  0.03830  0.00000  1.0000
  Ca  Ca2       1.0  0.75000  0.96200  0.00000  1.0000
  Cu  Cu1       1.0  0.00065  0.49200  0.16700  1.0000
  Cu  Cu2       1.0  0.50100  0.67400  0.16700  1.0000
  Cu  Cu3       1.0  0.99900  0.50800  0.83300  1.0000
  Cu  Cu4       1.0  0.49900  0.32600  0.83300  1.0000
  Eu  Eu1       1.0  0.72700  0.39600  0.40900  1.0000
  Eu  Eu2       1.0  0.22700  0.01290  0.40900  1.0000
  Eu  Eu3       1.0  0.27300  0.60400  0.59100  1.0000
  Eu  Eu4       1.0  0.77300  0.98700  0.59100  1.0000
  O   O1        1.0  0.02010  0.72600  0.07570  1.0000
  O   O2        1.0  0.52000  0.34900  0.07570  1.0000
  O   O3        1.0  0.03620  0.24700  0.24600  1.0000
  O   O4        1.0  0.53600  0.99900  0.24600  1.0000
  O   O5        1.0  0.96400  0.70300  0.38700  1.0000
  O   O6        1.0  0.46400  0.68400  0.38700  1.0000
  O   O7        1.0  0.03560  0.29700  0.61300  1.0000
  O   O8        1.0  0.53600  0.31600  0.61300  1.0000
  O   O9        1.0  0.96400  0.75300  0.75400  1.0000
  O   O10       1.0  0.46400  0.00129  0.75400  1.0000
  O   O11       1.0  0.48000  0.65100  0.92400  1.0000
  O   O12       1.0  0.98000  0.27400  0.92400  1.0000
