data_image0
_chemical_formula_structural       Eu4Hf4O14
_chemical_formula_sum              "Eu4 Hf4 O14"
_cell_length_a       7.50219
_cell_length_b       7.50219
_cell_length_c       7.50219
_cell_angle_alpha    120
_cell_angle_beta     90
_cell_angle_gamma    120

_space_group_name_H-M_alt    "P 1"
_space_group_IT_number       1

loop_
  _space_group_symop_operation_xyz
  'x, y, z'

loop_
  _atom_site_type_symbol
  _atom_site_label
  _atom_site_symmetry_multiplicity
  _atom_site_fract_x
  _atom_site_fract_y
  _atom_site_fract_z
  _atom_site_occupancy
  Eu  Eu1       1.0  0.00000  0.50000  0.00000  1.0000
  Eu  Eu2       1.0  0.00000  0.00000  0.50000  1.0000
  Eu  Eu3       1.0  0.00000  0.50000  0.50000  1.0000
  Eu  Eu4       1.0  0.50000  0.00000  0.50000  1.0000
  Hf  Hf1       1.0  0.00000  0.00000  0.00000  1.0000
  Hf  Hf2       1.0  0.50000  0.00000  0.00000  1.0000
  Hf  Hf3       1.0  0.50000  0.50000  0.00000  1.0000
  Hf  Hf4       1.0  0.50000  0.50000  0.50000  1.0000
  O   O1        1.0  0.83000  0.75000  0.08000  1.0000
  O   O2        1.0  0.83000  0.16000  0.08000  1.0000
  O   O3        1.0  0.42000  0.75000  0.08000  1.0000
  O   O4        1.0  0.58000  0.25000  0.33000  1.0000
  O   O5        1.0  0.58000  0.66000  0.33000  1.0000
  O   O6        1.0  0.17000  0.25000  0.33000  1.0000
  O   O7        1.0  0.12500  0.75000  0.37500  1.0000
  O   O8        1.0  0.87500  0.25000  0.62500  1.0000
  O   O9        1.0  0.42000  0.34000  0.67000  1.0000
  O   O10       1.0  0.42000  0.75000  0.67000  1.0000
  O   O11       1.0  0.83000  0.75000  0.67000  1.0000
  O   O12       1.0  0.58000  0.25000  0.92000  1.0000
  O   O13       1.0  0.17000  0.25000  0.92000  1.0000
  O   O14       1.0  0.17000  0.84000  0.92000  1.0000
