data_image0
_chemical_formula_structural       La2Si20
_chemical_formula_sum              "La2 Si20"
_cell_length_a       9.59021
_cell_length_b       9.59019
_cell_length_c       4.75612
_cell_angle_alpha    90
_cell_angle_beta     90
_cell_angle_gamma    120

_space_group_name_H-M_alt    "P 1"
_space_group_IT_number       1

loop_
  _space_group_symop_operation_xyz
  'x, y, z'

loop_
  _atom_site_type_symbol
  _atom_site_label
  _atom_site_symmetry_multiplicity
  _atom_site_fract_x
  _atom_site_fract_y
  _atom_site_fract_z
  _atom_site_occupancy
  La  La1       1.0  0.33300  0.66700  0.25000  1.0000
  La  La2       1.0  0.66700  0.33300  0.75000  1.0000
  Si  Si1       1.0  0.00000  0.00000  0.25000  1.0000
  Si  Si2       1.0  0.52300  0.04500  0.25000  1.0000
  Si  Si3       1.0  0.36800  0.18400  0.25000  1.0000
  Si  Si4       1.0  0.81600  0.18400  0.25000  1.0000
  Si  Si5       1.0  0.14300  0.28700  0.25000  1.0000
  Si  Si6       1.0  0.52300  0.47700  0.25000  1.0000
  Si  Si7       1.0  0.95500  0.47700  0.25000  1.0000
  Si  Si8       1.0  0.81600  0.63200  0.25000  1.0000
  Si  Si9       1.0  0.71300  0.85700  0.25000  1.0000
  Si  Si10      1.0  0.14300  0.85700  0.25000  1.0000
  Si  Si11      1.0  0.00000  0.00000  0.75000  1.0000
  Si  Si12      1.0  0.85700  0.14300  0.75000  1.0000
  Si  Si13      1.0  0.28700  0.14300  0.75000  1.0000
  Si  Si14      1.0  0.18400  0.36800  0.75000  1.0000
  Si  Si15      1.0  0.04500  0.52300  0.75000  1.0000
  Si  Si16      1.0  0.47700  0.52300  0.75000  1.0000
  Si  Si17      1.0  0.85700  0.71300  0.75000  1.0000
  Si  Si18      1.0  0.18400  0.81600  0.75000  1.0000
  Si  Si19      1.0  0.63200  0.81600  0.75000  1.0000
  Si  Si20      1.0  0.47700  0.95500  0.75000  1.0000
