data_image0
_chemical_formula_structural       Cr2Li2O14P4
_chemical_formula_sum              "Cr2 Li2 O14 P4"
_cell_length_a       6.89614
_cell_length_b       7.98725
_cell_length_c       4.77043
_cell_angle_alpha    90
_cell_angle_beta     109.5
_cell_angle_gamma    90

_space_group_name_H-M_alt    "P 1"
_space_group_IT_number       1

loop_
  _space_group_symop_operation_xyz
  'x, y, z'

loop_
  _atom_site_type_symbol
  _atom_site_label
  _atom_site_symmetry_multiplicity
  _atom_site_fract_x
  _atom_site_fract_y
  _atom_site_fract_z
  _atom_site_occupancy
  Cr  Cr1       1.0  0.23000  0.24900  0.22000  1.0000
  Cr  Cr2       1.0  0.77000  0.74900  0.78000  1.0000
  Li  Li1       1.0  0.18800  0.87800  0.18500  1.0000
  Li  Li2       1.0  0.81200  0.37800  0.81500  1.0000
  O   O1        1.0  0.35700  0.43300  0.07240  1.0000
  O   O2        1.0  0.37800  0.05870  0.11600  1.0000
  O   O3        1.0  0.97800  0.71600  0.18700  1.0000
  O   O4        1.0  0.00512  0.39800  0.24900  1.0000
  O   O5        1.0  0.57600  0.81000  0.38000  1.0000
  O   O6        1.0  0.11200  0.06400  0.39700  1.0000
  O   O7        1.0  0.74500  0.10100  0.40300  1.0000
  O   O8        1.0  0.25500  0.60100  0.59700  1.0000
  O   O9        1.0  0.88800  0.56400  0.60300  1.0000
  O   O10       1.0  0.42400  0.31000  0.62000  1.0000
  O   O11       1.0  0.99500  0.89800  0.75100  1.0000
  O   O12       1.0  0.02160  0.21600  0.81300  1.0000
  O   O13       1.0  0.62200  0.55900  0.88400  1.0000
  O   O14       1.0  0.64300  0.93300  0.92800  1.0000
  P   P1        1.0  0.58300  0.96700  0.19900  1.0000
  P   P2        1.0  0.01890  0.56800  0.40100  1.0000
  P   P3        1.0  0.98100  0.06790  0.59900  1.0000
  P   P4        1.0  0.41700  0.46700  0.80100  1.0000
