data_image0
_chemical_formula_structural       C6O2S14
_chemical_formula_sum              "C6 O2 S14"
_cell_length_a       4.31149
_cell_length_b       9.01954
_cell_length_c       12.1252
_cell_angle_alpha    102.861
_cell_angle_beta     97.075
_cell_angle_gamma    90.2851

_space_group_name_H-M_alt    "P 1"
_space_group_IT_number       1

loop_
  _space_group_symop_operation_xyz
  'x, y, z'

loop_
  _atom_site_type_symbol
  _atom_site_label
  _atom_site_symmetry_multiplicity
  _atom_site_fract_x
  _atom_site_fract_y
  _atom_site_fract_z
  _atom_site_occupancy
  C   C1        1.0  0.31700  0.63900  0.20900  1.0000
  C   C2        1.0  0.67000  0.46000  0.31400  1.0000
  C   C3        1.0  0.35800  0.71300  0.32200  1.0000
  C   C4        1.0  0.64200  0.28700  0.67800  1.0000
  C   C5        1.0  0.33000  0.54000  0.68600  1.0000
  C   C6        1.0  0.68300  0.36100  0.79100  1.0000
  O   O1        1.0  0.83300  0.35800  0.33700  1.0000
  O   O2        1.0  0.16700  0.64200  0.66300  1.0000
  S   S1        1.0  0.31400  0.88200  0.06990  1.0000
  S   S2        1.0  0.08040  0.69600  0.09790  1.0000
  S   S3        1.0  0.49500  0.46600  0.17400  1.0000
  S   S4        1.0  0.16200  0.06750  0.18100  1.0000
  S   S5        1.0  0.40700  0.05450  0.33600  1.0000
  S   S6        1.0  0.17900  0.88200  0.38300  1.0000
  S   S7        1.0  0.58800  0.62600  0.41600  1.0000
  S   S8        1.0  0.41200  0.37400  0.58400  1.0000
  S   S9        1.0  0.82100  0.11800  0.61700  1.0000
  S   S10       1.0  0.59300  0.94600  0.66400  1.0000
  S   S11       1.0  0.83800  0.93300  0.81900  1.0000
  S   S12       1.0  0.50500  0.53400  0.82600  1.0000
  S   S13       1.0  0.92000  0.30400  0.90200  1.0000
  S   S14       1.0  0.68600  0.11800  0.93000  1.0000
