data_image0
_chemical_formula_structural       Cr2O14Rb2V4
_chemical_formula_sum              "Cr2 O14 Rb2 V4"
_cell_length_a       8.14445
_cell_length_b       4.90632
_cell_length_c       6.90511
_cell_angle_alpha    90
_cell_angle_beta     101.24
_cell_angle_gamma    90

_space_group_name_H-M_alt    "P 1"
_space_group_IT_number       1

loop_
  _space_group_symop_operation_xyz
  'x, y, z'

loop_
  _atom_site_type_symbol
  _atom_site_label
  _atom_site_symmetry_multiplicity
  _atom_site_fract_x
  _atom_site_fract_y
  _atom_site_fract_z
  _atom_site_occupancy
  Cr  Cr1       1.0  0.00000  0.50000  0.00000  1.0000
  Cr  Cr2       1.0  0.00000  0.50000  0.50000  1.0000
  O   O1        1.0  0.78500  0.32400  0.01840  1.0000
  O   O2        1.0  0.11400  0.15800  0.11400  1.0000
  O   O3        1.0  0.64400  0.87200  0.11900  1.0000
  O   O4        1.0  0.00000  0.71400  0.25000  1.0000
  O   O5        1.0  0.35600  0.87200  0.38100  1.0000
  O   O6        1.0  0.88600  0.15800  0.38600  1.0000
  O   O7        1.0  0.21500  0.32400  0.48200  1.0000
  O   O8        1.0  0.78500  0.67600  0.51800  1.0000
  O   O9        1.0  0.11400  0.84200  0.61400  1.0000
  O   O10       1.0  0.64400  0.12800  0.61900  1.0000
  O   O11       1.0  0.00000  0.28600  0.75000  1.0000
  O   O12       1.0  0.35600  0.12800  0.88100  1.0000
  O   O13       1.0  0.88600  0.84200  0.88600  1.0000
  O   O14       1.0  0.21500  0.67600  0.98200  1.0000
  Rb  Rb1       1.0  0.50000  0.39300  0.25000  1.0000
  Rb  Rb2       1.0  0.50000  0.60700  0.75000  1.0000
  V   V1        1.0  0.82800  0.00372  0.12100  1.0000
  V   V2        1.0  0.17200  0.00372  0.37900  1.0000
  V   V3        1.0  0.82800  0.99600  0.62100  1.0000
  V   V4        1.0  0.17200  0.99600  0.87900  1.0000
