data_image0
_chemical_formula_structural       Ga9Ni13
_chemical_formula_sum              "Ga9 Ni13"
_cell_length_a       6.36207
_cell_length_b       6.36207
_cell_length_c       7.96161
_cell_angle_alpha    108.267
_cell_angle_beta     107.65
_cell_angle_gamma    103.198

_space_group_name_H-M_alt    "P 1"
_space_group_IT_number       1

loop_
  _space_group_symop_operation_xyz
  'x, y, z'

loop_
  _atom_site_type_symbol
  _atom_site_label
  _atom_site_symmetry_multiplicity
  _atom_site_fract_x
  _atom_site_fract_y
  _atom_site_fract_z
  _atom_site_occupancy
  Ga  Ga1       1.0  0.17000  0.94300  0.11300  1.0000
  Ga  Ga2       1.0  0.70800  0.45900  0.16700  1.0000
  Ga  Ga3       1.0  0.82900  0.05920  0.30900  1.0000
  Ga  Ga4       1.0  0.25000  0.48000  0.30900  1.0000
  Ga  Ga5       1.0  0.50000  0.00000  0.50000  1.0000
  Ga  Ga6       1.0  0.17100  0.94100  0.69100  1.0000
  Ga  Ga7       1.0  0.75000  0.52000  0.69100  1.0000
  Ga  Ga8       1.0  0.29200  0.54100  0.83300  1.0000
  Ga  Ga9       1.0  0.83000  0.05740  0.88700  1.0000
  Ni  Ni1       1.0  0.50000  0.00000  0.00000  1.0000
  Ni  Ni2       1.0  0.26000  0.26000  0.00000  1.0000
  Ni  Ni3       1.0  0.00000  0.50000  0.00000  1.0000
  Ni  Ni4       1.0  0.74000  0.74000  0.00000  1.0000
  Ni  Ni5       1.0  0.44900  0.73000  0.17900  1.0000
  Ni  Ni6       1.0  0.54200  0.27400  0.33900  1.0000
  Ni  Ni7       1.0  0.06540  0.79700  0.33900  1.0000
  Ni  Ni8       1.0  0.74200  0.74600  0.48700  1.0000
  Ni  Ni9       1.0  0.00000  0.50000  0.50000  1.0000
  Ni  Ni10      1.0  0.25800  0.25400  0.51300  1.0000
  Ni  Ni11      1.0  0.45800  0.72600  0.66100  1.0000
  Ni  Ni12      1.0  0.93500  0.20300  0.66100  1.0000
  Ni  Ni13      1.0  0.55100  0.27000  0.82100  1.0000
