data_image0
_chemical_formula_structural       La6O14Sb2
_chemical_formula_sum              "La6 O14 Sb2"
_cell_length_a       6.73595
_cell_length_b       6.73595
_cell_length_c       7.74451
_cell_angle_alpha    90
_cell_angle_beta     90
_cell_angle_gamma    68.4912

_space_group_name_H-M_alt    "P 1"
_space_group_IT_number       1

loop_
  _space_group_symop_operation_xyz
  'x, y, z'

loop_
  _atom_site_type_symbol
  _atom_site_label
  _atom_site_symmetry_multiplicity
  _atom_site_fract_x
  _atom_site_fract_y
  _atom_site_fract_z
  _atom_site_occupancy
  La  La1       1.0  0.00000  0.00000  0.00000  1.0000
  La  La2       1.0  0.47600  0.06870  0.25000  1.0000
  La  La3       1.0  0.93100  0.52400  0.25000  1.0000
  La  La4       1.0  0.00000  0.00000  0.50000  1.0000
  La  La5       1.0  0.06870  0.47600  0.75000  1.0000
  La  La6       1.0  0.52400  0.93100  0.75000  1.0000
  O   O1        1.0  0.18900  0.56000  0.03590  1.0000
  O   O2        1.0  0.44000  0.81100  0.03590  1.0000
  O   O3        1.0  0.10600  0.15400  0.25000  1.0000
  O   O4        1.0  0.58100  0.41900  0.25000  1.0000
  O   O5        1.0  0.84600  0.89400  0.25000  1.0000
  O   O6        1.0  0.18900  0.56000  0.46400  1.0000
  O   O7        1.0  0.44000  0.81100  0.46400  1.0000
  O   O8        1.0  0.56000  0.18900  0.53600  1.0000
  O   O9        1.0  0.81100  0.44000  0.53600  1.0000
  O   O10       1.0  0.15400  0.10600  0.75000  1.0000
  O   O11       1.0  0.41900  0.58100  0.75000  1.0000
  O   O12       1.0  0.89400  0.84600  0.75000  1.0000
  O   O13       1.0  0.56000  0.18900  0.96400  1.0000
  O   O14       1.0  0.81100  0.44000  0.96400  1.0000
  Sb  Sb1       1.0  0.50000  0.50000  0.00000  1.0000
  Sb  Sb2       1.0  0.50000  0.50000  0.50000  1.0000
