data_image0
_chemical_formula_structural       K4Mn2P4Se12
_chemical_formula_sum              "K4 Mn2 P4 Se12"
_cell_length_a       6.51339
_cell_length_b       12.7725
_cell_length_c       7.72392
_cell_angle_alpha    90
_cell_angle_beta     102.252
_cell_angle_gamma    90

_space_group_name_H-M_alt    "P 1"
_space_group_IT_number       1

loop_
  _space_group_symop_operation_xyz
  'x, y, z'

loop_
  _atom_site_type_symbol
  _atom_site_label
  _atom_site_symmetry_multiplicity
  _atom_site_fract_x
  _atom_site_fract_y
  _atom_site_fract_z
  _atom_site_occupancy
  K   K1        1.0  0.22600  0.80500  0.04100  1.0000
  K   K2        1.0  0.27400  0.30500  0.45900  1.0000
  K   K3        1.0  0.72600  0.69500  0.54100  1.0000
  K   K4        1.0  0.77400  0.19500  0.95900  1.0000
  Mn  Mn1       1.0  0.50000  0.50000  0.00000  1.0000
  Mn  Mn2       1.0  0.00000  0.00000  0.50000  1.0000
  P   P1        1.0  0.98500  0.53200  0.13400  1.0000
  P   P2        1.0  0.51500  0.03220  0.36600  1.0000
  P   P3        1.0  0.48500  0.96800  0.63400  1.0000
  P   P4        1.0  0.01550  0.46800  0.86600  1.0000
  Se  Se1       1.0  0.78100  0.67200  0.07450  1.0000
  Se  Se2       1.0  0.18400  0.05630  0.23400  1.0000
  Se  Se3       1.0  0.68800  0.91200  0.24900  1.0000
  Se  Se4       1.0  0.81200  0.41200  0.25100  1.0000
  Se  Se5       1.0  0.31600  0.55600  0.26600  1.0000
  Se  Se6       1.0  0.71900  0.17200  0.42500  1.0000
  Se  Se7       1.0  0.28100  0.82800  0.57500  1.0000
  Se  Se8       1.0  0.68400  0.44400  0.73400  1.0000
  Se  Se9       1.0  0.18800  0.58800  0.74900  1.0000
  Se  Se10      1.0  0.31200  0.08800  0.75100  1.0000
  Se  Se11      1.0  0.81600  0.94400  0.76600  1.0000
  Se  Se12      1.0  0.21900  0.32800  0.92500  1.0000
