data_image0
_chemical_formula_structural       C8N8Pd2Tl4
_chemical_formula_sum              "C8 N8 Pd2 Tl4"
_cell_length_a       6.24983
_cell_length_b       7.33238
_cell_length_c       9.54518
_cell_angle_alpha    90
_cell_angle_beta     104.758
_cell_angle_gamma    90

_space_group_name_H-M_alt    "P 1"
_space_group_IT_number       1

loop_
  _space_group_symop_operation_xyz
  'x, y, z'

loop_
  _atom_site_type_symbol
  _atom_site_label
  _atom_site_symmetry_multiplicity
  _atom_site_fract_x
  _atom_site_fract_y
  _atom_site_fract_z
  _atom_site_occupancy
  C   C1        1.0  0.79000  0.33400  0.06310  1.0000
  C   C2        1.0  0.19300  0.50200  0.20200  1.0000
  C   C3        1.0  0.30700  0.00167  0.29800  1.0000
  C   C4        1.0  0.71000  0.83400  0.43700  1.0000
  C   C5        1.0  0.29000  0.16600  0.56300  1.0000
  C   C6        1.0  0.69300  0.99800  0.70200  1.0000
  C   C7        1.0  0.80700  0.49800  0.79800  1.0000
  C   C8        1.0  0.21000  0.66600  0.93700  1.0000
  N   N1        1.0  0.67000  0.23400  0.10200  1.0000
  N   N2        1.0  0.19400  0.00260  0.17900  1.0000
  N   N3        1.0  0.30600  0.50300  0.32100  1.0000
  N   N4        1.0  0.83000  0.73400  0.39800  1.0000
  N   N5        1.0  0.17000  0.26600  0.60200  1.0000
  N   N6        1.0  0.69400  0.49700  0.67900  1.0000
  N   N7        1.0  0.80600  0.99700  0.82100  1.0000
  N   N8        1.0  0.33000  0.76600  0.89800  1.0000
  Pd  Pd1       1.0  0.00000  0.50000  0.00000  1.0000
  Pd  Pd2       1.0  0.50000  0.00000  0.50000  1.0000
  Tl  Tl1       1.0  0.77200  0.85100  0.08370  1.0000
  Tl  Tl2       1.0  0.72800  0.35100  0.41600  1.0000
  Tl  Tl3       1.0  0.27200  0.64900  0.58400  1.0000
  Tl  Tl4       1.0  0.22800  0.14900  0.91600  1.0000
