data_image0
_chemical_formula_structural       Ir2Nd6O14
_chemical_formula_sum              "Ir2 Nd6 O14"
_cell_length_a       6.59974
_cell_length_b       6.59974
_cell_length_c       7.51086
_cell_angle_alpha    90
_cell_angle_beta     90
_cell_angle_gamma    68.2378

_space_group_name_H-M_alt    "P 1"
_space_group_IT_number       1

loop_
  _space_group_symop_operation_xyz
  'x, y, z'

loop_
  _atom_site_type_symbol
  _atom_site_label
  _atom_site_symmetry_multiplicity
  _atom_site_fract_x
  _atom_site_fract_y
  _atom_site_fract_z
  _atom_site_occupancy
  Ir  Ir1       1.0  0.50000  0.50000  0.00000  1.0000
  Ir  Ir2       1.0  0.50000  0.50000  0.50000  1.0000
  Nd  Nd1       1.0  0.00000  0.00000  0.00000  1.0000
  Nd  Nd2       1.0  0.47000  0.08620  0.25000  1.0000
  Nd  Nd3       1.0  0.91400  0.53000  0.25000  1.0000
  Nd  Nd4       1.0  0.00000  0.00000  0.50000  1.0000
  Nd  Nd5       1.0  0.08620  0.47000  0.75000  1.0000
  Nd  Nd6       1.0  0.53000  0.91400  0.75000  1.0000
  O   O1        1.0  0.18600  0.56100  0.04160  1.0000
  O   O2        1.0  0.43900  0.81400  0.04160  1.0000
  O   O3        1.0  0.10500  0.15800  0.25000  1.0000
  O   O4        1.0  0.59300  0.40700  0.25000  1.0000
  O   O5        1.0  0.84200  0.89500  0.25000  1.0000
  O   O6        1.0  0.18600  0.56100  0.45800  1.0000
  O   O7        1.0  0.43900  0.81400  0.45800  1.0000
  O   O8        1.0  0.56100  0.18600  0.54200  1.0000
  O   O9        1.0  0.81400  0.43900  0.54200  1.0000
  O   O10       1.0  0.15800  0.10500  0.75000  1.0000
  O   O11       1.0  0.40700  0.59300  0.75000  1.0000
  O   O12       1.0  0.89500  0.84200  0.75000  1.0000
  O   O13       1.0  0.56100  0.18600  0.95800  1.0000
  O   O14       1.0  0.81400  0.43900  0.95800  1.0000
