data_image0
_chemical_formula_structural       Gd6Nb2O14
_chemical_formula_sum              "Gd6 Nb2 O14"
_cell_length_a       6.49308
_cell_length_b       6.49308
_cell_length_c       7.51333
_cell_angle_alpha    90
_cell_angle_beta     90
_cell_angle_gamma    70.9561

_space_group_name_H-M_alt    "P 1"
_space_group_IT_number       1

loop_
  _space_group_symop_operation_xyz
  'x, y, z'

loop_
  _atom_site_type_symbol
  _atom_site_label
  _atom_site_symmetry_multiplicity
  _atom_site_fract_x
  _atom_site_fract_y
  _atom_site_fract_z
  _atom_site_occupancy
  Gd  Gd1       1.0  0.99900  0.46300  0.00955  1.0000
  Gd  Gd2       1.0  0.46900  0.53100  0.25000  1.0000
  Gd  Gd3       1.0  0.53700  0.00100  0.49000  1.0000
  Gd  Gd4       1.0  0.00100  0.53700  0.51000  1.0000
  Gd  Gd5       1.0  0.53100  0.46900  0.75000  1.0000
  Gd  Gd6       1.0  0.46300  0.99900  0.99000  1.0000
  Nb  Nb1       1.0  0.99800  0.00194  0.25000  1.0000
  Nb  Nb2       1.0  0.00194  0.99800  0.75000  1.0000
  O   O1        1.0  0.06990  0.06990  0.00000  1.0000
  O   O2        1.0  0.36300  0.36300  0.00000  1.0000
  O   O3        1.0  0.62900  0.62900  0.00000  1.0000
  O   O4        1.0  0.69100  0.05400  0.20500  1.0000
  O   O5        1.0  0.08360  0.67000  0.22700  1.0000
  O   O6        1.0  0.33000  0.91600  0.27300  1.0000
  O   O7        1.0  0.94600  0.30900  0.29500  1.0000
  O   O8        1.0  0.37100  0.37100  0.50000  1.0000
  O   O9        1.0  0.63700  0.63700  0.50000  1.0000
  O   O10       1.0  0.93000  0.93000  0.50000  1.0000
  O   O11       1.0  0.30900  0.94600  0.70500  1.0000
  O   O12       1.0  0.91600  0.33000  0.72700  1.0000
  O   O13       1.0  0.67000  0.08360  0.77300  1.0000
  O   O14       1.0  0.05400  0.69100  0.79500  1.0000
