data_image0
_chemical_formula_structural       Ce12Li12O48V8
_chemical_formula_sum              "Ce12 Li12 O48 V8"
_cell_length_a       10.7708
_cell_length_b       10.7708
_cell_length_c       10.7708
_cell_angle_alpha    109.471
_cell_angle_beta     109.471
_cell_angle_gamma    109.471

_space_group_name_H-M_alt    "P 1"
_space_group_IT_number       1

loop_
  _space_group_symop_operation_xyz
  'x, y, z'

loop_
  _atom_site_type_symbol
  _atom_site_label
  _atom_site_symmetry_multiplicity
  _atom_site_fract_x
  _atom_site_fract_y
  _atom_site_fract_z
  _atom_site_occupancy
  Ce  Ce1       1.0  0.25000  0.87500  0.12500  1.0000
  Ce  Ce2       1.0  0.37500  0.25000  0.12500  1.0000
  Ce  Ce3       1.0  0.87500  0.12500  0.25000  1.0000
  Ce  Ce4       1.0  0.37500  0.62500  0.25000  1.0000
  Ce  Ce5       1.0  0.12500  0.75000  0.37500  1.0000
  Ce  Ce6       1.0  0.75000  0.62500  0.37500  1.0000
  Ce  Ce7       1.0  0.87500  0.25000  0.62500  1.0000
  Ce  Ce8       1.0  0.25000  0.37500  0.62500  1.0000
  Ce  Ce9       1.0  0.12500  0.87500  0.75000  1.0000
  Ce  Ce10      1.0  0.62500  0.37500  0.75000  1.0000
  Ce  Ce11      1.0  0.62500  0.75000  0.87500  1.0000
  Ce  Ce12      1.0  0.75000  0.12500  0.87500  1.0000
  Li  Li1       1.0  0.75000  0.37500  0.12500  1.0000
  Li  Li2       1.0  0.87500  0.75000  0.12500  1.0000
  Li  Li3       1.0  0.12500  0.37500  0.25000  1.0000
  Li  Li4       1.0  0.62500  0.87500  0.25000  1.0000
  Li  Li5       1.0  0.62500  0.25000  0.37500  1.0000
  Li  Li6       1.0  0.25000  0.12500  0.37500  1.0000
  Li  Li7       1.0  0.75000  0.87500  0.62500  1.0000
  Li  Li8       1.0  0.37500  0.75000  0.62500  1.0000
  Li  Li9       1.0  0.37500  0.12500  0.75000  1.0000
  Li  Li10      1.0  0.87500  0.62500  0.75000  1.0000
  Li  Li11      1.0  0.12500  0.25000  0.87500  1.0000
  Li  Li12      1.0  0.25000  0.62500  0.87500  1.0000
  O   O1        1.0  0.19100  0.61100  0.02040  1.0000
  O   O2        1.0  0.33000  0.41000  0.02040  1.0000
  O   O3        1.0  0.88900  0.91000  0.08000  1.0000
  O   O4        1.0  0.69100  0.17000  0.08000  1.0000
  O   O5        1.0  0.98000  0.17000  0.09040  1.0000
  O   O6        1.0  0.61100  0.92000  0.09040  1.0000
  O   O7        1.0  0.02040  0.69100  0.11100  1.0000
  O   O8        1.0  0.59000  0.42000  0.11100  1.0000
  O   O9        1.0  0.48000  0.09040  0.17000  1.0000
  O   O10       1.0  0.19100  0.08000  0.17000  1.0000
  O   O11       1.0  0.11100  0.52000  0.19100  1.0000
  O   O12       1.0  0.58000  0.67000  0.19100  1.0000
  O   O13       1.0  0.33000  0.42000  0.30900  1.0000
  O   O14       1.0  0.48000  0.88900  0.30900  1.0000
  O   O15       1.0  0.92000  0.80900  0.33000  1.0000
  O   O16       1.0  0.91000  0.52000  0.33000  1.0000
  O   O17       1.0  0.30900  0.98000  0.38900  1.0000
  O   O18       1.0  0.58000  0.41000  0.38900  1.0000
  O   O19       1.0  0.83000  0.02040  0.41000  1.0000
  O   O20       1.0  0.08000  0.38900  0.41000  1.0000
  O   O21       1.0  0.09040  0.11100  0.42000  1.0000
  O   O22       1.0  0.83000  0.30900  0.42000  1.0000
  O   O23       1.0  0.59000  0.67000  0.48000  1.0000
  O   O24       1.0  0.38900  0.80900  0.48000  1.0000
  O   O25       1.0  0.41000  0.33000  0.52000  1.0000
  O   O26       1.0  0.61100  0.19100  0.52000  1.0000
  O   O27       1.0  0.17000  0.69100  0.58000  1.0000
  O   O28       1.0  0.91000  0.88900  0.58000  1.0000
  O   O29       1.0  0.17000  0.98000  0.59000  1.0000
  O   O30       1.0  0.92000  0.61100  0.59000  1.0000
  O   O31       1.0  0.42000  0.59000  0.61100  1.0000
  O   O32       1.0  0.69100  0.02040  0.61100  1.0000
  O   O33       1.0  0.08000  0.19100  0.67000  1.0000
  O   O34       1.0  0.09040  0.48000  0.67000  1.0000
  O   O35       1.0  0.67000  0.58000  0.69100  1.0000
  O   O36       1.0  0.52000  0.11100  0.69100  1.0000
  O   O37       1.0  0.88900  0.48000  0.80900  1.0000
  O   O38       1.0  0.42000  0.33000  0.80900  1.0000
  O   O39       1.0  0.52000  0.91000  0.83000  1.0000
  O   O40       1.0  0.80900  0.92000  0.83000  1.0000
  O   O41       1.0  0.98000  0.30900  0.88900  1.0000
  O   O42       1.0  0.41000  0.58000  0.88900  1.0000
  O   O43       1.0  0.38900  0.08000  0.91000  1.0000
  O   O44       1.0  0.02040  0.83000  0.91000  1.0000
  O   O45       1.0  0.11100  0.09040  0.92000  1.0000
  O   O46       1.0  0.30900  0.83000  0.92000  1.0000
  O   O47       1.0  0.80900  0.38900  0.98000  1.0000
  O   O48       1.0  0.67000  0.59000  0.98000  1.0000
  V   V1        1.0  0.00000  0.00000  0.00000  1.0000
  V   V2        1.0  0.50000  0.00000  0.00000  1.0000
  V   V3        1.0  0.50000  0.50000  0.00000  1.0000
  V   V4        1.0  0.00000  0.50000  0.00000  1.0000
  V   V5        1.0  0.50000  0.00000  0.50000  1.0000
  V   V6        1.0  1.00000  0.50000  0.50000  1.0000
  V   V7        1.0  0.00000  0.00000  0.50000  1.0000
  V   V8        1.0  0.50000  0.50000  0.50000  1.0000
