data_image0
_chemical_formula_structural       Li12O48Pb12Ta8
_chemical_formula_sum              "Li12 O48 Pb12 Ta8"
_cell_length_a       10.6804
_cell_length_b       10.6804
_cell_length_c       10.6804
_cell_angle_alpha    109.471
_cell_angle_beta     109.471
_cell_angle_gamma    109.471

_space_group_name_H-M_alt    "P 1"
_space_group_IT_number       1

loop_
  _space_group_symop_operation_xyz
  'x, y, z'

loop_
  _atom_site_type_symbol
  _atom_site_label
  _atom_site_symmetry_multiplicity
  _atom_site_fract_x
  _atom_site_fract_y
  _atom_site_fract_z
  _atom_site_occupancy
  Li  Li1       1.0  0.87500  0.75000  0.12500  1.0000
  Li  Li2       1.0  0.75000  0.37500  0.12500  1.0000
  Li  Li3       1.0  0.12500  0.37500  0.25000  1.0000
  Li  Li4       1.0  0.62500  0.87500  0.25000  1.0000
  Li  Li5       1.0  0.25000  0.12500  0.37500  1.0000
  Li  Li6       1.0  0.62500  0.25000  0.37500  1.0000
  Li  Li7       1.0  0.37500  0.75000  0.62500  1.0000
  Li  Li8       1.0  0.75000  0.87500  0.62500  1.0000
  Li  Li9       1.0  0.37500  0.12500  0.75000  1.0000
  Li  Li10      1.0  0.87500  0.62500  0.75000  1.0000
  Li  Li11      1.0  0.12500  0.25000  0.87500  1.0000
  Li  Li12      1.0  0.25000  0.62500  0.87500  1.0000
  O   O1        1.0  0.32200  0.40700  0.02910  1.0000
  O   O2        1.0  0.20700  0.62200  0.02910  1.0000
  O   O3        1.0  0.70700  0.17800  0.08480  1.0000
  O   O4        1.0  0.87800  0.90700  0.08480  1.0000
  O   O5        1.0  0.62200  0.91500  0.09280  1.0000
  O   O6        1.0  0.97100  0.17800  0.09280  1.0000
  O   O7        1.0  0.59300  0.41500  0.12200  1.0000
  O   O8        1.0  0.02910  0.70700  0.12200  1.0000
  O   O9        1.0  0.47100  0.09280  0.17800  1.0000
  O   O10       1.0  0.20700  0.08480  0.17800  1.0000
  O   O11       1.0  0.12200  0.52900  0.20700  1.0000
  O   O12       1.0  0.58500  0.67800  0.20700  1.0000
  O   O13       1.0  0.47100  0.87800  0.29300  1.0000
  O   O14       1.0  0.32200  0.41500  0.29300  1.0000
  O   O15       1.0  0.90700  0.52900  0.32200  1.0000
  O   O16       1.0  0.91500  0.79300  0.32200  1.0000
  O   O17       1.0  0.58500  0.40700  0.37800  1.0000
  O   O18       1.0  0.29300  0.97100  0.37800  1.0000
  O   O19       1.0  0.82200  0.02910  0.40700  1.0000
  O   O20       1.0  0.08480  0.37800  0.40700  1.0000
  O   O21       1.0  0.09280  0.12200  0.41500  1.0000
  O   O22       1.0  0.82200  0.29300  0.41500  1.0000
  O   O23       1.0  0.59300  0.67800  0.47100  1.0000
  O   O24       1.0  0.37800  0.79300  0.47100  1.0000
  O   O25       1.0  0.40700  0.32200  0.52900  1.0000
  O   O26       1.0  0.62200  0.20700  0.52900  1.0000
  O   O27       1.0  0.90700  0.87800  0.58500  1.0000
  O   O28       1.0  0.17800  0.70700  0.58500  1.0000
  O   O29       1.0  0.91500  0.62200  0.59300  1.0000
  O   O30       1.0  0.17800  0.97100  0.59300  1.0000
  O   O31       1.0  0.70700  0.02910  0.62200  1.0000
  O   O32       1.0  0.41500  0.59300  0.62200  1.0000
  O   O33       1.0  0.08480  0.20700  0.67800  1.0000
  O   O34       1.0  0.09280  0.47100  0.67800  1.0000
  O   O35       1.0  0.52900  0.12200  0.70700  1.0000
  O   O36       1.0  0.67800  0.58500  0.70700  1.0000
  O   O37       1.0  0.41500  0.32200  0.79300  1.0000
  O   O38       1.0  0.87800  0.47100  0.79300  1.0000
  O   O39       1.0  0.52900  0.90700  0.82200  1.0000
  O   O40       1.0  0.79300  0.91500  0.82200  1.0000
  O   O41       1.0  0.97100  0.29300  0.87800  1.0000
  O   O42       1.0  0.40700  0.58500  0.87800  1.0000
  O   O43       1.0  0.37800  0.08480  0.90700  1.0000
  O   O44       1.0  0.02910  0.82200  0.90700  1.0000
  O   O45       1.0  0.29300  0.82200  0.91500  1.0000
  O   O46       1.0  0.12200  0.09280  0.91500  1.0000
  O   O47       1.0  0.79300  0.37800  0.97100  1.0000
  O   O48       1.0  0.67800  0.59300  0.97100  1.0000
  Pb  Pb1       1.0  0.37500  0.25000  0.12500  1.0000
  Pb  Pb2       1.0  0.25000  0.87500  0.12500  1.0000
  Pb  Pb3       1.0  0.87500  0.12500  0.25000  1.0000
  Pb  Pb4       1.0  0.37500  0.62500  0.25000  1.0000
  Pb  Pb5       1.0  0.75000  0.62500  0.37500  1.0000
  Pb  Pb6       1.0  0.12500  0.75000  0.37500  1.0000
  Pb  Pb7       1.0  0.87500  0.25000  0.62500  1.0000
  Pb  Pb8       1.0  0.25000  0.37500  0.62500  1.0000
  Pb  Pb9       1.0  0.62500  0.37500  0.75000  1.0000
  Pb  Pb10      1.0  0.12500  0.87500  0.75000  1.0000
  Pb  Pb11      1.0  0.75000  0.12500  0.87500  1.0000
  Pb  Pb12      1.0  0.62500  0.75000  0.87500  1.0000
  Ta  Ta1       1.0  0.00000  0.00000  0.00000  1.0000
  Ta  Ta2       1.0  0.50000  0.00000  0.00000  1.0000
  Ta  Ta3       1.0  0.50000  0.50000  0.00000  1.0000
  Ta  Ta4       1.0  0.00000  0.50000  0.00000  1.0000
  Ta  Ta5       1.0  0.50000  0.00000  0.50000  1.0000
  Ta  Ta6       1.0  1.00000  0.50000  0.50000  1.0000
  Ta  Ta7       1.0  0.00000  0.00000  0.50000  1.0000
  Ta  Ta8       1.0  0.50000  0.50000  0.50000  1.0000
