data_image0
_chemical_formula_structural       Al8Li12O48Ta12
_chemical_formula_sum              "Al8 Li12 O48 Ta12"
_cell_length_a       9.83849
_cell_length_b       9.83849
_cell_length_c       9.83849
_cell_angle_alpha    109.471
_cell_angle_beta     109.471
_cell_angle_gamma    109.471

_space_group_name_H-M_alt    "P 1"
_space_group_IT_number       1

loop_
  _space_group_symop_operation_xyz
  'x, y, z'

loop_
  _atom_site_type_symbol
  _atom_site_label
  _atom_site_symmetry_multiplicity
  _atom_site_fract_x
  _atom_site_fract_y
  _atom_site_fract_z
  _atom_site_occupancy
  Al  Al1       1.0  0.00000  0.00000  0.00000  1.0000
  Al  Al2       1.0  0.50000  0.00000  0.00000  1.0000
  Al  Al3       1.0  0.50000  0.50000  0.00000  1.0000
  Al  Al4       1.0  0.00000  0.50000  0.00000  1.0000
  Al  Al5       1.0  0.50000  0.00000  0.50000  1.0000
  Al  Al6       1.0  0.00000  0.50000  0.50000  1.0000
  Al  Al7       1.0  0.00000  0.00000  0.50000  1.0000
  Al  Al8       1.0  0.50000  0.50000  0.50000  1.0000
  Li  Li1       1.0  0.87500  0.75000  0.12500  1.0000
  Li  Li2       1.0  0.75000  0.37500  0.12500  1.0000
  Li  Li3       1.0  0.12500  0.37500  0.25000  1.0000
  Li  Li4       1.0  0.62500  0.87500  0.25000  1.0000
  Li  Li5       1.0  0.25000  0.12500  0.37500  1.0000
  Li  Li6       1.0  0.62500  0.25000  0.37500  1.0000
  Li  Li7       1.0  0.37500  0.75000  0.62500  1.0000
  Li  Li8       1.0  0.75000  0.87500  0.62500  1.0000
  Li  Li9       1.0  0.37500  0.12500  0.75000  1.0000
  Li  Li10      1.0  0.87500  0.62500  0.75000  1.0000
  Li  Li11      1.0  0.12500  0.25000  0.87500  1.0000
  Li  Li12      1.0  0.25000  0.62500  0.87500  1.0000
  O   O1        1.0  0.21700  0.62800  0.04240  1.0000
  O   O2        1.0  0.32500  0.41400  0.04240  1.0000
  O   O3        1.0  0.95800  0.17500  0.08610  1.0000
  O   O4        1.0  0.62800  0.91100  0.08610  1.0000
  O   O5        1.0  0.87200  0.91400  0.08850  1.0000
  O   O6        1.0  0.71700  0.17500  0.08850  1.0000
  O   O7        1.0  0.58600  0.41100  0.12800  1.0000
  O   O8        1.0  0.04240  0.71700  0.12800  1.0000
  O   O9        1.0  0.21700  0.08850  0.17500  1.0000
  O   O10       1.0  0.45800  0.08610  0.17500  1.0000
  O   O11       1.0  0.58900  0.67500  0.21700  1.0000
  O   O12       1.0  0.12800  0.54200  0.21700  1.0000
  O   O13       1.0  0.32500  0.41100  0.28300  1.0000
  O   O14       1.0  0.45800  0.87200  0.28300  1.0000
  O   O15       1.0  0.91100  0.78300  0.32500  1.0000
  O   O16       1.0  0.91400  0.54200  0.32500  1.0000
  O   O17       1.0  0.58900  0.41400  0.37200  1.0000
  O   O18       1.0  0.28300  0.95800  0.37200  1.0000
  O   O19       1.0  0.08610  0.12800  0.41100  1.0000
  O   O20       1.0  0.82500  0.28300  0.41100  1.0000
  O   O21       1.0  0.82500  0.04240  0.41400  1.0000
  O   O22       1.0  0.08850  0.37200  0.41400  1.0000
  O   O23       1.0  0.37200  0.78300  0.45800  1.0000
  O   O24       1.0  0.58600  0.67500  0.45800  1.0000
  O   O25       1.0  0.62800  0.21700  0.54200  1.0000
  O   O26       1.0  0.41400  0.32500  0.54200  1.0000
  O   O27       1.0  0.91100  0.62800  0.58600  1.0000
  O   O28       1.0  0.17500  0.95800  0.58600  1.0000
  O   O29       1.0  0.17500  0.71700  0.58900  1.0000
  O   O30       1.0  0.91400  0.87200  0.58900  1.0000
  O   O31       1.0  0.41100  0.58600  0.62800  1.0000
  O   O32       1.0  0.71700  0.04240  0.62800  1.0000
  O   O33       1.0  0.08850  0.21700  0.67500  1.0000
  O   O34       1.0  0.08610  0.45800  0.67500  1.0000
  O   O35       1.0  0.54200  0.12800  0.71700  1.0000
  O   O36       1.0  0.67500  0.58900  0.71700  1.0000
  O   O37       1.0  0.41100  0.32500  0.78300  1.0000
  O   O38       1.0  0.87200  0.45800  0.78300  1.0000
  O   O39       1.0  0.54200  0.91400  0.82500  1.0000
  O   O40       1.0  0.78300  0.91100  0.82500  1.0000
  O   O41       1.0  0.41400  0.58900  0.87200  1.0000
  O   O42       1.0  0.95800  0.28300  0.87200  1.0000
  O   O43       1.0  0.12800  0.08610  0.91100  1.0000
  O   O44       1.0  0.28300  0.82500  0.91100  1.0000
  O   O45       1.0  0.37200  0.08850  0.91400  1.0000
  O   O46       1.0  0.04240  0.82500  0.91400  1.0000
  O   O47       1.0  0.78300  0.37200  0.95800  1.0000
  O   O48       1.0  0.67500  0.58600  0.95800  1.0000
  Ta  Ta1       1.0  0.37500  0.25000  0.12500  1.0000
  Ta  Ta2       1.0  0.25000  0.87500  0.12500  1.0000
  Ta  Ta3       1.0  0.87500  0.12500  0.25000  1.0000
  Ta  Ta4       1.0  0.37500  0.62500  0.25000  1.0000
  Ta  Ta5       1.0  0.75000  0.62500  0.37500  1.0000
  Ta  Ta6       1.0  0.12500  0.75000  0.37500  1.0000
  Ta  Ta7       1.0  0.25000  0.37500  0.62500  1.0000
  Ta  Ta8       1.0  0.87500  0.25000  0.62500  1.0000
  Ta  Ta9       1.0  0.62500  0.37500  0.75000  1.0000
  Ta  Ta10      1.0  0.12500  0.87500  0.75000  1.0000
  Ta  Ta11      1.0  0.75000  0.12500  0.87500  1.0000
  Ta  Ta12      1.0  0.62500  0.75000  0.87500  1.0000
