data_image0
_chemical_formula_structural       Li12Nb8O48Zr12
_chemical_formula_sum              "Li12 Nb8 O48 Zr12"
_cell_length_a       10.3394
_cell_length_b       10.3394
_cell_length_c       10.3394
_cell_angle_alpha    109.471
_cell_angle_beta     109.471
_cell_angle_gamma    109.471

_space_group_name_H-M_alt    "P 1"
_space_group_IT_number       1

loop_
  _space_group_symop_operation_xyz
  'x, y, z'

loop_
  _atom_site_type_symbol
  _atom_site_label
  _atom_site_symmetry_multiplicity
  _atom_site_fract_x
  _atom_site_fract_y
  _atom_site_fract_z
  _atom_site_occupancy
  Li  Li1       1.0  0.75000  0.37500  0.12500  1.0000
  Li  Li2       1.0  0.87500  0.75000  0.12500  1.0000
  Li  Li3       1.0  0.12500  0.37500  0.25000  1.0000
  Li  Li4       1.0  0.62500  0.87500  0.25000  1.0000
  Li  Li5       1.0  0.25000  0.12500  0.37500  1.0000
  Li  Li6       1.0  0.62500  0.25000  0.37500  1.0000
  Li  Li7       1.0  0.75000  0.87500  0.62500  1.0000
  Li  Li8       1.0  0.37500  0.75000  0.62500  1.0000
  Li  Li9       1.0  0.37500  0.12500  0.75000  1.0000
  Li  Li10      1.0  0.87500  0.62500  0.75000  1.0000
  Li  Li11      1.0  0.25000  0.62500  0.87500  1.0000
  Li  Li12      1.0  0.12500  0.25000  0.87500  1.0000
  Nb  Nb1       1.0  0.00000  0.00000  0.00000  1.0000
  Nb  Nb2       1.0  0.50000  0.00000  0.00000  1.0000
  Nb  Nb3       1.0  0.00000  0.50000  0.00000  1.0000
  Nb  Nb4       1.0  0.50000  0.50000  0.00000  1.0000
  Nb  Nb5       1.0  0.00000  0.00000  0.50000  1.0000
  Nb  Nb6       1.0  0.50000  0.50000  0.50000  1.0000
  Nb  Nb7       1.0  0.50000  0.00000  0.50000  1.0000
  Nb  Nb8       1.0  0.00000  0.50000  0.50000  1.0000
  O   O1        1.0  0.32000  0.41100  0.04000  1.0000
  O   O2        1.0  0.22000  0.62900  0.04000  1.0000
  O   O3        1.0  0.96000  0.18000  0.08880  1.0000
  O   O4        1.0  0.62900  0.90900  0.08880  1.0000
  O   O5        1.0  0.87100  0.91100  0.09090  1.0000
  O   O6        1.0  0.72000  0.18000  0.09090  1.0000
  O   O7        1.0  0.58900  0.40900  0.12900  1.0000
  O   O8        1.0  0.04000  0.72000  0.12900  1.0000
  O   O9        1.0  0.46000  0.08880  0.18000  1.0000
  O   O10       1.0  0.22000  0.09090  0.18000  1.0000
  O   O11       1.0  0.59100  0.68000  0.22000  1.0000
  O   O12       1.0  0.12900  0.54000  0.22000  1.0000
  O   O13       1.0  0.32000  0.40900  0.28000  1.0000
  O   O14       1.0  0.46000  0.87100  0.28000  1.0000
  O   O15       1.0  0.91100  0.54000  0.32000  1.0000
  O   O16       1.0  0.90900  0.78000  0.32000  1.0000
  O   O17       1.0  0.59100  0.41100  0.37100  1.0000
  O   O18       1.0  0.28000  0.96000  0.37100  1.0000
  O   O19       1.0  0.08880  0.12900  0.40900  1.0000
  O   O20       1.0  0.82000  0.28000  0.40900  1.0000
  O   O21       1.0  0.09090  0.37100  0.41100  1.0000
  O   O22       1.0  0.82000  0.04000  0.41100  1.0000
  O   O23       1.0  0.58900  0.68000  0.46000  1.0000
  O   O24       1.0  0.37100  0.78000  0.46000  1.0000
  O   O25       1.0  0.62900  0.22000  0.54000  1.0000
  O   O26       1.0  0.41100  0.32000  0.54000  1.0000
  O   O27       1.0  0.90900  0.62900  0.58900  1.0000
  O   O28       1.0  0.18000  0.96000  0.58900  1.0000
  O   O29       1.0  0.18000  0.72000  0.59100  1.0000
  O   O30       1.0  0.91100  0.87100  0.59100  1.0000
  O   O31       1.0  0.72000  0.04000  0.62900  1.0000
  O   O32       1.0  0.40900  0.58900  0.62900  1.0000
  O   O33       1.0  0.09090  0.22000  0.68000  1.0000
  O   O34       1.0  0.08880  0.46000  0.68000  1.0000
  O   O35       1.0  0.54000  0.12900  0.72000  1.0000
  O   O36       1.0  0.68000  0.59100  0.72000  1.0000
  O   O37       1.0  0.40900  0.32000  0.78000  1.0000
  O   O38       1.0  0.87100  0.46000  0.78000  1.0000
  O   O39       1.0  0.78000  0.90900  0.82000  1.0000
  O   O40       1.0  0.54000  0.91100  0.82000  1.0000
  O   O41       1.0  0.41100  0.59100  0.87100  1.0000
  O   O42       1.0  0.96000  0.28000  0.87100  1.0000
  O   O43       1.0  0.12900  0.08880  0.90900  1.0000
  O   O44       1.0  0.28000  0.82000  0.90900  1.0000
  O   O45       1.0  0.04000  0.82000  0.91100  1.0000
  O   O46       1.0  0.37100  0.09090  0.91100  1.0000
  O   O47       1.0  0.78000  0.37100  0.96000  1.0000
  O   O48       1.0  0.68000  0.58900  0.96000  1.0000
  Zr  Zr1       1.0  0.37500  0.25000  0.12500  1.0000
  Zr  Zr2       1.0  0.25000  0.87500  0.12500  1.0000
  Zr  Zr3       1.0  0.37500  0.62500  0.25000  1.0000
  Zr  Zr4       1.0  0.87500  0.12500  0.25000  1.0000
  Zr  Zr5       1.0  0.75000  0.62500  0.37500  1.0000
  Zr  Zr6       1.0  0.12500  0.75000  0.37500  1.0000
  Zr  Zr7       1.0  0.25000  0.37500  0.62500  1.0000
  Zr  Zr8       1.0  0.87500  0.25000  0.62500  1.0000
  Zr  Zr9       1.0  0.62500  0.37500  0.75000  1.0000
  Zr  Zr10      1.0  0.12500  0.87500  0.75000  1.0000
  Zr  Zr11      1.0  0.75000  0.12500  0.87500  1.0000
  Zr  Zr12      1.0  0.62500  0.75000  0.87500  1.0000
