data_image0
_chemical_formula_structural       Hf12Li12Mo8O48
_chemical_formula_sum              "Hf12 Li12 Mo8 O48"
_cell_length_a       10.2158
_cell_length_b       10.2158
_cell_length_c       10.2158
_cell_angle_alpha    109.471
_cell_angle_beta     109.471
_cell_angle_gamma    109.471

_space_group_name_H-M_alt    "P 1"
_space_group_IT_number       1

loop_
  _space_group_symop_operation_xyz
  'x, y, z'

loop_
  _atom_site_type_symbol
  _atom_site_label
  _atom_site_symmetry_multiplicity
  _atom_site_fract_x
  _atom_site_fract_y
  _atom_site_fract_z
  _atom_site_occupancy
  Hf  Hf1       1.0  0.37500  0.25000  0.12500  1.0000
  Hf  Hf2       1.0  0.25000  0.87500  0.12500  1.0000
  Hf  Hf3       1.0  0.87500  0.12500  0.25000  1.0000
  Hf  Hf4       1.0  0.37500  0.62500  0.25000  1.0000
  Hf  Hf5       1.0  0.75000  0.62500  0.37500  1.0000
  Hf  Hf6       1.0  0.12500  0.75000  0.37500  1.0000
  Hf  Hf7       1.0  0.25000  0.37500  0.62500  1.0000
  Hf  Hf8       1.0  0.87500  0.25000  0.62500  1.0000
  Hf  Hf9       1.0  0.62500  0.37500  0.75000  1.0000
  Hf  Hf10      1.0  0.12500  0.87500  0.75000  1.0000
  Hf  Hf11      1.0  0.75000  0.12500  0.87500  1.0000
  Hf  Hf12      1.0  0.62500  0.75000  0.87500  1.0000
  Li  Li1       1.0  0.75000  0.37500  0.12500  1.0000
  Li  Li2       1.0  0.87500  0.75000  0.12500  1.0000
  Li  Li3       1.0  0.12500  0.37500  0.25000  1.0000
  Li  Li4       1.0  0.62500  0.87500  0.25000  1.0000
  Li  Li5       1.0  0.25000  0.12500  0.37500  1.0000
  Li  Li6       1.0  0.62500  0.25000  0.37500  1.0000
  Li  Li7       1.0  0.37500  0.75000  0.62500  1.0000
  Li  Li8       1.0  0.75000  0.87500  0.62500  1.0000
  Li  Li9       1.0  0.37500  0.12500  0.75000  1.0000
  Li  Li10      1.0  0.87500  0.62500  0.75000  1.0000
  Li  Li11      1.0  0.12500  0.25000  0.87500  1.0000
  Li  Li12      1.0  0.25000  0.62500  0.87500  1.0000
  Mo  Mo1       1.0  0.00000  0.00000  0.00000  1.0000
  Mo  Mo2       1.0  0.50000  0.00000  0.00000  1.0000
  Mo  Mo3       1.0  0.00000  0.50000  0.00000  1.0000
  Mo  Mo4       1.0  0.50000  0.50000  0.00000  1.0000
  Mo  Mo5       1.0  0.00000  0.00000  0.50000  1.0000
  Mo  Mo6       1.0  0.50000  0.00000  0.50000  1.0000
  Mo  Mo7       1.0  0.00000  0.50000  0.50000  1.0000
  Mo  Mo8       1.0  0.50000  0.50000  0.50000  1.0000
  O   O1        1.0  0.22000  0.63000  0.04240  1.0000
  O   O2        1.0  0.32200  0.41200  0.04240  1.0000
  O   O3        1.0  0.95800  0.17800  0.08810  1.0000
  O   O4        1.0  0.63000  0.91000  0.08810  1.0000
  O   O5        1.0  0.87000  0.91200  0.09000  1.0000
  O   O6        1.0  0.72000  0.17800  0.09000  1.0000
  O   O7        1.0  0.58800  0.41000  0.13000  1.0000
  O   O8        1.0  0.04240  0.72000  0.13000  1.0000
  O   O9        1.0  0.45800  0.08810  0.17800  1.0000
  O   O10       1.0  0.22000  0.09000  0.17800  1.0000
  O   O11       1.0  0.13000  0.54200  0.22000  1.0000
  O   O12       1.0  0.59000  0.67800  0.22000  1.0000
  O   O13       1.0  0.32200  0.41000  0.28000  1.0000
  O   O14       1.0  0.45800  0.87000  0.28000  1.0000
  O   O15       1.0  0.91000  0.78000  0.32200  1.0000
  O   O16       1.0  0.91200  0.54200  0.32200  1.0000
  O   O17       1.0  0.59000  0.41200  0.37000  1.0000
  O   O18       1.0  0.28000  0.95800  0.37000  1.0000
  O   O19       1.0  0.08810  0.13000  0.41000  1.0000
  O   O20       1.0  0.82200  0.28000  0.41000  1.0000
  O   O21       1.0  0.82200  0.04240  0.41200  1.0000
  O   O22       1.0  0.09000  0.37000  0.41200  1.0000
  O   O23       1.0  0.37000  0.78000  0.45800  1.0000
  O   O24       1.0  0.58800  0.67800  0.45800  1.0000
  O   O25       1.0  0.41200  0.32200  0.54200  1.0000
  O   O26       1.0  0.63000  0.22000  0.54200  1.0000
  O   O27       1.0  0.91000  0.63000  0.58800  1.0000
  O   O28       1.0  0.17800  0.95800  0.58800  1.0000
  O   O29       1.0  0.17800  0.72000  0.59000  1.0000
  O   O30       1.0  0.91200  0.87000  0.59000  1.0000
  O   O31       1.0  0.41000  0.58800  0.63000  1.0000
  O   O32       1.0  0.72000  0.04240  0.63000  1.0000
  O   O33       1.0  0.09000  0.22000  0.67800  1.0000
  O   O34       1.0  0.08810  0.45800  0.67800  1.0000
  O   O35       1.0  0.54200  0.13000  0.72000  1.0000
  O   O36       1.0  0.67800  0.59000  0.72000  1.0000
  O   O37       1.0  0.41000  0.32200  0.78000  1.0000
  O   O38       1.0  0.87000  0.45800  0.78000  1.0000
  O   O39       1.0  0.78000  0.91000  0.82200  1.0000
  O   O40       1.0  0.54200  0.91200  0.82200  1.0000
  O   O41       1.0  0.95800  0.28000  0.87000  1.0000
  O   O42       1.0  0.41200  0.59000  0.87000  1.0000
  O   O43       1.0  0.13000  0.08810  0.91000  1.0000
  O   O44       1.0  0.28000  0.82200  0.91000  1.0000
  O   O45       1.0  0.04240  0.82200  0.91200  1.0000
  O   O46       1.0  0.37000  0.09000  0.91200  1.0000
  O   O47       1.0  0.78000  0.37000  0.95800  1.0000
  O   O48       1.0  0.67800  0.58800  0.95800  1.0000
