data_image0
_chemical_formula_structural       Li12Nb8O48Te12
_chemical_formula_sum              "Li12 Nb8 O48 Te12"
_cell_length_a       10.6535
_cell_length_b       10.6535
_cell_length_c       10.6535
_cell_angle_alpha    109.471
_cell_angle_beta     109.471
_cell_angle_gamma    109.471

_space_group_name_H-M_alt    "P 1"
_space_group_IT_number       1

loop_
  _space_group_symop_operation_xyz
  'x, y, z'

loop_
  _atom_site_type_symbol
  _atom_site_label
  _atom_site_symmetry_multiplicity
  _atom_site_fract_x
  _atom_site_fract_y
  _atom_site_fract_z
  _atom_site_occupancy
  Li  Li1       1.0  0.75000  0.37500  0.12500  1.0000
  Li  Li2       1.0  0.87500  0.75000  0.12500  1.0000
  Li  Li3       1.0  0.12500  0.37500  0.25000  1.0000
  Li  Li4       1.0  0.62500  0.87500  0.25000  1.0000
  Li  Li5       1.0  0.25000  0.12500  0.37500  1.0000
  Li  Li6       1.0  0.62500  0.25000  0.37500  1.0000
  Li  Li7       1.0  0.37500  0.75000  0.62500  1.0000
  Li  Li8       1.0  0.75000  0.87500  0.62500  1.0000
  Li  Li9       1.0  0.37500  0.12500  0.75000  1.0000
  Li  Li10      1.0  0.87500  0.62500  0.75000  1.0000
  Li  Li11      1.0  0.12500  0.25000  0.87500  1.0000
  Li  Li12      1.0  0.25000  0.62500  0.87500  1.0000
  Nb  Nb1       1.0  0.00000  0.00000  0.00000  1.0000
  Nb  Nb2       1.0  0.50000  0.00000  0.00000  1.0000
  Nb  Nb3       1.0  0.00000  0.50000  0.00000  1.0000
  Nb  Nb4       1.0  0.50000  0.50000  0.00000  1.0000
  Nb  Nb5       1.0  0.00000  0.00000  0.50000  1.0000
  Nb  Nb6       1.0  0.50000  0.00000  0.50000  1.0000
  Nb  Nb7       1.0  0.00000  0.50000  0.50000  1.0000
  Nb  Nb8       1.0  0.50000  0.50000  0.50000  1.0000
  O   O1        1.0  0.32400  0.40500  0.03340  1.0000
  O   O2        1.0  0.21000  0.62900  0.03340  1.0000
  O   O3        1.0  0.87100  0.90500  0.08120  1.0000
  O   O4        1.0  0.71000  0.17600  0.08120  1.0000
  O   O5        1.0  0.62900  0.91900  0.09520  1.0000
  O   O6        1.0  0.96700  0.17600  0.09520  1.0000
  O   O7        1.0  0.59500  0.41900  0.12900  1.0000
  O   O8        1.0  0.03340  0.71000  0.12900  1.0000
  O   O9        1.0  0.21000  0.08120  0.17600  1.0000
  O   O10       1.0  0.46700  0.09520  0.17600  1.0000
  O   O11       1.0  0.58100  0.67600  0.21000  1.0000
  O   O12       1.0  0.12900  0.53300  0.21000  1.0000
  O   O13       1.0  0.32400  0.41900  0.29000  1.0000
  O   O14       1.0  0.46700  0.87100  0.29000  1.0000
  O   O15       1.0  0.91900  0.79000  0.32400  1.0000
  O   O16       1.0  0.90500  0.53300  0.32400  1.0000
  O   O17       1.0  0.58100  0.40500  0.37100  1.0000
  O   O18       1.0  0.29000  0.96700  0.37100  1.0000
  O   O19       1.0  0.08120  0.37100  0.40500  1.0000
  O   O20       1.0  0.82400  0.03340  0.40500  1.0000
  O   O21       1.0  0.09520  0.12900  0.41900  1.0000
  O   O22       1.0  0.82400  0.29000  0.41900  1.0000
  O   O23       1.0  0.59500  0.67600  0.46700  1.0000
  O   O24       1.0  0.37100  0.79000  0.46700  1.0000
  O   O25       1.0  0.40500  0.32400  0.53300  1.0000
  O   O26       1.0  0.62900  0.21000  0.53300  1.0000
  O   O27       1.0  0.90500  0.87100  0.58100  1.0000
  O   O28       1.0  0.17600  0.71000  0.58100  1.0000
  O   O29       1.0  0.91900  0.62900  0.59500  1.0000
  O   O30       1.0  0.17600  0.96700  0.59500  1.0000
  O   O31       1.0  0.41900  0.59500  0.62900  1.0000
  O   O32       1.0  0.71000  0.03340  0.62900  1.0000
  O   O33       1.0  0.08120  0.21000  0.67600  1.0000
  O   O34       1.0  0.09520  0.46700  0.67600  1.0000
  O   O35       1.0  0.67600  0.58100  0.71000  1.0000
  O   O36       1.0  0.53300  0.12900  0.71000  1.0000
  O   O37       1.0  0.41900  0.32400  0.79000  1.0000
  O   O38       1.0  0.87100  0.46700  0.79000  1.0000
  O   O39       1.0  0.53300  0.90500  0.82400  1.0000
  O   O40       1.0  0.79000  0.91900  0.82400  1.0000
  O   O41       1.0  0.40500  0.58100  0.87100  1.0000
  O   O42       1.0  0.96700  0.29000  0.87100  1.0000
  O   O43       1.0  0.37100  0.08120  0.90500  1.0000
  O   O44       1.0  0.03340  0.82400  0.90500  1.0000
  O   O45       1.0  0.12900  0.09520  0.91900  1.0000
  O   O46       1.0  0.29000  0.82400  0.91900  1.0000
  O   O47       1.0  0.67600  0.59500  0.96700  1.0000
  O   O48       1.0  0.79000  0.37100  0.96700  1.0000
  Te  Te1       1.0  0.37500  0.25000  0.12500  1.0000
  Te  Te2       1.0  0.25000  0.87500  0.12500  1.0000
  Te  Te3       1.0  0.87500  0.12500  0.25000  1.0000
  Te  Te4       1.0  0.37500  0.62500  0.25000  1.0000
  Te  Te5       1.0  0.12500  0.75000  0.37500  1.0000
  Te  Te6       1.0  0.75000  0.62500  0.37500  1.0000
  Te  Te7       1.0  0.87500  0.25000  0.62500  1.0000
  Te  Te8       1.0  0.25000  0.37500  0.62500  1.0000
  Te  Te9       1.0  0.62500  0.37500  0.75000  1.0000
  Te  Te10      1.0  0.12500  0.87500  0.75000  1.0000
  Te  Te11      1.0  0.62500  0.75000  0.87500  1.0000
  Te  Te12      1.0  0.75000  0.12500  0.87500  1.0000
