data_image0
_chemical_formula_structural       Cl18P2Sn2
_chemical_formula_sum              "Cl18 P2 Sn2"
_cell_length_a       9.05118
_cell_length_b       9.64534
_cell_length_c       7.10814
_cell_angle_alpha    95.6254
_cell_angle_beta     95.6797
_cell_angle_gamma    100.643

_space_group_name_H-M_alt    "P 1"
_space_group_IT_number       1

loop_
  _space_group_symop_operation_xyz
  'x, y, z'

loop_
  _atom_site_type_symbol
  _atom_site_label
  _atom_site_symmetry_multiplicity
  _atom_site_fract_x
  _atom_site_fract_y
  _atom_site_fract_z
  _atom_site_occupancy
  Cl  Cl1       1.0  0.27900  0.24100  0.05420  1.0000
  Cl  Cl2       1.0  0.79800  0.41400  0.05790  1.0000
  Cl  Cl3       1.0  0.39400  0.88300  0.15300  1.0000
  Cl  Cl4       1.0  0.89000  0.12300  0.15300  1.0000
  Cl  Cl5       1.0  0.06080  0.76900  0.25000  1.0000
  Cl  Cl6       1.0  0.51800  0.55100  0.28100  1.0000
  Cl  Cl7       1.0  0.58300  0.21400  0.37800  1.0000
  Cl  Cl8       1.0  0.15400  0.44300  0.42100  1.0000
  Cl  Cl9       1.0  0.77300  0.88200  0.47700  1.0000
  Cl  Cl10      1.0  0.22700  0.11800  0.52300  1.0000
  Cl  Cl11      1.0  0.84600  0.55700  0.57900  1.0000
  Cl  Cl12      1.0  0.41700  0.78600  0.62200  1.0000
  Cl  Cl13      1.0  0.48200  0.44900  0.71900  1.0000
  Cl  Cl14      1.0  0.93900  0.23100  0.75000  1.0000
  Cl  Cl15      1.0  0.11000  0.87700  0.84700  1.0000
  Cl  Cl16      1.0  0.60600  0.11700  0.84700  1.0000
  Cl  Cl17      1.0  0.20200  0.58600  0.94200  1.0000
  Cl  Cl18      1.0  0.72100  0.75900  0.94600  1.0000
  P   P1        1.0  0.19300  0.77800  0.04810  1.0000
  P   P2        1.0  0.80700  0.22200  0.95200  1.0000
  Sn  Sn1       1.0  0.36100  0.31900  0.38700  1.0000
  Sn  Sn2       1.0  0.63900  0.68100  0.61300  1.0000
