data_image0
_chemical_formula_structural       In8Li12Nb12O48
_chemical_formula_sum              "In8 Li12 Nb12 O48"
_cell_length_a       10.2745
_cell_length_b       10.2745
_cell_length_c       10.2745
_cell_angle_alpha    109.471
_cell_angle_beta     109.471
_cell_angle_gamma    109.471

_space_group_name_H-M_alt    "P 1"
_space_group_IT_number       1

loop_
  _space_group_symop_operation_xyz
  'x, y, z'

loop_
  _atom_site_type_symbol
  _atom_site_label
  _atom_site_symmetry_multiplicity
  _atom_site_fract_x
  _atom_site_fract_y
  _atom_site_fract_z
  _atom_site_occupancy
  In  In1       1.0  0.00000  0.00000  0.00000  1.0000
  In  In2       1.0  0.50000  0.00000  0.00000  1.0000
  In  In3       1.0  0.00000  0.50000  0.00000  1.0000
  In  In4       1.0  0.50000  0.50000  0.00000  1.0000
  In  In5       1.0  0.00000  0.00000  0.50000  1.0000
  In  In6       1.0  0.50000  0.00000  0.50000  1.0000
  In  In7       1.0  0.00000  0.50000  0.50000  1.0000
  In  In8       1.0  0.50000  0.50000  0.50000  1.0000
  Li  Li1       1.0  0.75000  0.37500  0.12500  1.0000
  Li  Li2       1.0  0.87500  0.75000  0.12500  1.0000
  Li  Li3       1.0  0.12500  0.37500  0.25000  1.0000
  Li  Li4       1.0  0.62500  0.87500  0.25000  1.0000
  Li  Li5       1.0  0.62500  0.25000  0.37500  1.0000
  Li  Li6       1.0  0.25000  0.12500  0.37500  1.0000
  Li  Li7       1.0  0.37500  0.75000  0.62500  1.0000
  Li  Li8       1.0  0.75000  0.87500  0.62500  1.0000
  Li  Li9       1.0  0.37500  0.12500  0.75000  1.0000
  Li  Li10      1.0  0.87500  0.62500  0.75000  1.0000
  Li  Li11      1.0  0.12500  0.25000  0.87500  1.0000
  Li  Li12      1.0  0.25000  0.62500  0.87500  1.0000
  Nb  Nb1       1.0  0.25000  0.87500  0.12500  1.0000
  Nb  Nb2       1.0  0.37500  0.25000  0.12500  1.0000
  Nb  Nb3       1.0  0.87500  0.12500  0.25000  1.0000
  Nb  Nb4       1.0  0.37500  0.62500  0.25000  1.0000
  Nb  Nb5       1.0  0.75000  0.62500  0.37500  1.0000
  Nb  Nb6       1.0  0.12500  0.75000  0.37500  1.0000
  Nb  Nb7       1.0  0.25000  0.37500  0.62500  1.0000
  Nb  Nb8       1.0  0.87500  0.25000  0.62500  1.0000
  Nb  Nb9       1.0  0.12500  0.87500  0.75000  1.0000
  Nb  Nb10      1.0  0.62500  0.37500  0.75000  1.0000
  Nb  Nb11      1.0  0.75000  0.12500  0.87500  1.0000
  Nb  Nb12      1.0  0.62500  0.75000  0.87500  1.0000
  O   O1        1.0  0.23500  0.63500  0.05120  1.0000
  O   O2        1.0  0.31600  0.41600  0.05120  1.0000
  O   O3        1.0  0.63500  0.90000  0.08360  1.0000
  O   O4        1.0  0.94900  0.18400  0.08360  1.0000
  O   O5        1.0  0.86500  0.91600  0.10000  1.0000
  O   O6        1.0  0.73500  0.18400  0.10000  1.0000
  O   O7        1.0  0.58400  0.40000  0.13500  1.0000
  O   O8        1.0  0.05120  0.73500  0.13500  1.0000
  O   O9        1.0  0.44900  0.08360  0.18400  1.0000
  O   O10       1.0  0.23500  0.10000  0.18400  1.0000
  O   O11       1.0  0.13500  0.55100  0.23500  1.0000
  O   O12       1.0  0.60000  0.68400  0.23500  1.0000
  O   O13       1.0  0.31600  0.40000  0.26500  1.0000
  O   O14       1.0  0.44900  0.86500  0.26500  1.0000
  O   O15       1.0  0.90000  0.76500  0.31600  1.0000
  O   O16       1.0  0.91600  0.55100  0.31600  1.0000
  O   O17       1.0  0.60000  0.41600  0.36500  1.0000
  O   O18       1.0  0.26500  0.94900  0.36500  1.0000
  O   O19       1.0  0.08360  0.13500  0.40000  1.0000
  O   O20       1.0  0.81600  0.26500  0.40000  1.0000
  O   O21       1.0  0.10000  0.36500  0.41600  1.0000
  O   O22       1.0  0.81600  0.05120  0.41600  1.0000
  O   O23       1.0  0.58400  0.68400  0.44900  1.0000
  O   O24       1.0  0.36500  0.76500  0.44900  1.0000
  O   O25       1.0  0.63500  0.23500  0.55100  1.0000
  O   O26       1.0  0.41600  0.31600  0.55100  1.0000
  O   O27       1.0  0.18400  0.94900  0.58400  1.0000
  O   O28       1.0  0.90000  0.63500  0.58400  1.0000
  O   O29       1.0  0.18400  0.73500  0.60000  1.0000
  O   O30       1.0  0.91600  0.86500  0.60000  1.0000
  O   O31       1.0  0.40000  0.58400  0.63500  1.0000
  O   O32       1.0  0.73500  0.05120  0.63500  1.0000
  O   O33       1.0  0.10000  0.23500  0.68400  1.0000
  O   O34       1.0  0.08360  0.44900  0.68400  1.0000
  O   O35       1.0  0.55100  0.13500  0.73500  1.0000
  O   O36       1.0  0.68400  0.60000  0.73500  1.0000
  O   O37       1.0  0.40000  0.31600  0.76500  1.0000
  O   O38       1.0  0.86500  0.44900  0.76500  1.0000
  O   O39       1.0  0.76500  0.90000  0.81600  1.0000
  O   O40       1.0  0.55100  0.91600  0.81600  1.0000
  O   O41       1.0  0.94900  0.26500  0.86500  1.0000
  O   O42       1.0  0.41600  0.60000  0.86500  1.0000
  O   O43       1.0  0.13500  0.08360  0.90000  1.0000
  O   O44       1.0  0.26500  0.81600  0.90000  1.0000
  O   O45       1.0  0.05120  0.81600  0.91600  1.0000
  O   O46       1.0  0.36500  0.10000  0.91600  1.0000
  O   O47       1.0  0.76500  0.36500  0.94900  1.0000
  O   O48       1.0  0.68400  0.58400  0.94900  1.0000
