data_image0
_chemical_formula_structural       Cu8Li12O48Ta12
_chemical_formula_sum              "Cu8 Li12 O48 Ta12"
_cell_length_a       9.89114
_cell_length_b       9.89114
_cell_length_c       9.89114
_cell_angle_alpha    109.471
_cell_angle_beta     109.471
_cell_angle_gamma    109.471

_space_group_name_H-M_alt    "P 1"
_space_group_IT_number       1

loop_
  _space_group_symop_operation_xyz
  'x, y, z'

loop_
  _atom_site_type_symbol
  _atom_site_label
  _atom_site_symmetry_multiplicity
  _atom_site_fract_x
  _atom_site_fract_y
  _atom_site_fract_z
  _atom_site_occupancy
  Cu  Cu1       1.0  0.00000  0.00000  0.00000  1.0000
  Cu  Cu2       1.0  0.50000  0.00000  0.00000  1.0000
  Cu  Cu3       1.0  0.00000  0.50000  0.00000  1.0000
  Cu  Cu4       1.0  0.50000  0.50000  0.00000  1.0000
  Cu  Cu5       1.0  0.00000  0.00000  0.50000  1.0000
  Cu  Cu6       1.0  0.50000  0.50000  0.50000  1.0000
  Cu  Cu7       1.0  0.50000  0.00000  0.50000  1.0000
  Cu  Cu8       1.0  0.00000  0.50000  0.50000  1.0000
  Li  Li1       1.0  0.75000  0.37500  0.12500  1.0000
  Li  Li2       1.0  0.87500  0.75000  0.12500  1.0000
  Li  Li3       1.0  0.12500  0.37500  0.25000  1.0000
  Li  Li4       1.0  0.62500  0.87500  0.25000  1.0000
  Li  Li5       1.0  0.25000  0.12500  0.37500  1.0000
  Li  Li6       1.0  0.62500  0.25000  0.37500  1.0000
  Li  Li7       1.0  0.37500  0.75000  0.62500  1.0000
  Li  Li8       1.0  0.75000  0.87500  0.62500  1.0000
  Li  Li9       1.0  0.37500  0.12500  0.75000  1.0000
  Li  Li10      1.0  0.87500  0.62500  0.75000  1.0000
  Li  Li11      1.0  0.25000  0.62500  0.87500  1.0000
  Li  Li12      1.0  0.12500  0.25000  0.87500  1.0000
  O   O1        1.0  0.32300  0.41400  0.04630  1.0000
  O   O2        1.0  0.22300  0.63200  0.04630  1.0000
  O   O3        1.0  0.95400  0.17700  0.08610  1.0000
  O   O4        1.0  0.63200  0.90900  0.08610  1.0000
  O   O5        1.0  0.72300  0.17700  0.09080  1.0000
  O   O6        1.0  0.86800  0.91400  0.09080  1.0000
  O   O7        1.0  0.04630  0.72300  0.13200  1.0000
  O   O8        1.0  0.58600  0.40900  0.13200  1.0000
  O   O9        1.0  0.45400  0.08610  0.17700  1.0000
  O   O10       1.0  0.22300  0.09080  0.17700  1.0000
  O   O11       1.0  0.13200  0.54600  0.22300  1.0000
  O   O12       1.0  0.59100  0.67700  0.22300  1.0000
  O   O13       1.0  0.45400  0.86800  0.27700  1.0000
  O   O14       1.0  0.32300  0.40900  0.27700  1.0000
  O   O15       1.0  0.91400  0.54600  0.32300  1.0000
  O   O16       1.0  0.90900  0.77700  0.32300  1.0000
  O   O17       1.0  0.59100  0.41400  0.36800  1.0000
  O   O18       1.0  0.27700  0.95400  0.36800  1.0000
  O   O19       1.0  0.82300  0.27700  0.40900  1.0000
  O   O20       1.0  0.08610  0.13200  0.40900  1.0000
  O   O21       1.0  0.82300  0.04630  0.41400  1.0000
  O   O22       1.0  0.09080  0.36800  0.41400  1.0000
  O   O23       1.0  0.58600  0.67700  0.45400  1.0000
  O   O24       1.0  0.36800  0.77700  0.45400  1.0000
  O   O25       1.0  0.41400  0.32300  0.54600  1.0000
  O   O26       1.0  0.63200  0.22300  0.54600  1.0000
  O   O27       1.0  0.90900  0.63200  0.58600  1.0000
  O   O28       1.0  0.17700  0.95400  0.58600  1.0000
  O   O29       1.0  0.91400  0.86800  0.59100  1.0000
  O   O30       1.0  0.17700  0.72300  0.59100  1.0000
  O   O31       1.0  0.72300  0.04630  0.63200  1.0000
  O   O32       1.0  0.40900  0.58600  0.63200  1.0000
  O   O33       1.0  0.09080  0.22300  0.67700  1.0000
  O   O34       1.0  0.08610  0.45400  0.67700  1.0000
  O   O35       1.0  0.67700  0.59100  0.72300  1.0000
  O   O36       1.0  0.54600  0.13200  0.72300  1.0000
  O   O37       1.0  0.40900  0.32300  0.77700  1.0000
  O   O38       1.0  0.86800  0.45400  0.77700  1.0000
  O   O39       1.0  0.77700  0.90900  0.82300  1.0000
  O   O40       1.0  0.54600  0.91400  0.82300  1.0000
  O   O41       1.0  0.95400  0.27700  0.86800  1.0000
  O   O42       1.0  0.41400  0.59100  0.86800  1.0000
  O   O43       1.0  0.13200  0.08610  0.90900  1.0000
  O   O44       1.0  0.27700  0.82300  0.90900  1.0000
  O   O45       1.0  0.36800  0.09080  0.91400  1.0000
  O   O46       1.0  0.04630  0.82300  0.91400  1.0000
  O   O47       1.0  0.67700  0.58600  0.95400  1.0000
  O   O48       1.0  0.77700  0.36800  0.95400  1.0000
  Ta  Ta1       1.0  0.37500  0.25000  0.12500  1.0000
  Ta  Ta2       1.0  0.25000  0.87500  0.12500  1.0000
  Ta  Ta3       1.0  0.37500  0.62500  0.25000  1.0000
  Ta  Ta4       1.0  0.87500  0.12500  0.25000  1.0000
  Ta  Ta5       1.0  0.75000  0.62500  0.37500  1.0000
  Ta  Ta6       1.0  0.12500  0.75000  0.37500  1.0000
  Ta  Ta7       1.0  0.87500  0.25000  0.62500  1.0000
  Ta  Ta8       1.0  0.25000  0.37500  0.62500  1.0000
  Ta  Ta9       1.0  0.62500  0.37500  0.75000  1.0000
  Ta  Ta10      1.0  0.12500  0.87500  0.75000  1.0000
  Ta  Ta11      1.0  0.75000  0.12500  0.87500  1.0000
  Ta  Ta12      1.0  0.62500  0.75000  0.87500  1.0000
