data_image0
_chemical_formula_structural       Mn6O18Pb6
_chemical_formula_sum              "Mn6 O18 Pb6"
_cell_length_a       5.45089
_cell_length_b       5.45089
_cell_length_c       13.5972
_cell_angle_alpha    90.7682
_cell_angle_beta     89.2318
_cell_angle_gamma    60.1837

_space_group_name_H-M_alt    "P 1"
_space_group_IT_number       1

loop_
  _space_group_symop_operation_xyz
  'x, y, z'

loop_
  _atom_site_type_symbol
  _atom_site_label
  _atom_site_symmetry_multiplicity
  _atom_site_fract_x
  _atom_site_fract_y
  _atom_site_fract_z
  _atom_site_occupancy
  Mn  Mn1       1.0  0.00000  0.00000  0.00000  1.0000
  Mn  Mn2       1.0  0.00000  1.00000  0.50000  1.0000
  Mn  Mn3       1.0  0.35000  0.32000  0.84500  1.0000
  Mn  Mn4       1.0  0.32000  0.35000  0.65500  1.0000
  Mn  Mn5       1.0  0.65000  0.68000  0.15500  1.0000
  Mn  Mn6       1.0  0.68000  0.65000  0.34500  1.0000
  O   O1        1.0  0.78900  0.38100  0.05990  1.0000
  O   O2        1.0  0.38100  0.78900  0.44000  1.0000
  O   O3        1.0  0.21100  0.61900  0.94000  1.0000
  O   O4        1.0  0.61900  0.21100  0.56000  1.0000
  O   O5        1.0  0.28200  0.88700  0.09850  1.0000
  O   O6        1.0  0.88700  0.28200  0.40200  1.0000
  O   O7        1.0  0.71800  0.11300  0.90200  1.0000
  O   O8        1.0  0.11300  0.71800  0.59800  1.0000
  O   O9        1.0  0.77900  0.89200  0.08180  1.0000
  O   O10       1.0  0.89200  0.77900  0.41800  1.0000
  O   O11       1.0  0.22100  0.10800  0.91800  1.0000
  O   O12       1.0  0.10800  0.22100  0.58200  1.0000
  O   O13       1.0  0.51000  0.96900  0.26300  1.0000
  O   O14       1.0  0.96900  0.51000  0.23700  1.0000
  O   O15       1.0  0.49000  0.03120  0.73700  1.0000
  O   O16       1.0  0.03120  0.49000  0.76300  1.0000
  O   O17       1.0  0.51000  0.51000  0.25000  1.0000
  O   O18       1.0  0.49000  0.49000  0.75000  1.0000
  Pb  Pb1       1.0  0.99800  0.99800  0.25000  1.0000
  Pb  Pb2       1.0  0.00236  0.00236  0.75000  1.0000
  Pb  Pb3       1.0  0.32800  0.33700  0.09070  1.0000
  Pb  Pb4       1.0  0.33700  0.32800  0.40900  1.0000
  Pb  Pb5       1.0  0.67200  0.66300  0.90900  1.0000
  Pb  Pb6       1.0  0.66300  0.67200  0.59100  1.0000
