data_image0
_chemical_formula_structural       Li2O6Ta2
_chemical_formula_sum              "Li2 O6 Ta2"
_cell_length_a       5.13869
_cell_length_b       5.13869
_cell_length_c       5.47096
_cell_angle_alpha    90
_cell_angle_beta     61.9895
_cell_angle_gamma    120

_space_group_name_H-M_alt    "P 1"
_space_group_IT_number       1

loop_
  _space_group_symop_operation_xyz
  'x, y, z'

loop_
  _atom_site_type_symbol
  _atom_site_label
  _atom_site_symmetry_multiplicity
  _atom_site_fract_x
  _atom_site_fract_y
  _atom_site_fract_z
  _atom_site_occupancy
  Li  Li1       1.0  0.43500  0.21700  0.34800  1.0000
  Li  Li2       1.0  0.43500  0.71700  0.84800  1.0000
  O   O1        1.0  0.90500  0.27500  0.20800  1.0000
  O   O2        1.0  0.51700  0.63100  0.20800  1.0000
  O   O3        1.0  0.16100  0.88600  0.20800  1.0000
  O   O4        1.0  0.90500  0.13100  0.70800  1.0000
  O   O5        1.0  0.51700  0.38600  0.70800  1.0000
  O   O6        1.0  0.16100  0.77500  0.70800  1.0000
  Ta  Ta1       1.0  0.00045  0.00023  0.99900  1.0000
  Ta  Ta2       1.0  0.00045  0.50000  0.49900  1.0000
