data_image0
_chemical_formula_structural       Br6Ti2
_chemical_formula_sum              "Br6 Ti2"
_cell_length_a       6.37156
_cell_length_b       6.36144
_cell_length_c       7.31821
_cell_angle_alpha    64.3373
_cell_angle_beta     64.3634
_cell_angle_gamma    59.9604

_space_group_name_H-M_alt    "P 1"
_space_group_IT_number       1

loop_
  _space_group_symop_operation_xyz
  'x, y, z'

loop_
  _atom_site_type_symbol
  _atom_site_label
  _atom_site_symmetry_multiplicity
  _atom_site_fract_x
  _atom_site_fract_y
  _atom_site_fract_z
  _atom_site_occupancy
  Br  Br1       1.0  0.57700  0.76600  0.23400  1.0000
  Br  Br2       1.0  0.92200  0.07780  0.23500  1.0000
  Br  Br3       1.0  0.26200  0.42000  0.24200  1.0000
  Br  Br4       1.0  0.73800  0.58000  0.75800  1.0000
  Br  Br5       1.0  0.07830  0.92200  0.76500  1.0000
  Br  Br6       1.0  0.42300  0.23400  0.76600  1.0000
  Ti  Ti1       1.0  0.33700  0.82400  0.00000  1.0000
  Ti  Ti2       1.0  0.66300  0.17600  0.00000  1.0000
