data_image0
_chemical_formula_structural       O2RbTl
_chemical_formula_sum              "O2 Rb1 Tl1"
_cell_length_a       3.50231
_cell_length_b       3.50231
_cell_length_c       6.66064
_cell_angle_alpha    105.243
_cell_angle_beta     105.243
_cell_angle_gamma    60

_space_group_name_H-M_alt    "P 1"
_space_group_IT_number       1

loop_
  _space_group_symop_operation_xyz
  'x, y, z'

loop_
  _atom_site_type_symbol
  _atom_site_label
  _atom_site_symmetry_multiplicity
  _atom_site_fract_x
  _atom_site_fract_y
  _atom_site_fract_z
  _atom_site_occupancy
  O   O1        1.0  0.72900  0.72900  0.18700  1.0000
  O   O2        1.0  0.27100  0.27100  0.81300  1.0000
  Rb  Rb1       1.0  0.50000  0.50000  0.50000  1.0000
  Tl  Tl1       1.0  0.00000  0.00000  0.00000  1.0000
