data_image0
_chemical_formula_structural       Li2O6Re2
_chemical_formula_sum              "Li2 O6 Re2"
_cell_length_a       5.0713
_cell_length_b       5.0713
_cell_length_c       5.36547
_cell_angle_alpha    118.202
_cell_angle_beta     118.202
_cell_angle_gamma    60

_space_group_name_H-M_alt    "P 1"
_space_group_IT_number       1

loop_
  _space_group_symop_operation_xyz
  'x, y, z'

loop_
  _atom_site_type_symbol
  _atom_site_label
  _atom_site_symmetry_multiplicity
  _atom_site_fract_x
  _atom_site_fract_y
  _atom_site_fract_z
  _atom_site_occupancy
  Li  Li1       1.0  0.71500  0.71500  0.14600  1.0000
  Li  Li2       1.0  0.21500  0.21500  0.64600  1.0000
  O   O1        1.0  0.37700  0.13200  0.27100  1.0000
  O   O2        1.0  0.76200  0.37700  0.27100  1.0000
  O   O3        1.0  0.13200  0.76200  0.27100  1.0000
  O   O4        1.0  0.87700  0.26200  0.77100  1.0000
  O   O5        1.0  0.26200  0.63200  0.77100  1.0000
  O   O6        1.0  0.63200  0.87700  0.77100  1.0000
  Re  Re1       1.0  0.00256  0.00256  0.00769  1.0000
  Re  Re2       1.0  0.50300  0.50300  0.50800  1.0000
