data_image0
_chemical_formula_structural       AlAs2Li3Mo2O14
_chemical_formula_sum              "Al1 As2 Li3 Mo2 O14"
_cell_length_a       5.16601
_cell_length_b       5.40688
_cell_length_c       9.40886
_cell_angle_alpha    95.8821
_cell_angle_beta     101.817
_cell_angle_gamma    106.296

_space_group_name_H-M_alt    "P 1"
_space_group_IT_number       1

loop_
  _space_group_symop_operation_xyz
  'x, y, z'

loop_
  _atom_site_type_symbol
  _atom_site_label
  _atom_site_symmetry_multiplicity
  _atom_site_fract_x
  _atom_site_fract_y
  _atom_site_fract_z
  _atom_site_occupancy
  Al  Al1       1.0  0.50000  0.00000  0.00000  1.0000
  As  As1       1.0  0.15200  0.22900  0.17600  1.0000
  As  As2       1.0  0.84800  0.77100  0.82400  1.0000
  Li  Li1       1.0  0.81200  0.61300  0.15400  1.0000
  Li  Li2       1.0  0.00000  0.50000  0.50000  1.0000
  Li  Li3       1.0  0.18800  0.38700  0.84600  1.0000
  Mo  Mo1       1.0  0.49700  0.83600  0.35400  1.0000
  Mo  Mo2       1.0  0.50300  0.16400  0.64600  1.0000
  O   O1        1.0  0.87300  0.20500  0.03430  1.0000
  O   O2        1.0  0.43600  0.29900  0.10100  1.0000
  O   O3        1.0  0.56500  0.86700  0.17600  1.0000
  O   O4        1.0  0.12800  0.97300  0.26800  1.0000
  O   O5        1.0  0.15100  0.50400  0.29000  1.0000
  O   O6        1.0  0.71900  0.66000  0.41200  1.0000
  O   O7        1.0  0.68100  0.16500  0.46200  1.0000
  O   O8        1.0  0.31900  0.83500  0.53800  1.0000
  O   O9        1.0  0.28100  0.34000  0.58800  1.0000
  O   O10       1.0  0.84900  0.49600  0.71000  1.0000
  O   O11       1.0  0.87200  0.02740  0.73200  1.0000
  O   O12       1.0  0.43500  0.13300  0.82400  1.0000
  O   O13       1.0  0.56400  0.70100  0.89900  1.0000
  O   O14       1.0  0.12700  0.79500  0.96600  1.0000
