data_image0
_chemical_formula_structural       Al14Au6Ce2
_chemical_formula_sum              "Al14 Au6 Ce2"
_cell_length_a       8.18206
_cell_length_b       8.18206
_cell_length_c       8.526
_cell_angle_alpha    90
_cell_angle_beta     118.674
_cell_angle_gamma    60

_space_group_name_H-M_alt    "P 1"
_space_group_IT_number       1

loop_
  _space_group_symop_operation_xyz
  'x, y, z'

loop_
  _atom_site_type_symbol
  _atom_site_label
  _atom_site_symmetry_multiplicity
  _atom_site_fract_x
  _atom_site_fract_y
  _atom_site_fract_z
  _atom_site_occupancy
  Al  Al1       1.0  0.73700  0.43200  0.08990  1.0000
  Al  Al2       1.0  0.92100  0.64700  0.08990  1.0000
  Al  Al3       1.0  0.52200  0.83200  0.08990  1.0000
  Al  Al4       1.0  0.50000  0.25000  0.25000  1.0000
  Al  Al5       1.0  0.07850  0.06830  0.41000  1.0000
  Al  Al6       1.0  0.26300  0.66800  0.41000  1.0000
  Al  Al7       1.0  0.47800  0.85300  0.41000  1.0000
  Al  Al8       1.0  0.52200  0.14700  0.59000  1.0000
  Al  Al9       1.0  0.73700  0.33200  0.59000  1.0000
  Al  Al10      1.0  0.92100  0.93200  0.59000  1.0000
  Al  Al11      1.0  0.50000  0.75000  0.75000  1.0000
  Al  Al12      1.0  0.47800  0.16800  0.91000  1.0000
  Al  Al13      1.0  0.07850  0.35300  0.91000  1.0000
  Al  Al14      1.0  0.26300  0.56800  0.91000  1.0000
  Au  Au1       1.0  0.18000  0.25000  0.25000  1.0000
  Au  Au2       1.0  0.50000  0.57000  0.25000  1.0000
  Au  Au3       1.0  0.82000  0.93000  0.25000  1.0000
  Au  Au4       1.0  0.18000  0.07000  0.75000  1.0000
  Au  Au5       1.0  0.50000  0.43000  0.75000  1.0000
  Au  Au6       1.0  0.82000  0.75000  0.75000  1.0000
  Ce  Ce1       1.0  0.00000  0.00000  0.00000  1.0000
  Ce  Ce2       1.0  0.00000  0.50000  0.50000  1.0000
