data_image0
_chemical_formula_structural       Mn2P4Rb4S12
_chemical_formula_sum              "Mn2 P4 Rb4 S12"
_cell_length_a       6.15449
_cell_length_b       12.4177
_cell_length_c       7.63633
_cell_angle_alpha    90
_cell_angle_beta     97.8351
_cell_angle_gamma    90

_space_group_name_H-M_alt    "P 1"
_space_group_IT_number       1

loop_
  _space_group_symop_operation_xyz
  'x, y, z'

loop_
  _atom_site_type_symbol
  _atom_site_label
  _atom_site_symmetry_multiplicity
  _atom_site_fract_x
  _atom_site_fract_y
  _atom_site_fract_z
  _atom_site_occupancy
  Mn  Mn1       1.0  0.50000  0.50000  0.00000  1.0000
  Mn  Mn2       1.0  0.00000  0.00000  0.50000  1.0000
  P   P1        1.0  0.96900  0.46000  0.12500  1.0000
  P   P2        1.0  0.53100  0.96000  0.37500  1.0000
  P   P3        1.0  0.46900  0.04040  0.62500  1.0000
  P   P4        1.0  0.03120  0.54000  0.87500  1.0000
  Rb  Rb1       1.0  0.22900  0.17400  0.02520  1.0000
  Rb  Rb2       1.0  0.27100  0.67400  0.47500  1.0000
  Rb  Rb3       1.0  0.72900  0.32600  0.52500  1.0000
  Rb  Rb4       1.0  0.77100  0.82600  0.97500  1.0000
  S   S1        1.0  0.76800  0.33300  0.04710  1.0000
  S   S2        1.0  0.27500  0.42400  0.24400  1.0000
  S   S3        1.0  0.79700  0.56900  0.25000  1.0000
  S   S4        1.0  0.70300  0.06900  0.25000  1.0000
  S   S5        1.0  0.22500  0.92400  0.25600  1.0000
  S   S6        1.0  0.73200  0.83300  0.45300  1.0000
  S   S7        1.0  0.26800  0.16700  0.54700  1.0000
  S   S8        1.0  0.77500  0.07600  0.74400  1.0000
  S   S9        1.0  0.29700  0.93100  0.75000  1.0000
  S   S10       1.0  0.20300  0.43100  0.75000  1.0000
  S   S11       1.0  0.72500  0.57600  0.75600  1.0000
  S   S12       1.0  0.23200  0.66700  0.95300  1.0000
