data_image0
_chemical_formula_structural       O6Sb2Tl2
_chemical_formula_sum              "O6 Sb2 Tl2"
_cell_length_a       7.63728
_cell_length_b       7.63728
_cell_length_c       7.63728
_cell_angle_alpha    41.1295
_cell_angle_beta     41.1295
_cell_angle_gamma    41.1295

_space_group_name_H-M_alt    "P 1"
_space_group_IT_number       1

loop_
  _space_group_symop_operation_xyz
  'x, y, z'

loop_
  _atom_site_type_symbol
  _atom_site_label
  _atom_site_symmetry_multiplicity
  _atom_site_fract_x
  _atom_site_fract_y
  _atom_site_fract_z
  _atom_site_occupancy
  O   O1        1.0  0.82900  0.44600  0.06340  1.0000
  O   O2        1.0  0.55400  0.93700  0.17100  1.0000
  O   O3        1.0  0.06340  0.82900  0.44600  1.0000
  O   O4        1.0  0.93700  0.17100  0.55400  1.0000
  O   O5        1.0  0.44600  0.06340  0.82900  1.0000
  O   O6        1.0  0.17100  0.55400  0.93700  1.0000
  Sb  Sb1       1.0  0.16700  0.16700  0.16700  1.0000
  Sb  Sb2       1.0  0.83300  0.83300  0.83300  1.0000
  Tl  Tl1       1.0  0.37300  0.37300  0.37300  1.0000
  Tl  Tl2       1.0  0.62700  0.62700  0.62700  1.0000
