data_image0
_chemical_formula_structural       O14Tl3V5
_chemical_formula_sum              "O14 Tl3 V5"
_cell_length_a       8.74698
_cell_length_b       8.74697
_cell_length_c       4.96876
_cell_angle_alpha    90.0002
_cell_angle_beta     89.9999
_cell_angle_gamma    120

_space_group_name_H-M_alt    "P 1"
_space_group_IT_number       1

loop_
  _space_group_symop_operation_xyz
  'x, y, z'

loop_
  _atom_site_type_symbol
  _atom_site_label
  _atom_site_symmetry_multiplicity
  _atom_site_fract_x
  _atom_site_fract_y
  _atom_site_fract_z
  _atom_site_occupancy
  O   O1        1.0  0.83000  0.83000  0.36000  1.0000
  O   O2        1.0  0.17000  0.00000  0.36000  1.0000
  O   O3        1.0  0.00000  0.17000  0.36000  1.0000
  O   O4        1.0  0.83300  0.53900  0.41800  1.0000
  O   O5        1.0  0.16700  0.70600  0.41800  1.0000
  O   O6        1.0  0.70600  0.16700  0.41800  1.0000
  O   O7        1.0  0.29400  0.46100  0.41800  1.0000
  O   O8        1.0  0.46100  0.29400  0.41800  1.0000
  O   O9        1.0  0.53900  0.83300  0.41800  1.0000
  O   O10       1.0  0.00000  0.75400  0.96300  1.0000
  O   O11       1.0  0.24600  0.24600  0.96300  1.0000
  O   O12       1.0  0.75400  0.00000  0.96300  1.0000
  O   O13       1.0  0.66700  0.33300  0.96400  1.0000
  O   O14       1.0  0.33300  0.66700  0.96400  1.0000
  Tl  Tl1       1.0  0.61100  0.61100  0.77700  1.0000
  Tl  Tl2       1.0  0.00000  0.38900  0.77700  1.0000
  Tl  Tl3       1.0  0.38900  0.00000  0.77700  1.0000
  V   V1        1.0  0.00000  0.77200  0.29000  1.0000
  V   V2        1.0  0.22800  0.22800  0.29000  1.0000
  V   V3        1.0  0.77200  0.00000  0.29000  1.0000
  V   V4        1.0  0.33300  0.66700  0.29800  1.0000
  V   V5        1.0  0.66700  0.33300  0.29800  1.0000
