data_image0
_chemical_formula_structural       Al2F14Na4Zn2
_chemical_formula_sum              "Al2 F14 Na4 Zn2"
_cell_length_a       6.95977
_cell_length_b       7.08047
_cell_length_c       7.08047
_cell_angle_alpha    90.2953
_cell_angle_beta     119.438
_cell_angle_gamma    60.5623

_space_group_name_H-M_alt    "P 1"
_space_group_IT_number       1

loop_
  _space_group_symop_operation_xyz
  'x, y, z'

loop_
  _atom_site_type_symbol
  _atom_site_label
  _atom_site_symmetry_multiplicity
  _atom_site_fract_x
  _atom_site_fract_y
  _atom_site_fract_z
  _atom_site_occupancy
  Al  Al1       1.0  0.50000  0.00000  0.00000  1.0000
  Al  Al2       1.0  0.50000  0.50000  0.50000  1.0000
  F   F1        1.0  0.25000  0.17300  0.05210  1.0000
  F   F2        1.0  0.62900  0.17300  0.05210  1.0000
  F   F3        1.0  0.88600  0.36400  0.13600  1.0000
  F   F4        1.0  0.72600  0.85800  0.31100  1.0000
  F   F5        1.0  0.25000  0.44800  0.32700  1.0000
  F   F6        1.0  0.62900  0.44800  0.32700  1.0000
  F   F7        1.0  0.27400  0.81100  0.35800  1.0000
  F   F8        1.0  0.72600  0.18900  0.64200  1.0000
  F   F9        1.0  0.37100  0.55200  0.67300  1.0000
  F   F10       1.0  0.75000  0.55200  0.67300  1.0000
  F   F11       1.0  0.27400  0.14200  0.68900  1.0000
  F   F12       1.0  0.11400  0.63600  0.86400  1.0000
  F   F13       1.0  0.37100  0.82700  0.94800  1.0000
  F   F14       1.0  0.75000  0.82700  0.94800  1.0000
  Na  Na1       1.0  0.00000  0.00000  0.00000  1.0000
  Na  Na2       1.0  0.00000  0.00000  0.50000  1.0000
  Na  Na3       1.0  0.50000  0.00000  0.50000  1.0000
  Na  Na4       1.0  0.00000  0.50000  0.50000  1.0000
  Zn  Zn1       1.0  0.00000  0.50000  0.00000  1.0000
  Zn  Zn2       1.0  0.50000  0.50000  0.00000  1.0000
