data_image0
_chemical_formula_structural       Ag6P14Sn2
_chemical_formula_sum              "Ag6 P14 Sn2"
_cell_length_a       6.42468
_cell_length_b       11.1818
_cell_length_c       6.58826
_cell_angle_alpha    90
_cell_angle_beta     108.273
_cell_angle_gamma    90

_space_group_name_H-M_alt    "P 1"
_space_group_IT_number       1

loop_
  _space_group_symop_operation_xyz
  'x, y, z'

loop_
  _atom_site_type_symbol
  _atom_site_label
  _atom_site_symmetry_multiplicity
  _atom_site_fract_x
  _atom_site_fract_y
  _atom_site_fract_z
  _atom_site_occupancy
  Ag  Ag1       1.0  0.69000  0.60200  0.31700  1.0000
  Ag  Ag2       1.0  0.69000  0.89800  0.31700  1.0000
  Ag  Ag3       1.0  0.07750  0.75000  0.32800  1.0000
  Ag  Ag4       1.0  0.92300  0.25000  0.67200  1.0000
  Ag  Ag5       1.0  0.31000  0.10200  0.68300  1.0000
  Ag  Ag6       1.0  0.31000  0.39800  0.68300  1.0000
  P   P1        1.0  0.83300  0.08030  0.15800  1.0000
  P   P2        1.0  0.83300  0.42000  0.15800  1.0000
  P   P3        1.0  0.27800  0.58900  0.19500  1.0000
  P   P4        1.0  0.27800  0.91100  0.19500  1.0000
  P   P5        1.0  0.73100  0.25000  0.27300  1.0000
  P   P6        1.0  0.19500  0.09020  0.28300  1.0000
  P   P7        1.0  0.19500  0.41000  0.28300  1.0000
  P   P8        1.0  0.80500  0.59000  0.71700  1.0000
  P   P9        1.0  0.80500  0.91000  0.71700  1.0000
  P   P10       1.0  0.26900  0.75000  0.72700  1.0000
  P   P11       1.0  0.72200  0.08890  0.80500  1.0000
  P   P12       1.0  0.72200  0.41100  0.80500  1.0000
  P   P13       1.0  0.16700  0.58000  0.84200  1.0000
  P   P14       1.0  0.16700  0.92000  0.84200  1.0000
  Sn  Sn1       1.0  0.30800  0.25000  0.04180  1.0000
  Sn  Sn2       1.0  0.69200  0.75000  0.95800  1.0000
