data_image0
_chemical_formula_structural       Eu4O14Pt4
_chemical_formula_sum              "Eu4 O14 Pt4"
_cell_length_a       7.29316
_cell_length_b       7.29316
_cell_length_c       7.29316
_cell_angle_alpha    120
_cell_angle_beta     90
_cell_angle_gamma    120

_space_group_name_H-M_alt    "P 1"
_space_group_IT_number       1

loop_
  _space_group_symop_operation_xyz
  'x, y, z'

loop_
  _atom_site_type_symbol
  _atom_site_label
  _atom_site_symmetry_multiplicity
  _atom_site_fract_x
  _atom_site_fract_y
  _atom_site_fract_z
  _atom_site_occupancy
  Eu  Eu1       1.0  0.00000  0.50000  0.00000  1.0000
  Eu  Eu2       1.0  0.00000  0.00000  0.50000  1.0000
  Eu  Eu3       1.0  0.50000  0.00000  0.50000  1.0000
  Eu  Eu4       1.0  0.00000  0.50000  0.50000  1.0000
  O   O1        1.0  0.42100  0.75000  0.07920  1.0000
  O   O2        1.0  0.82900  0.15800  0.07920  1.0000
  O   O3        1.0  0.82900  0.75000  0.07920  1.0000
  O   O4        1.0  0.17100  0.25000  0.32900  1.0000
  O   O5        1.0  0.57900  0.25000  0.32900  1.0000
  O   O6        1.0  0.57900  0.65800  0.32900  1.0000
  O   O7        1.0  0.12500  0.75000  0.37500  1.0000
  O   O8        1.0  0.87500  0.25000  0.62500  1.0000
  O   O9        1.0  0.82900  0.75000  0.67100  1.0000
  O   O10       1.0  0.42100  0.75000  0.67100  1.0000
  O   O11       1.0  0.42100  0.34200  0.67100  1.0000
  O   O12       1.0  0.57900  0.25000  0.92100  1.0000
  O   O13       1.0  0.17100  0.25000  0.92100  1.0000
  O   O14       1.0  0.17100  0.84200  0.92100  1.0000
  Pt  Pt1       1.0  0.00000  0.00000  0.00000  1.0000
  Pt  Pt2       1.0  0.50000  0.00000  0.00000  1.0000
  Pt  Pt3       1.0  0.50000  0.50000  0.00000  1.0000
  Pt  Pt4       1.0  0.50000  0.50000  0.50000  1.0000
