data_image0
_chemical_formula_structural       Fe4O10Rb8
_chemical_formula_sum              "Fe4 O10 Rb8"
_cell_length_a       7.10115
_cell_length_b       7.21986
_cell_length_c       9.45109
_cell_angle_alpha    95.1582
_cell_angle_beta     67.9337
_cell_angle_gamma    103.846

_space_group_name_H-M_alt    "P 1"
_space_group_IT_number       1

loop_
  _space_group_symop_operation_xyz
  'x, y, z'

loop_
  _atom_site_type_symbol
  _atom_site_label
  _atom_site_symmetry_multiplicity
  _atom_site_fract_x
  _atom_site_fract_y
  _atom_site_fract_z
  _atom_site_occupancy
  Fe  Fe1       1.0  0.69500  0.09400  0.30600  1.0000
  Fe  Fe2       1.0  0.99900  0.40600  0.30600  1.0000
  Fe  Fe3       1.0  0.00111  0.59400  0.69400  1.0000
  Fe  Fe4       1.0  0.30500  0.90600  0.69400  1.0000
  O   O1        1.0  0.20900  0.54600  0.15100  1.0000
  O   O2        1.0  0.64000  0.95400  0.15100  1.0000
  O   O3        1.0  0.98300  0.13200  0.29100  1.0000
  O   O4        1.0  0.72600  0.36800  0.29100  1.0000
  O   O5        1.0  0.50000  0.00000  0.50000  1.0000
  O   O6        1.0  0.00000  0.50000  0.50000  1.0000
  O   O7        1.0  0.27400  0.63200  0.70900  1.0000
  O   O8        1.0  0.01710  0.86800  0.70900  1.0000
  O   O9        1.0  0.36000  0.04570  0.84900  1.0000
  O   O10       1.0  0.79100  0.45400  0.84900  1.0000
  Rb  Rb1       1.0  0.97800  0.75000  0.04420  1.0000
  Rb  Rb2       1.0  0.46200  0.25000  0.07530  1.0000
  Rb  Rb3       1.0  0.46800  0.61300  0.36000  1.0000
  Rb  Rb4       1.0  0.17300  0.88700  0.36000  1.0000
  Rb  Rb5       1.0  0.82700  0.11300  0.64000  1.0000
  Rb  Rb6       1.0  0.53200  0.38700  0.64000  1.0000
  Rb  Rb7       1.0  0.53800  0.75000  0.92500  1.0000
  Rb  Rb8       1.0  0.02210  0.25000  0.95600  1.0000
