data_image0
_chemical_formula_structural       Al14Au6Nd2
_chemical_formula_sum              "Al14 Au6 Nd2"
_cell_length_a       8.15529
_cell_length_b       8.15529
_cell_length_c       8.49769
_cell_angle_alpha    90
_cell_angle_beta     118.676
_cell_angle_gamma    120

_space_group_name_H-M_alt    "P 1"
_space_group_IT_number       1

loop_
  _space_group_symop_operation_xyz
  'x, y, z'

loop_
  _atom_site_type_symbol
  _atom_site_label
  _atom_site_symmetry_multiplicity
  _atom_site_fract_x
  _atom_site_fract_y
  _atom_site_fract_z
  _atom_site_occupancy
  Al  Al1       1.0  0.73700  0.16800  0.08990  1.0000
  Al  Al2       1.0  0.52100  0.35300  0.08990  1.0000
  Al  Al3       1.0  0.92200  0.56900  0.08990  1.0000
  Al  Al4       1.0  0.50000  0.75000  0.25000  1.0000
  Al  Al5       1.0  0.07830  0.14700  0.41000  1.0000
  Al  Al6       1.0  0.47900  0.33200  0.41000  1.0000
  Al  Al7       1.0  0.26300  0.93100  0.41000  1.0000
  Al  Al8       1.0  0.73700  0.06860  0.59000  1.0000
  Al  Al9       1.0  0.52100  0.66800  0.59000  1.0000
  Al  Al10      1.0  0.92200  0.85300  0.59000  1.0000
  Al  Al11      1.0  0.50000  0.25000  0.75000  1.0000
  Al  Al12      1.0  0.07830  0.43100  0.91000  1.0000
  Al  Al13      1.0  0.47900  0.64700  0.91000  1.0000
  Al  Al14      1.0  0.26300  0.83200  0.91000  1.0000
  Au  Au1       1.0  0.50000  0.07130  0.25000  1.0000
  Au  Au2       1.0  0.17900  0.42900  0.25000  1.0000
  Au  Au3       1.0  0.82100  0.75000  0.25000  1.0000
  Au  Au4       1.0  0.17900  0.25000  0.75000  1.0000
  Au  Au5       1.0  0.82100  0.57100  0.75000  1.0000
  Au  Au6       1.0  0.50000  0.92900  0.75000  1.0000
  Nd  Nd1       1.0  0.00000  0.00000  0.00000  1.0000
  Nd  Nd2       1.0  0.00000  0.50000  0.50000  1.0000
