data_image0
_chemical_formula_structural       Bi12Mn6Sm4
_chemical_formula_sum              "Bi12 Mn6 Sm4"
_cell_length_a       10.3085
_cell_length_b       4.45075
_cell_length_c       13.2856
_cell_angle_alpha    90
_cell_angle_beta     106.752
_cell_angle_gamma    90

_space_group_name_H-M_alt    "P 1"
_space_group_IT_number       1

loop_
  _space_group_symop_operation_xyz
  'x, y, z'

loop_
  _atom_site_type_symbol
  _atom_site_label
  _atom_site_symmetry_multiplicity
  _atom_site_fract_x
  _atom_site_fract_y
  _atom_site_fract_z
  _atom_site_occupancy
  Bi  Bi1       1.0  0.08270  0.25000  0.07870  1.0000
  Bi  Bi2       1.0  0.47500  0.25000  0.10700  1.0000
  Bi  Bi3       1.0  0.82500  0.75000  0.21100  1.0000
  Bi  Bi4       1.0  0.27200  0.75000  0.25600  1.0000
  Bi  Bi5       1.0  0.62100  0.75000  0.46300  1.0000
  Bi  Bi6       1.0  0.88200  0.25000  0.48900  1.0000
  Bi  Bi7       1.0  0.11800  0.75000  0.51100  1.0000
  Bi  Bi8       1.0  0.37900  0.25000  0.53700  1.0000
  Bi  Bi9       1.0  0.72800  0.25000  0.74400  1.0000
  Bi  Bi10      1.0  0.17500  0.25000  0.78900  1.0000
  Bi  Bi11      1.0  0.52500  0.75000  0.89300  1.0000
  Bi  Bi12      1.0  0.91700  0.75000  0.92100  1.0000
  Mn  Mn1       1.0  0.53700  0.75000  0.23800  1.0000
  Mn  Mn2       1.0  0.70200  0.25000  0.28700  1.0000
  Mn  Mn3       1.0  0.46100  0.25000  0.33900  1.0000
  Mn  Mn4       1.0  0.53900  0.75000  0.66100  1.0000
  Mn  Mn5       1.0  0.29800  0.75000  0.71300  1.0000
  Mn  Mn6       1.0  0.46300  0.25000  0.76200  1.0000
  Sm  Sm1       1.0  0.74700  0.25000  0.01820  1.0000
  Sm  Sm2       1.0  0.06560  0.25000  0.32100  1.0000
  Sm  Sm3       1.0  0.93400  0.75000  0.67900  1.0000
  Sm  Sm4       1.0  0.25300  0.75000  0.98200  1.0000
