data_image0
_chemical_formula_structural       O14V4Y4
_chemical_formula_sum              "O14 V4 Y4"
_cell_length_a       7.08966
_cell_length_b       7.08966
_cell_length_c       7.08966
_cell_angle_alpha    120
_cell_angle_beta     90
_cell_angle_gamma    120

_space_group_name_H-M_alt    "P 1"
_space_group_IT_number       1

loop_
  _space_group_symop_operation_xyz
  'x, y, z'

loop_
  _atom_site_type_symbol
  _atom_site_label
  _atom_site_symmetry_multiplicity
  _atom_site_fract_x
  _atom_site_fract_y
  _atom_site_fract_z
  _atom_site_occupancy
  O   O1        1.0  0.37500  0.25000  0.12500  1.0000
  O   O2        1.0  0.91900  0.75000  0.16900  1.0000
  O   O3        1.0  0.33100  0.75000  0.16900  1.0000
  O   O4        1.0  0.91900  0.33700  0.16900  1.0000
  O   O5        1.0  0.66900  0.83700  0.41900  1.0000
  O   O6        1.0  0.66900  0.25000  0.41900  1.0000
  O   O7        1.0  0.08130  0.25000  0.41900  1.0000
  O   O8        1.0  0.33100  0.75000  0.58100  1.0000
  O   O9        1.0  0.91900  0.75000  0.58100  1.0000
  O   O10       1.0  0.33100  0.16300  0.58100  1.0000
  O   O11       1.0  0.66900  0.25000  0.83100  1.0000
  O   O12       1.0  0.08130  0.66300  0.83100  1.0000
  O   O13       1.0  0.08130  0.25000  0.83100  1.0000
  O   O14       1.0  0.62500  0.75000  0.87500  1.0000
  V   V1        1.0  0.00000  0.50000  0.00000  1.0000
  V   V2        1.0  0.00000  0.50000  0.50000  1.0000
  V   V3        1.0  0.00000  0.00000  0.50000  1.0000
  V   V4        1.0  0.50000  0.00000  0.50000  1.0000
  Y   Y1        1.0  0.00000  0.00000  0.00000  1.0000
  Y   Y2        1.0  0.50000  0.00000  0.00000  1.0000
  Y   Y3        1.0  0.50000  0.50000  0.00000  1.0000
  Y   Y4        1.0  0.50000  0.50000  0.50000  1.0000
