data_image0
_chemical_formula_structural       Ag4In4S12Si2
_chemical_formula_sum              "Ag4 In4 S12 Si2"
_cell_length_a       7.15333
_cell_length_b       7.15333
_cell_length_c       12.2882
_cell_angle_alpha    106.583
_cell_angle_beta     73.4169
_cell_angle_gamma    119.028

_space_group_name_H-M_alt    "P 1"
_space_group_IT_number       1

loop_
  _space_group_symop_operation_xyz
  'x, y, z'

loop_
  _atom_site_type_symbol
  _atom_site_label
  _atom_site_symmetry_multiplicity
  _atom_site_fract_x
  _atom_site_fract_y
  _atom_site_fract_z
  _atom_site_occupancy
  Ag  Ag1       1.0  0.01140  0.80800  0.26300  1.0000
  Ag  Ag2       1.0  0.19000  0.39100  0.42100  1.0000
  Ag  Ag3       1.0  0.19200  0.98900  0.76300  1.0000
  Ag  Ag4       1.0  0.60900  0.81000  0.92100  1.0000
  In  In1       1.0  0.48600  0.32200  0.06880  1.0000
  In  In2       1.0  0.69800  0.17700  0.26700  1.0000
  In  In3       1.0  0.67800  0.51400  0.56900  1.0000
  In  In4       1.0  0.82300  0.30200  0.76700  1.0000
  S   S1        1.0  0.88500  0.59300  0.06100  1.0000
  S   S2        1.0  0.89400  0.09660  0.06610  1.0000
  S   S3        1.0  0.34900  0.59400  0.08410  1.0000
  S   S4        1.0  0.35100  0.17100  0.25200  1.0000
  S   S5        1.0  0.64300  0.84600  0.32700  1.0000
  S   S6        1.0  0.93800  0.52300  0.38100  1.0000
  S   S7        1.0  0.40700  0.11500  0.56100  1.0000
  S   S8        1.0  0.90300  0.10600  0.56600  1.0000
  S   S9        1.0  0.40600  0.65100  0.58400  1.0000
  S   S10       1.0  0.82900  0.64900  0.75200  1.0000
  S   S11       1.0  0.15400  0.35700  0.82700  1.0000
  S   S12       1.0  0.47700  0.06180  0.88100  1.0000
  Si  Si1       1.0  0.05890  0.40200  0.01020  1.0000
  Si  Si2       1.0  0.59800  0.94100  0.51000  1.0000
