data_image0
_chemical_formula_structural       Mo2O14Se2Zn4
_chemical_formula_sum              "Mo2 O14 Se2 Zn4"
_cell_length_a       5.16184
_cell_length_b       8.23774
_cell_length_c       7.12734
_cell_angle_alpha    90
_cell_angle_beta     98.465
_cell_angle_gamma    90

_space_group_name_H-M_alt    "P 1"
_space_group_IT_number       1

loop_
  _space_group_symop_operation_xyz
  'x, y, z'

loop_
  _atom_site_type_symbol
  _atom_site_label
  _atom_site_symmetry_multiplicity
  _atom_site_fract_x
  _atom_site_fract_y
  _atom_site_fract_z
  _atom_site_occupancy
  Mo  Mo1       1.0  0.06980  0.53100  0.01250  1.0000
  Mo  Mo2       1.0  0.93000  0.03110  0.98800  1.0000
  O   O1        1.0  0.25200  0.71400  0.04350  1.0000
  O   O2        1.0  0.72400  0.87000  0.04410  1.0000
  O   O3        1.0  0.20600  0.05530  0.17500  1.0000
  O   O4        1.0  0.96700  0.47900  0.23200  1.0000
  O   O5        1.0  0.70200  0.05970  0.36700  1.0000
  O   O6        1.0  0.23100  0.83500  0.45400  1.0000
  O   O7        1.0  0.66600  0.71100  0.45500  1.0000
  O   O8        1.0  0.33400  0.21100  0.54500  1.0000
  O   O9        1.0  0.76900  0.33500  0.54600  1.0000
  O   O10       1.0  0.29800  0.56000  0.63300  1.0000
  O   O11       1.0  0.03320  0.97900  0.76800  1.0000
  O   O12       1.0  0.79400  0.55500  0.82500  1.0000
  O   O13       1.0  0.27600  0.37000  0.95600  1.0000
  O   O14       1.0  0.74800  0.21400  0.95600  1.0000
  Se  Se1       1.0  0.53900  0.24500  0.37400  1.0000
  Se  Se2       1.0  0.46100  0.74500  0.62600  1.0000
  Zn  Zn1       1.0  0.47100  0.86100  0.23000  1.0000
  Zn  Zn2       1.0  0.94200  0.54500  0.49400  1.0000
  Zn  Zn3       1.0  0.05850  0.04510  0.50600  1.0000
  Zn  Zn4       1.0  0.52900  0.36100  0.77000  1.0000
