data_image0
_chemical_formula_structural       I12O2Sr8
_chemical_formula_sum              "I12 O2 Sr8"
_cell_length_a       10.5908
_cell_length_b       10.5908
_cell_length_c       8.16235
_cell_angle_alpha    90
_cell_angle_beta     90
_cell_angle_gamma    120

_space_group_name_H-M_alt    "P 1"
_space_group_IT_number       1

loop_
  _space_group_symop_operation_xyz
  'x, y, z'

loop_
  _atom_site_type_symbol
  _atom_site_label
  _atom_site_symmetry_multiplicity
  _atom_site_fract_x
  _atom_site_fract_y
  _atom_site_fract_z
  _atom_site_occupancy
  I   I1        1.0  0.46400  0.92800  0.18200  1.0000
  I   I2        1.0  0.07200  0.53600  0.18200  1.0000
  I   I3        1.0  0.46400  0.53600  0.18200  1.0000
  I   I4        1.0  0.86400  0.13600  0.36400  1.0000
  I   I5        1.0  0.27200  0.13600  0.36400  1.0000
  I   I6        1.0  0.86400  0.72800  0.36400  1.0000
  I   I7        1.0  0.53600  0.07200  0.68200  1.0000
  I   I8        1.0  0.53600  0.46400  0.68200  1.0000
  I   I9        1.0  0.92800  0.46400  0.68200  1.0000
  I   I10       1.0  0.72800  0.86400  0.86400  1.0000
  I   I11       1.0  0.13600  0.86400  0.86400  1.0000
  I   I12       1.0  0.13600  0.27200  0.86400  1.0000
  O   O1        1.0  0.66700  0.33300  0.08200  1.0000
  O   O2        1.0  0.33300  0.66700  0.58200  1.0000
  Sr  Sr1       1.0  0.66700  0.33300  0.37700  1.0000
  Sr  Sr2       1.0  0.20700  0.41400  0.48900  1.0000
  Sr  Sr3       1.0  0.58600  0.79300  0.48900  1.0000
  Sr  Sr4       1.0  0.20700  0.79300  0.48900  1.0000
  Sr  Sr5       1.0  0.33300  0.66700  0.87700  1.0000
  Sr  Sr6       1.0  0.79300  0.58600  0.98900  1.0000
  Sr  Sr7       1.0  0.41400  0.20700  0.98900  1.0000
  Sr  Sr8       1.0  0.79300  0.20700  0.98900  1.0000
