data_image0
_chemical_formula_structural       B6K2O12Zn2
_chemical_formula_sum              "B6 K2 O12 Zn2"
_cell_length_a       6.66238
_cell_length_b       6.90464
_cell_length_c       7.05532
_cell_angle_alpha    63.1848
_cell_angle_beta     71.0076
_cell_angle_gamma    68.4211

_space_group_name_H-M_alt    "P 1"
_space_group_IT_number       1

loop_
  _space_group_symop_operation_xyz
  'x, y, z'

loop_
  _atom_site_type_symbol
  _atom_site_label
  _atom_site_symmetry_multiplicity
  _atom_site_fract_x
  _atom_site_fract_y
  _atom_site_fract_z
  _atom_site_occupancy
  B   B1        1.0  0.09850  0.49200  0.09390  1.0000
  B   B2        1.0  0.29500  0.68300  0.17100  1.0000
  B   B3        1.0  0.24500  0.31300  0.43400  1.0000
  B   B4        1.0  0.75500  0.68700  0.56600  1.0000
  B   B5        1.0  0.70500  0.31700  0.82900  1.0000
  B   B6        1.0  0.90100  0.50800  0.90600  1.0000
  K   K1        1.0  0.74500  0.20500  0.42200  1.0000
  K   K2        1.0  0.25500  0.79500  0.57800  1.0000
  O   O1        1.0  0.19800  0.67300  0.03320  1.0000
  O   O2        1.0  0.85500  0.58000  0.09000  1.0000
  O   O3        1.0  0.36300  0.86400  0.12800  1.0000
  O   O4        1.0  0.14300  0.30700  0.29600  1.0000
  O   O5        1.0  0.32300  0.50300  0.36900  1.0000
  O   O6        1.0  0.72200  0.86000  0.38000  1.0000
  O   O7        1.0  0.27800  0.14000  0.62000  1.0000
  O   O8        1.0  0.67700  0.49700  0.63100  1.0000
  O   O9        1.0  0.85700  0.69300  0.70400  1.0000
  O   O10       1.0  0.63700  0.13600  0.87200  1.0000
  O   O11       1.0  0.14500  0.42000  0.91000  1.0000
  O   O12       1.0  0.80200  0.32700  0.96700  1.0000
  Zn  Zn1       1.0  0.67400  0.85800  0.13000  1.0000
  Zn  Zn2       1.0  0.32600  0.14200  0.87000  1.0000
