data_image0
_chemical_formula_structural       In8Pd4Tm10
_chemical_formula_sum              "In8 Pd4 Tm10"
_cell_length_a       18.0488
_cell_length_b       7.99585
_cell_length_c       3.60243
_cell_angle_alpha    90
_cell_angle_beta     90
_cell_angle_gamma    90

_space_group_name_H-M_alt    "P 1"
_space_group_IT_number       1

loop_
  _space_group_symop_operation_xyz
  'x, y, z'

loop_
  _atom_site_type_symbol
  _atom_site_label
  _atom_site_symmetry_multiplicity
  _atom_site_fract_x
  _atom_site_fract_y
  _atom_site_fract_z
  _atom_site_occupancy
  In  In1       1.0  0.85100  0.08110  0.50000  1.0000
  In  In2       1.0  0.56800  0.21100  0.50000  1.0000
  In  In3       1.0  0.06770  0.28900  0.50000  1.0000
  In  In4       1.0  0.35100  0.41900  0.50000  1.0000
  In  In5       1.0  0.64900  0.58100  0.50000  1.0000
  In  In6       1.0  0.93200  0.71100  0.50000  1.0000
  In  In7       1.0  0.43200  0.78900  0.50000  1.0000
  In  In8       1.0  0.14900  0.91900  0.50000  1.0000
  Pd  Pd1       1.0  0.30400  0.02380  0.50000  1.0000
  Pd  Pd2       1.0  0.80400  0.47600  0.50000  1.0000
  Pd  Pd3       1.0  0.19600  0.52400  0.50000  1.0000
  Pd  Pd4       1.0  0.69600  0.97600  0.50000  1.0000
  Tm  Tm1       1.0  0.00000  0.00000  0.00000  1.0000
  Tm  Tm2       1.0  0.41700  0.11500  0.00000  1.0000
  Tm  Tm3       1.0  0.22000  0.23900  0.00000  1.0000
  Tm  Tm4       1.0  0.72000  0.26100  0.00000  1.0000
  Tm  Tm5       1.0  0.91700  0.38500  0.00000  1.0000
  Tm  Tm6       1.0  0.50000  0.50000  0.00000  1.0000
  Tm  Tm7       1.0  0.08290  0.61500  0.00000  1.0000
  Tm  Tm8       1.0  0.28000  0.73900  0.00000  1.0000
  Tm  Tm9       1.0  0.78000  0.76100  0.00000  1.0000
  Tm  Tm10      1.0  0.58300  0.88500  0.00000  1.0000
