data_image0
_chemical_formula_structural       Cl18P2Re2
_chemical_formula_sum              "Cl18 P2 Re2"
_cell_length_a       9.01768
_cell_length_b       9.50813
_cell_length_c       6.90403
_cell_angle_alpha    95.5668
_cell_angle_beta     95.7634
_cell_angle_gamma    101.096

_space_group_name_H-M_alt    "P 1"
_space_group_IT_number       1

loop_
  _space_group_symop_operation_xyz
  'x, y, z'

loop_
  _atom_site_type_symbol
  _atom_site_label
  _atom_site_symmetry_multiplicity
  _atom_site_fract_x
  _atom_site_fract_y
  _atom_site_fract_z
  _atom_site_occupancy
  Cl  Cl1       1.0  0.80400  0.41700  0.05920  1.0000
  Cl  Cl2       1.0  0.28300  0.24200  0.06500  1.0000
  Cl  Cl3       1.0  0.39300  0.88500  0.15700  1.0000
  Cl  Cl4       1.0  0.89400  0.12100  0.15900  1.0000
  Cl  Cl5       1.0  0.05630  0.77000  0.25700  1.0000
  Cl  Cl6       1.0  0.51600  0.54900  0.28400  1.0000
  Cl  Cl7       1.0  0.58100  0.21900  0.37400  1.0000
  Cl  Cl8       1.0  0.16300  0.44200  0.41800  1.0000
  Cl  Cl9       1.0  0.76000  0.86900  0.48200  1.0000
  Cl  Cl10      1.0  0.24000  0.13100  0.51800  1.0000
  Cl  Cl11      1.0  0.83700  0.55800  0.58200  1.0000
  Cl  Cl12      1.0  0.41900  0.78100  0.62600  1.0000
  Cl  Cl13      1.0  0.48400  0.45100  0.71600  1.0000
  Cl  Cl14      1.0  0.94400  0.23000  0.74300  1.0000
  Cl  Cl15      1.0  0.10600  0.87900  0.84100  1.0000
  Cl  Cl16      1.0  0.60700  0.11500  0.84300  1.0000
  Cl  Cl17      1.0  0.71700  0.75800  0.93500  1.0000
  Cl  Cl18      1.0  0.19600  0.58300  0.94100  1.0000
  P   P1        1.0  0.18900  0.77900  0.04890  1.0000
  P   P2        1.0  0.81100  0.22100  0.95100  1.0000
  Re  Re1       1.0  0.37000  0.32900  0.38900  1.0000
  Re  Re2       1.0  0.63000  0.67100  0.61100  1.0000
