data_image0
_chemical_formula_structural       Li2Mn2O14P4
_chemical_formula_sum              "Li2 Mn2 O14 P4"
_cell_length_a       6.98385
_cell_length_b       8.09723
_cell_length_c       4.71317
_cell_angle_alpha    90
_cell_angle_beta     110.158
_cell_angle_gamma    90

_space_group_name_H-M_alt    "P 1"
_space_group_IT_number       1

loop_
  _space_group_symop_operation_xyz
  'x, y, z'

loop_
  _atom_site_type_symbol
  _atom_site_label
  _atom_site_symmetry_multiplicity
  _atom_site_fract_x
  _atom_site_fract_y
  _atom_site_fract_z
  _atom_site_occupancy
  Li  Li1       1.0  0.19000  0.87300  0.18600  1.0000
  Li  Li2       1.0  0.81000  0.37300  0.81400  1.0000
  Mn  Mn1       1.0  0.23200  0.24300  0.22300  1.0000
  Mn  Mn2       1.0  0.76800  0.74300  0.77700  1.0000
  O   O1        1.0  0.35700  0.42300  0.09320  1.0000
  O   O2        1.0  0.38500  0.04300  0.11100  1.0000
  O   O3        1.0  0.97500  0.71400  0.19400  1.0000
  O   O4        1.0  0.98800  0.39800  0.24400  1.0000
  O   O5        1.0  0.58900  0.79800  0.36800  1.0000
  O   O6        1.0  0.11400  0.06360  0.38500  1.0000
  O   O7        1.0  0.75200  0.08760  0.39300  1.0000
  O   O8        1.0  0.24800  0.58800  0.60700  1.0000
  O   O9        1.0  0.88600  0.56400  0.61500  1.0000
  O   O10       1.0  0.41100  0.29800  0.63200  1.0000
  O   O11       1.0  0.01240  0.89800  0.75600  1.0000
  O   O12       1.0  0.02460  0.21400  0.80600  1.0000
  O   O13       1.0  0.61500  0.54300  0.88900  1.0000
  O   O14       1.0  0.64300  0.92300  0.90700  1.0000
  P   P1        1.0  0.58800  0.95600  0.18900  1.0000
  P   P2        1.0  0.01070  0.56300  0.40200  1.0000
  P   P3        1.0  0.98900  0.06270  0.59800  1.0000
  P   P4        1.0  0.41200  0.45600  0.81100  1.0000
