data_image0
_chemical_formula_structural       O14Rb4W4
_chemical_formula_sum              "O14 Rb4 W4"
_cell_length_a       3.94781
_cell_length_b       13.963
_cell_length_c       6.06455
_cell_angle_alpha    90
_cell_angle_beta     90.5055
_cell_angle_gamma    90

_space_group_name_H-M_alt    "P 1"
_space_group_IT_number       1

loop_
  _space_group_symop_operation_xyz
  'x, y, z'

loop_
  _atom_site_type_symbol
  _atom_site_label
  _atom_site_symmetry_multiplicity
  _atom_site_fract_x
  _atom_site_fract_y
  _atom_site_fract_z
  _atom_site_occupancy
  O   O1        1.0  0.50000  0.00000  0.00000  1.0000
  O   O2        1.0  0.50600  0.41900  0.08900  1.0000
  O   O3        1.0  0.50600  0.18500  0.19200  1.0000
  O   O4        1.0  0.98800  0.55500  0.22300  1.0000
  O   O5        1.0  0.01180  0.05480  0.27700  1.0000
  O   O6        1.0  0.49400  0.68500  0.30800  1.0000
  O   O7        1.0  0.49400  0.91900  0.41100  1.0000
  O   O8        1.0  0.50000  0.50000  0.50000  1.0000
  O   O9        1.0  0.50600  0.08070  0.58900  1.0000
  O   O10       1.0  0.50600  0.31500  0.69200  1.0000
  O   O11       1.0  0.98800  0.94500  0.72300  1.0000
  O   O12       1.0  0.01180  0.44500  0.77700  1.0000
  O   O13       1.0  0.49400  0.81500  0.80800  1.0000
  O   O14       1.0  0.49400  0.58100  0.91100  1.0000
  Rb  Rb1       1.0  0.98800  0.82600  0.16900  1.0000
  Rb  Rb2       1.0  0.01180  0.32600  0.33100  1.0000
  Rb  Rb3       1.0  0.98800  0.67400  0.66900  1.0000
  Rb  Rb4       1.0  0.01180  0.17400  0.83100  1.0000
  W   W1        1.0  0.44700  0.56400  0.21600  1.0000
  W   W2        1.0  0.55300  0.06420  0.28400  1.0000
  W   W3        1.0  0.44700  0.93600  0.71600  1.0000
  W   W4        1.0  0.55300  0.43600  0.78400  1.0000
