data_image0
_chemical_formula_structural       K4O14U4
_chemical_formula_sum              "K4 O14 U4"
_cell_length_a       7.01027
_cell_length_b       7.9325
_cell_length_c       6.88891
_cell_angle_alpha    90
_cell_angle_beta     110.449
_cell_angle_gamma    90

_space_group_name_H-M_alt    "P 1"
_space_group_IT_number       1

loop_
  _space_group_symop_operation_xyz
  'x, y, z'

loop_
  _atom_site_type_symbol
  _atom_site_label
  _atom_site_symmetry_multiplicity
  _atom_site_fract_x
  _atom_site_fract_y
  _atom_site_fract_z
  _atom_site_occupancy
  K   K1        1.0  0.97300  0.24100  0.49100  1.0000
  K   K2        1.0  0.48000  0.50300  0.49800  1.0000
  K   K3        1.0  0.52000  0.00323  0.50200  1.0000
  K   K4        1.0  0.02670  0.74100  0.50900  1.0000
  O   O1        1.0  0.72200  0.08720  0.00071  1.0000
  O   O2        1.0  0.87000  0.75400  0.01960  1.0000
  O   O3        1.0  0.34800  0.97500  0.02240  1.0000
  O   O4        1.0  0.56400  0.26200  0.28000  1.0000
  O   O5        1.0  0.07620  0.48400  0.28200  1.0000
  O   O6        1.0  0.63100  0.74100  0.29500  1.0000
  O   O7        1.0  0.11700  0.00294  0.29800  1.0000
  O   O8        1.0  0.88300  0.50300  0.70200  1.0000
  O   O9        1.0  0.36900  0.24100  0.70500  1.0000
  O   O10       1.0  0.92400  0.98400  0.71800  1.0000
  O   O11       1.0  0.43600  0.76200  0.72000  1.0000
  O   O12       1.0  0.65200  0.47500  0.97800  1.0000
  O   O13       1.0  0.13000  0.25400  0.98000  1.0000
  O   O14       1.0  0.27800  0.58700  0.99900  1.0000
  U   U1        1.0  0.53500  0.74900  0.00741  1.0000
  U   U2        1.0  0.02020  0.99600  0.00785  1.0000
  U   U3        1.0  0.98000  0.49600  0.99200  1.0000
  U   U4        1.0  0.46500  0.24900  0.99300  1.0000
