data_image0
_chemical_formula_structural       Gd6O14Os2
_chemical_formula_sum              "Gd6 O14 Os2"
_cell_length_a       6.43792
_cell_length_b       6.43792
_cell_length_c       7.40338
_cell_angle_alpha    90
_cell_angle_beta     90
_cell_angle_gamma    69.3042

_space_group_name_H-M_alt    "P 1"
_space_group_IT_number       1

loop_
  _space_group_symop_operation_xyz
  'x, y, z'

loop_
  _atom_site_type_symbol
  _atom_site_label
  _atom_site_symmetry_multiplicity
  _atom_site_fract_x
  _atom_site_fract_y
  _atom_site_fract_z
  _atom_site_occupancy
  Gd  Gd1       1.0  0.00000  0.00000  0.00000  1.0000
  Gd  Gd2       1.0  0.47700  0.07340  0.25000  1.0000
  Gd  Gd3       1.0  0.92700  0.52300  0.25000  1.0000
  Gd  Gd4       1.0  0.00000  0.00000  0.50000  1.0000
  Gd  Gd5       1.0  0.07340  0.47700  0.75000  1.0000
  Gd  Gd6       1.0  0.52300  0.92700  0.75000  1.0000
  O   O1        1.0  0.18100  0.56400  0.03950  1.0000
  O   O2        1.0  0.43600  0.81900  0.03950  1.0000
  O   O3        1.0  0.10900  0.15700  0.25000  1.0000
  O   O4        1.0  0.59200  0.40800  0.25000  1.0000
  O   O5        1.0  0.84300  0.89100  0.25000  1.0000
  O   O6        1.0  0.18100  0.56400  0.46100  1.0000
  O   O7        1.0  0.43600  0.81900  0.46100  1.0000
  O   O8        1.0  0.56400  0.18100  0.53900  1.0000
  O   O9        1.0  0.81900  0.43600  0.53900  1.0000
  O   O10       1.0  0.15700  0.10900  0.75000  1.0000
  O   O11       1.0  0.40800  0.59200  0.75000  1.0000
  O   O12       1.0  0.89100  0.84300  0.75000  1.0000
  O   O13       1.0  0.56400  0.18100  0.96100  1.0000
  O   O14       1.0  0.81900  0.43600  0.96100  1.0000
  Os  Os1       1.0  0.50000  0.50000  0.00000  1.0000
  Os  Os2       1.0  0.50000  0.50000  0.50000  1.0000
