data_image0
_chemical_formula_structural       Er10In8Pd4
_chemical_formula_sum              "Er10 In8 Pd4"
_cell_length_a       18.1214
_cell_length_b       8.02036
_cell_length_c       3.61922
_cell_angle_alpha    90
_cell_angle_beta     90
_cell_angle_gamma    90

_space_group_name_H-M_alt    "P 1"
_space_group_IT_number       1

loop_
  _space_group_symop_operation_xyz
  'x, y, z'

loop_
  _atom_site_type_symbol
  _atom_site_label
  _atom_site_symmetry_multiplicity
  _atom_site_fract_x
  _atom_site_fract_y
  _atom_site_fract_z
  _atom_site_occupancy
  Er  Er1       1.0  0.00000  0.00000  0.00000  1.0000
  Er  Er2       1.0  0.41700  0.11500  0.00000  1.0000
  Er  Er3       1.0  0.22000  0.23900  0.00000  1.0000
  Er  Er4       1.0  0.72000  0.26100  0.00000  1.0000
  Er  Er5       1.0  0.91700  0.38500  0.00000  1.0000
  Er  Er6       1.0  0.50000  0.50000  0.00000  1.0000
  Er  Er7       1.0  0.08250  0.61500  0.00000  1.0000
  Er  Er8       1.0  0.28000  0.73900  0.00000  1.0000
  Er  Er9       1.0  0.78000  0.76100  0.00000  1.0000
  Er  Er10      1.0  0.58300  0.88500  0.00000  1.0000
  In  In1       1.0  0.85100  0.08130  0.50000  1.0000
  In  In2       1.0  0.56800  0.21200  0.50000  1.0000
  In  In3       1.0  0.06830  0.28800  0.50000  1.0000
  In  In4       1.0  0.35100  0.41900  0.50000  1.0000
  In  In5       1.0  0.64900  0.58100  0.50000  1.0000
  In  In6       1.0  0.93200  0.71200  0.50000  1.0000
  In  In7       1.0  0.43200  0.78800  0.50000  1.0000
  In  In8       1.0  0.14900  0.91900  0.50000  1.0000
  Pd  Pd1       1.0  0.30500  0.02400  0.50000  1.0000
  Pd  Pd2       1.0  0.80500  0.47600  0.50000  1.0000
  Pd  Pd3       1.0  0.19500  0.52400  0.50000  1.0000
  Pd  Pd4       1.0  0.69500  0.97600  0.50000  1.0000
