data_image0
_chemical_formula_structural       Eu4O14Ta4
_chemical_formula_sum              "Eu4 O14 Ta4"
_cell_length_a       3.92206
_cell_length_b       5.61183
_cell_length_c       13.5927
_cell_angle_alpha    90
_cell_angle_beta     81.705
_cell_angle_gamma    90

_space_group_name_H-M_alt    "P 1"
_space_group_IT_number       1

loop_
  _space_group_symop_operation_xyz
  'x, y, z'

loop_
  _atom_site_type_symbol
  _atom_site_label
  _atom_site_symmetry_multiplicity
  _atom_site_fract_x
  _atom_site_fract_y
  _atom_site_fract_z
  _atom_site_occupancy
  Eu  Eu1       1.0  0.44600  0.25000  0.10900  1.0000
  Eu  Eu2       1.0  0.28400  0.75000  0.43200  1.0000
  Eu  Eu3       1.0  0.71600  0.25000  0.56800  1.0000
  Eu  Eu4       1.0  0.55400  0.75000  0.89100  1.0000
  O   O1        1.0  0.00000  0.00000  0.00000  1.0000
  O   O2        1.0  0.00000  0.50000  0.00000  1.0000
  O   O3        1.0  0.45400  0.75000  0.09170  1.0000
  O   O4        1.0  0.90000  0.01370  0.19900  1.0000
  O   O5        1.0  0.90000  0.48600  0.19900  1.0000
  O   O6        1.0  0.35000  0.25000  0.30000  1.0000
  O   O7        1.0  0.79000  0.00648  0.41900  1.0000
  O   O8        1.0  0.79000  0.49400  0.41900  1.0000
  O   O9        1.0  0.21000  0.50600  0.58100  1.0000
  O   O10       1.0  0.21000  0.99400  0.58100  1.0000
  O   O11       1.0  0.65000  0.75000  0.70000  1.0000
  O   O12       1.0  0.09970  0.51400  0.80100  1.0000
  O   O13       1.0  0.09970  0.98600  0.80100  1.0000
  O   O14       1.0  0.54600  0.25000  0.90800  1.0000
  Ta  Ta1       1.0  0.94500  0.75000  0.11000  1.0000
  Ta  Ta2       1.0  0.83900  0.25000  0.32300  1.0000
  Ta  Ta3       1.0  0.16100  0.75000  0.67700  1.0000
  Ta  Ta4       1.0  0.05490  0.25000  0.89000  1.0000
