data_image0
_chemical_formula_structural       B14Dy6Re2
_chemical_formula_sum              "B14 Dy6 Re2"
_cell_length_a       3.53287
_cell_length_b       8.08071
_cell_length_c       9.34603
_cell_angle_alpha    90
_cell_angle_beta     90
_cell_angle_gamma    77.3733

_space_group_name_H-M_alt    "P 1"
_space_group_IT_number       1

loop_
  _space_group_symop_operation_xyz
  'x, y, z'

loop_
  _atom_site_type_symbol
  _atom_site_label
  _atom_site_symmetry_multiplicity
  _atom_site_fract_x
  _atom_site_fract_y
  _atom_site_fract_z
  _atom_site_occupancy
  B   B1        1.0  0.27300  0.45400  0.03320  1.0000
  B   B2        1.0  0.47900  0.04120  0.09540  1.0000
  B   B3        1.0  0.36800  0.26400  0.15100  1.0000
  B   B4        1.0  0.54300  0.91400  0.25000  1.0000
  B   B5        1.0  0.36800  0.26400  0.34900  1.0000
  B   B6        1.0  0.47900  0.04120  0.40500  1.0000
  B   B7        1.0  0.27300  0.45400  0.46700  1.0000
  B   B8        1.0  0.72700  0.54600  0.53300  1.0000
  B   B9        1.0  0.52100  0.95900  0.59500  1.0000
  B   B10       1.0  0.63200  0.73600  0.65100  1.0000
  B   B11       1.0  0.45700  0.08590  0.75000  1.0000
  B   B12       1.0  0.63200  0.73600  0.84900  1.0000
  B   B13       1.0  0.52100  0.95900  0.90500  1.0000
  B   B14       1.0  0.72700  0.54600  0.96700  1.0000
  Dy  Dy1       1.0  0.10500  0.78900  0.05990  1.0000
  Dy  Dy2       1.0  0.75800  0.48500  0.25000  1.0000
  Dy  Dy3       1.0  0.10500  0.78900  0.44000  1.0000
  Dy  Dy4       1.0  0.89500  0.21100  0.56000  1.0000
  Dy  Dy5       1.0  0.24200  0.51500  0.75000  1.0000
  Dy  Dy6       1.0  0.89500  0.21100  0.94000  1.0000
  Re  Re1       1.0  0.94700  0.10600  0.25000  1.0000
  Re  Re2       1.0  0.05320  0.89400  0.75000  1.0000
