data_image0
_chemical_formula_structural       Br8Pd8Te6
_chemical_formula_sum              "Br8 Pd8 Te6"
_cell_length_a       8.52017
_cell_length_b       8.53049
_cell_length_c       8.77982
_cell_angle_alpha    82.478
_cell_angle_beta     73.5393
_cell_angle_gamma    88.3552

_space_group_name_H-M_alt    "P 1"
_space_group_IT_number       1

loop_
  _space_group_symop_operation_xyz
  'x, y, z'

loop_
  _atom_site_type_symbol
  _atom_site_label
  _atom_site_symmetry_multiplicity
  _atom_site_fract_x
  _atom_site_fract_y
  _atom_site_fract_z
  _atom_site_occupancy
  Br  Br1       1.0  0.12800  0.73500  0.01110  1.0000
  Br  Br2       1.0  0.71600  0.54100  0.30100  1.0000
  Br  Br3       1.0  0.34100  0.78100  0.31900  1.0000
  Br  Br4       1.0  0.89100  0.97500  0.35300  1.0000
  Br  Br5       1.0  0.10900  0.02460  0.64700  1.0000
  Br  Br6       1.0  0.65900  0.21900  0.68100  1.0000
  Br  Br7       1.0  0.28400  0.45900  0.69900  1.0000
  Br  Br8       1.0  0.87200  0.26500  0.98900  1.0000
  Pd  Pd1       1.0  0.20700  0.44500  0.00371  1.0000
  Pd  Pd2       1.0  0.42100  0.78600  0.01050  1.0000
  Pd  Pd3       1.0  0.42300  0.48600  0.29700  1.0000
  Pd  Pd4       1.0  0.18400  0.07620  0.33700  1.0000
  Pd  Pd5       1.0  0.81600  0.92400  0.66300  1.0000
  Pd  Pd6       1.0  0.57700  0.51400  0.70300  1.0000
  Pd  Pd7       1.0  0.57900  0.21400  0.99000  1.0000
  Pd  Pd8       1.0  0.79300  0.55500  0.99600  1.0000
  Te  Te1       1.0  0.27800  0.15000  0.02450  1.0000
  Te  Te2       1.0  0.48000  0.19100  0.29500  1.0000
  Te  Te3       1.0  0.14100  0.38600  0.30700  1.0000
  Te  Te4       1.0  0.85900  0.61400  0.69300  1.0000
  Te  Te5       1.0  0.52000  0.80900  0.70500  1.0000
  Te  Te6       1.0  0.72200  0.85000  0.97600  1.0000
