data_image0
_chemical_formula_structural       Cs2Cu6Se10Tm4
_chemical_formula_sum              "Cs2 Cu6 Se10 Tm4"
_cell_length_a       4.10515
_cell_length_b       7.61812
_cell_length_c       17.224
_cell_angle_alpha    90
_cell_angle_beta     90
_cell_angle_gamma    74.3695

_space_group_name_H-M_alt    "P 1"
_space_group_IT_number       1

loop_
  _space_group_symop_operation_xyz
  'x, y, z'

loop_
  _atom_site_type_symbol
  _atom_site_label
  _atom_site_symmetry_multiplicity
  _atom_site_fract_x
  _atom_site_fract_y
  _atom_site_fract_z
  _atom_site_occupancy
  Cs  Cs1       1.0  0.93900  0.12200  0.25000  1.0000
  Cs  Cs2       1.0  0.06120  0.87800  0.75000  1.0000
  Cu  Cu1       1.0  0.41700  0.16600  0.03340  1.0000
  Cu  Cu2       1.0  0.65500  0.69000  0.25000  1.0000
  Cu  Cu3       1.0  0.41700  0.16600  0.46700  1.0000
  Cu  Cu4       1.0  0.58300  0.83400  0.53300  1.0000
  Cu  Cu5       1.0  0.34500  0.31000  0.75000  1.0000
  Cu  Cu6       1.0  0.58300  0.83400  0.96700  1.0000
  Se  Se1       1.0  0.83000  0.34000  0.07010  1.0000
  Se  Se2       1.0  0.56300  0.87400  0.11200  1.0000
  Se  Se3       1.0  0.23800  0.52300  0.25000  1.0000
  Se  Se4       1.0  0.56300  0.87400  0.38800  1.0000
  Se  Se5       1.0  0.83000  0.34000  0.43000  1.0000
  Se  Se6       1.0  0.17000  0.66000  0.57000  1.0000
  Se  Se7       1.0  0.43700  0.12600  0.61200  1.0000
  Se  Se8       1.0  0.76200  0.47700  0.75000  1.0000
  Se  Se9       1.0  0.43700  0.12600  0.88800  1.0000
  Se  Se10      1.0  0.17000  0.66000  0.93000  1.0000
  Tm  Tm1       1.0  0.19200  0.61500  0.09180  1.0000
  Tm  Tm2       1.0  0.19200  0.61500  0.40800  1.0000
  Tm  Tm3       1.0  0.80800  0.38500  0.59200  1.0000
  Tm  Tm4       1.0  0.80800  0.38500  0.90800  1.0000
