data_image0
_chemical_formula_structural       Br4Ce8Ga10
_chemical_formula_sum              "Br4 Ce8 Ga10"
_cell_length_a       4.27455
_cell_length_b       11.6408
_cell_length_c       11.6408
_cell_angle_alpha    93.3935
_cell_angle_beta     90
_cell_angle_gamma    90

_space_group_name_H-M_alt    "P 1"
_space_group_IT_number       1

loop_
  _space_group_symop_operation_xyz
  'x, y, z'

loop_
  _atom_site_type_symbol
  _atom_site_label
  _atom_site_symmetry_multiplicity
  _atom_site_fract_x
  _atom_site_fract_y
  _atom_site_fract_z
  _atom_site_occupancy
  Br  Br1       1.0  0.50000  0.12400  0.12400  1.0000
  Br  Br2       1.0  0.00000  0.82700  0.17300  1.0000
  Br  Br3       1.0  0.00000  0.17300  0.82700  1.0000
  Br  Br4       1.0  0.50000  0.87600  0.87600  1.0000
  Ce  Ce1       1.0  0.50000  0.67500  0.04010  1.0000
  Ce  Ce2       1.0  0.00000  0.26900  0.26900  1.0000
  Ce  Ce3       1.0  0.50000  0.96000  0.32500  1.0000
  Ce  Ce4       1.0  0.00000  0.63300  0.36700  1.0000
  Ce  Ce5       1.0  0.00000  0.36700  0.63300  1.0000
  Ce  Ce6       1.0  0.50000  0.04010  0.67500  1.0000
  Ce  Ce7       1.0  0.00000  0.73100  0.73100  1.0000
  Ce  Ce8       1.0  0.50000  0.32500  0.96000  1.0000
  Ga  Ga1       1.0  0.00000  0.46500  0.10100  1.0000
  Ga  Ga2       1.0  0.50000  0.48700  0.21800  1.0000
  Ga  Ga3       1.0  0.50000  0.42100  0.42100  1.0000
  Ga  Ga4       1.0  0.00000  0.10100  0.46500  1.0000
  Ga  Ga5       1.0  0.50000  0.21800  0.48700  1.0000
  Ga  Ga6       1.0  0.50000  0.78200  0.51300  1.0000
  Ga  Ga7       1.0  0.00000  0.89900  0.53500  1.0000
  Ga  Ga8       1.0  0.50000  0.57900  0.57900  1.0000
  Ga  Ga9       1.0  0.50000  0.51300  0.78200  1.0000
  Ga  Ga10      1.0  0.00000  0.53500  0.89900  1.0000
