data_image0
_chemical_formula_structural       Ba4O14U4
_chemical_formula_sum              "Ba4 O14 U4"
_cell_length_a       8.14199
_cell_length_b       8.14199
_cell_length_c       8.14199
_cell_angle_alpha    91.8206
_cell_angle_beta     119.437
_cell_angle_gamma    118.474

_space_group_name_H-M_alt    "P 1"
_space_group_IT_number       1

loop_
  _space_group_symop_operation_xyz
  'x, y, z'

loop_
  _atom_site_type_symbol
  _atom_site_label
  _atom_site_symmetry_multiplicity
  _atom_site_fract_x
  _atom_site_fract_y
  _atom_site_fract_z
  _atom_site_occupancy
  Ba  Ba1       1.0  0.00000  0.00000  0.00000  1.0000
  Ba  Ba2       1.0  0.50000  0.00000  0.00000  1.0000
  Ba  Ba3       1.0  0.00000  0.50000  0.00000  1.0000
  Ba  Ba4       1.0  0.00000  0.50000  0.50000  1.0000
  O   O1        1.0  0.72200  0.40000  0.12200  1.0000
  O   O2        1.0  0.27800  0.90000  0.17800  1.0000
  O   O3        1.0  0.35400  0.40600  0.19500  1.0000
  O   O4        1.0  0.78900  0.84100  0.19500  1.0000
  O   O5        1.0  0.17800  0.25000  0.42800  1.0000
  O   O6        1.0  0.35400  0.65900  0.44800  1.0000
  O   O7        1.0  0.78900  0.09410  0.44800  1.0000
  O   O8        1.0  0.21100  0.90600  0.55200  1.0000
  O   O9        1.0  0.64600  0.34100  0.55200  1.0000
  O   O10       1.0  0.82200  0.75000  0.57200  1.0000
  O   O11       1.0  0.21100  0.15900  0.80500  1.0000
  O   O12       1.0  0.64600  0.59400  0.80500  1.0000
  O   O13       1.0  0.72200  0.09980  0.82200  1.0000
  O   O14       1.0  0.27800  0.60000  0.87800  1.0000
  U   U1        1.0  0.50000  0.50000  0.00000  1.0000
  U   U2        1.0  0.00000  0.00000  0.50000  1.0000
  U   U3        1.0  0.50000  0.50000  0.50000  1.0000
  U   U4        1.0  0.50000  0.00000  0.50000  1.0000
