data_image0
_chemical_formula_structural       Au6Ga14Yb2
_chemical_formula_sum              "Au6 Ga14 Yb2"
_cell_length_a       8.23501
_cell_length_b       8.23502
_cell_length_c       8.51576
_cell_angle_alpha    90
_cell_angle_beta     118.915
_cell_angle_gamma    60

_space_group_name_H-M_alt    "P 1"
_space_group_IT_number       1

loop_
  _space_group_symop_operation_xyz
  'x, y, z'

loop_
  _atom_site_type_symbol
  _atom_site_label
  _atom_site_symmetry_multiplicity
  _atom_site_fract_x
  _atom_site_fract_y
  _atom_site_fract_z
  _atom_site_occupancy
  Au  Au1       1.0  0.81900  0.25000  0.25000  1.0000
  Au  Au2       1.0  0.50000  0.93100  0.25000  1.0000
  Au  Au3       1.0  0.18100  0.56900  0.25000  1.0000
  Au  Au4       1.0  0.81900  0.43100  0.75000  1.0000
  Au  Au5       1.0  0.50000  0.06900  0.75000  1.0000
  Au  Au6       1.0  0.18100  0.75000  0.75000  1.0000
  Ga  Ga1       1.0  0.92600  0.42800  0.09600  1.0000
  Ga  Ga2       1.0  0.74200  0.83000  0.09600  1.0000
  Ga  Ga3       1.0  0.52400  0.64600  0.09600  1.0000
  Ga  Ga4       1.0  0.50000  0.25000  0.25000  1.0000
  Ga  Ga5       1.0  0.47600  0.67000  0.40400  1.0000
  Ga  Ga6       1.0  0.25800  0.07190  0.40400  1.0000
  Ga  Ga7       1.0  0.07410  0.85400  0.40400  1.0000
  Ga  Ga8       1.0  0.92600  0.14600  0.59600  1.0000
  Ga  Ga9       1.0  0.74200  0.92800  0.59600  1.0000
  Ga  Ga10      1.0  0.52400  0.33000  0.59600  1.0000
  Ga  Ga11      1.0  0.50000  0.75000  0.75000  1.0000
  Ga  Ga12      1.0  0.47600  0.35400  0.90400  1.0000
  Ga  Ga13      1.0  0.25800  0.17000  0.90400  1.0000
  Ga  Ga14      1.0  0.07410  0.57200  0.90400  1.0000
  Yb  Yb1       1.0  0.00000  0.00000  0.00000  1.0000
  Yb  Yb2       1.0  0.00000  0.50000  0.50000  1.0000
