data_image0
_chemical_formula_structural       Br12Gd8Si2
_chemical_formula_sum              "Br12 Gd8 Si2"
_cell_length_a       13.3181
_cell_length_b       14.1081
_cell_length_c       4.09192
_cell_angle_alpha    90
_cell_angle_beta     90
_cell_angle_gamma    90

_space_group_name_H-M_alt    "P 1"
_space_group_IT_number       1

loop_
  _space_group_symop_operation_xyz
  'x, y, z'

loop_
  _atom_site_type_symbol
  _atom_site_label
  _atom_site_symmetry_multiplicity
  _atom_site_fract_x
  _atom_site_fract_y
  _atom_site_fract_z
  _atom_site_occupancy
  Br  Br1       1.0  0.75600  0.09000  0.00000  1.0000
  Br  Br2       1.0  0.00015  0.24300  0.00000  1.0000
  Br  Br3       1.0  0.50000  0.25700  0.00000  1.0000
  Br  Br4       1.0  0.25600  0.41000  0.00000  1.0000
  Br  Br5       1.0  0.74400  0.59000  0.00000  1.0000
  Br  Br6       1.0  0.50000  0.74300  0.00000  1.0000
  Br  Br7       1.0  0.00000  0.75700  0.00000  1.0000
  Br  Br8       1.0  0.24400  0.91000  0.00000  1.0000
  Br  Br9       1.0  0.24200  0.16100  0.50000  1.0000
  Br  Br10      1.0  0.74200  0.33900  0.50000  1.0000
  Br  Br11      1.0  0.25800  0.66100  0.50000  1.0000
  Br  Br12      1.0  0.75800  0.83900  0.50000  1.0000
  Gd  Gd1       1.0  0.38100  0.07810  0.00000  1.0000
  Gd  Gd2       1.0  0.88100  0.42200  0.00000  1.0000
  Gd  Gd3       1.0  0.11900  0.57800  0.00000  1.0000
  Gd  Gd4       1.0  0.61900  0.92200  0.00000  1.0000
  Gd  Gd5       1.0  0.61800  0.16000  0.50000  1.0000
  Gd  Gd6       1.0  0.11800  0.34000  0.50000  1.0000
  Gd  Gd7       1.0  0.88200  0.66000  0.50000  1.0000
  Gd  Gd8       1.0  0.38200  0.84000  0.50000  1.0000
  Si  Si1       1.0  0.50000  0.00000  0.50000  1.0000
  Si  Si2       1.0  0.00000  0.50000  0.50000  1.0000
