data_image0
_chemical_formula_structural       Cl16Nb6
_chemical_formula_sum              "Cl16 Nb6"
_cell_length_a       6.78259
_cell_length_b       6.78143
_cell_length_c       12.4908
_cell_angle_alpha    90
_cell_angle_beta     89.982
_cell_angle_gamma    119.994

_space_group_name_H-M_alt    "P 1"
_space_group_IT_number       1

loop_
  _space_group_symop_operation_xyz
  'x, y, z'

loop_
  _atom_site_type_symbol
  _atom_site_label
  _atom_site_symmetry_multiplicity
  _atom_site_fract_x
  _atom_site_fract_y
  _atom_site_fract_z
  _atom_site_occupancy
  Cl  Cl1       1.0  0.66700  0.33300  0.09960  1.0000
  Cl  Cl2       1.0  0.16400  0.32900  0.13800  1.0000
  Cl  Cl3       1.0  0.16400  0.83600  0.13800  1.0000
  Cl  Cl4       1.0  0.67100  0.83600  0.13800  1.0000
  Cl  Cl5       1.0  0.33300  0.66700  0.35400  1.0000
  Cl  Cl6       1.0  0.33700  0.16800  0.37800  1.0000
  Cl  Cl7       1.0  0.83200  0.66300  0.37800  1.0000
  Cl  Cl8       1.0  0.83200  0.16800  0.37800  1.0000
  Cl  Cl9       1.0  0.16800  0.83200  0.62200  1.0000
  Cl  Cl10      1.0  0.16800  0.33700  0.62200  1.0000
  Cl  Cl11      1.0  0.66300  0.83200  0.62200  1.0000
  Cl  Cl12      1.0  0.66700  0.33300  0.64600  1.0000
  Cl  Cl13      1.0  0.32900  0.16400  0.86200  1.0000
  Cl  Cl14      1.0  0.83600  0.16400  0.86200  1.0000
  Cl  Cl15      1.0  0.83600  0.67100  0.86200  1.0000
  Cl  Cl16      1.0  0.33300  0.66700  0.90000  1.0000
  Nb  Nb1       1.0  0.52800  0.47200  0.24700  1.0000
  Nb  Nb2       1.0  0.52800  0.05610  0.24700  1.0000
  Nb  Nb3       1.0  0.94400  0.47200  0.24700  1.0000
  Nb  Nb4       1.0  0.05610  0.52800  0.75300  1.0000
  Nb  Nb5       1.0  0.47200  0.52800  0.75300  1.0000
  Nb  Nb6       1.0  0.47200  0.94400  0.75300  1.0000
