data_image0
_chemical_formula_structural       Cs4Mn2P4Se12
_chemical_formula_sum              "Cs4 Mn2 P4 Se12"
_cell_length_a       6.48066
_cell_length_b       13.2132
_cell_length_c       8.12132
_cell_angle_alpha    90
_cell_angle_beta     93.2337
_cell_angle_gamma    90

_space_group_name_H-M_alt    "P 1"
_space_group_IT_number       1

loop_
  _space_group_symop_operation_xyz
  'x, y, z'

loop_
  _atom_site_type_symbol
  _atom_site_label
  _atom_site_symmetry_multiplicity
  _atom_site_fract_x
  _atom_site_fract_y
  _atom_site_fract_z
  _atom_site_occupancy
  Cs  Cs1       1.0  0.24600  0.82900  0.02470  1.0000
  Cs  Cs2       1.0  0.25400  0.32900  0.47500  1.0000
  Cs  Cs3       1.0  0.74600  0.67100  0.52500  1.0000
  Cs  Cs4       1.0  0.75400  0.17100  0.97500  1.0000
  Mn  Mn1       1.0  0.50000  0.50000  0.00000  1.0000
  Mn  Mn2       1.0  0.00000  0.00000  0.50000  1.0000
  P   P1        1.0  0.95600  0.53900  0.11700  1.0000
  P   P2        1.0  0.54400  0.03910  0.38300  1.0000
  P   P3        1.0  0.45600  0.96100  0.61700  1.0000
  P   P4        1.0  0.04420  0.46100  0.88300  1.0000
  Se  Se1       1.0  0.75700  0.66700  0.03340  1.0000
  Se  Se2       1.0  0.25500  0.57800  0.24100  1.0000
  Se  Se3       1.0  0.76600  0.42700  0.24300  1.0000
  Se  Se4       1.0  0.73400  0.92700  0.25700  1.0000
  Se  Se5       1.0  0.24500  0.07800  0.25900  1.0000
  Se  Se6       1.0  0.74300  0.16700  0.46700  1.0000
  Se  Se7       1.0  0.25700  0.83300  0.53300  1.0000
  Se  Se8       1.0  0.75500  0.92200  0.74100  1.0000
  Se  Se9       1.0  0.26600  0.07260  0.74300  1.0000
  Se  Se10      1.0  0.23400  0.57300  0.75700  1.0000
  Se  Se11      1.0  0.74500  0.42200  0.75900  1.0000
  Se  Se12      1.0  0.24300  0.33300  0.96700  1.0000
