data_image0
_chemical_formula_structural       Al6Ca16
_chemical_formula_sum              "Al6 Ca16"
_cell_length_a       9.44431
_cell_length_b       9.5412
_cell_length_c       9.6188
_cell_angle_alpha    99.0313
_cell_angle_beta     101.111
_cell_angle_gamma    119.591

_space_group_name_H-M_alt    "P 1"
_space_group_IT_number       1

loop_
  _space_group_symop_operation_xyz
  'x, y, z'

loop_
  _atom_site_type_symbol
  _atom_site_label
  _atom_site_symmetry_multiplicity
  _atom_site_fract_x
  _atom_site_fract_y
  _atom_site_fract_z
  _atom_site_occupancy
  Al  Al1       1.0  0.00000  0.50000  0.00000  1.0000
  Al  Al2       1.0  0.67600  0.84100  0.02740  1.0000
  Al  Al3       1.0  0.82700  0.66200  0.50000  1.0000
  Al  Al4       1.0  0.50000  0.00000  0.50000  1.0000
  Al  Al5       1.0  0.17300  0.33800  0.50000  1.0000
  Al  Al6       1.0  0.32400  0.15900  0.97300  1.0000
  Ca  Ca1       1.0  0.08020  0.23000  0.10700  1.0000
  Ca  Ca2       1.0  0.70100  0.49800  0.10900  1.0000
  Ca  Ca3       1.0  0.33300  0.87900  0.10900  1.0000
  Ca  Ca4       1.0  0.54700  0.71300  0.29900  1.0000
  Ca  Ca5       1.0  0.77600  0.15300  0.30000  1.0000
  Ca  Ca6       1.0  0.04220  0.93900  0.33100  1.0000
  Ca  Ca7       1.0  0.47000  0.30000  0.35000  1.0000
  Ca  Ca8       1.0  0.12100  0.59800  0.35100  1.0000
  Ca  Ca9       1.0  0.87900  0.40200  0.64900  1.0000
  Ca  Ca10      1.0  0.53000  0.70000  0.65000  1.0000
  Ca  Ca11      1.0  0.95800  0.06070  0.66900  1.0000
  Ca  Ca12      1.0  0.22400  0.84700  0.70000  1.0000
  Ca  Ca13      1.0  0.45300  0.28700  0.70100  1.0000
  Ca  Ca14      1.0  0.66700  0.12100  0.89100  1.0000
  Ca  Ca15      1.0  0.29900  0.50200  0.89100  1.0000
  Ca  Ca16      1.0  0.92000  0.77000  0.89300  1.0000
