data_image0
_chemical_formula_structural       In8Pd4Tb10
_chemical_formula_sum              "In8 Pd4 Tb10"
_cell_length_a       18.327
_cell_length_b       8.08035
_cell_length_c       3.66956
_cell_angle_alpha    90
_cell_angle_beta     90
_cell_angle_gamma    90

_space_group_name_H-M_alt    "P 1"
_space_group_IT_number       1

loop_
  _space_group_symop_operation_xyz
  'x, y, z'

loop_
  _atom_site_type_symbol
  _atom_site_label
  _atom_site_symmetry_multiplicity
  _atom_site_fract_x
  _atom_site_fract_y
  _atom_site_fract_z
  _atom_site_occupancy
  In  In1       1.0  0.85000  0.07700  0.50000  1.0000
  In  In2       1.0  0.56900  0.21000  0.50000  1.0000
  In  In3       1.0  0.06880  0.29000  0.50000  1.0000
  In  In4       1.0  0.35000  0.42300  0.50000  1.0000
  In  In5       1.0  0.65000  0.57700  0.50000  1.0000
  In  In6       1.0  0.93100  0.71000  0.50000  1.0000
  In  In7       1.0  0.43100  0.79000  0.50000  1.0000
  In  In8       1.0  0.15000  0.92300  0.50000  1.0000
  Pd  Pd1       1.0  0.30400  0.02600  0.50000  1.0000
  Pd  Pd2       1.0  0.80400  0.47400  0.50000  1.0000
  Pd  Pd3       1.0  0.19600  0.52600  0.50000  1.0000
  Pd  Pd4       1.0  0.69600  0.97400  0.50000  1.0000
  Tb  Tb1       1.0  0.00000  0.00000  0.00000  1.0000
  Tb  Tb2       1.0  0.41700  0.11700  0.00000  1.0000
  Tb  Tb3       1.0  0.22000  0.24200  0.00000  1.0000
  Tb  Tb4       1.0  0.72000  0.25800  0.00000  1.0000
  Tb  Tb5       1.0  0.91700  0.38300  0.00000  1.0000
  Tb  Tb6       1.0  0.50000  0.50000  0.00000  1.0000
  Tb  Tb7       1.0  0.08260  0.61700  0.00000  1.0000
  Tb  Tb8       1.0  0.28000  0.74200  0.00000  1.0000
  Tb  Tb9       1.0  0.78000  0.75800  0.00000  1.0000
  Tb  Tb10      1.0  0.58300  0.88300  0.00000  1.0000
