data_image0
_chemical_formula_structural       Cs2Cu6Ho4Se10
_chemical_formula_sum              "Cs2 Cu6 Ho4 Se10"
_cell_length_a       4.12784
_cell_length_b       7.64643
_cell_length_c       17.3271
_cell_angle_alpha    90
_cell_angle_beta     90
_cell_angle_gamma    74.3405

_space_group_name_H-M_alt    "P 1"
_space_group_IT_number       1

loop_
  _space_group_symop_operation_xyz
  'x, y, z'

loop_
  _atom_site_type_symbol
  _atom_site_label
  _atom_site_symmetry_multiplicity
  _atom_site_fract_x
  _atom_site_fract_y
  _atom_site_fract_z
  _atom_site_occupancy
  Cs  Cs1       1.0  0.93900  0.12200  0.25000  1.0000
  Cs  Cs2       1.0  0.06110  0.87800  0.75000  1.0000
  Cu  Cu1       1.0  0.41600  0.16700  0.03270  1.0000
  Cu  Cu2       1.0  0.65600  0.68800  0.25000  1.0000
  Cu  Cu3       1.0  0.41600  0.16700  0.46700  1.0000
  Cu  Cu4       1.0  0.58400  0.83300  0.53300  1.0000
  Cu  Cu5       1.0  0.34400  0.31200  0.75000  1.0000
  Cu  Cu6       1.0  0.58400  0.83300  0.96700  1.0000
  Ho  Ho1       1.0  0.19200  0.61600  0.09100  1.0000
  Ho  Ho2       1.0  0.19200  0.61600  0.40900  1.0000
  Ho  Ho3       1.0  0.80800  0.38400  0.59100  1.0000
  Ho  Ho4       1.0  0.80800  0.38400  0.90900  1.0000
  Se  Se1       1.0  0.83200  0.33600  0.07030  1.0000
  Se  Se2       1.0  0.56200  0.87700  0.11200  1.0000
  Se  Se3       1.0  0.23800  0.52400  0.25000  1.0000
  Se  Se4       1.0  0.56200  0.87700  0.38800  1.0000
  Se  Se5       1.0  0.83200  0.33600  0.43000  1.0000
  Se  Se6       1.0  0.16800  0.66400  0.57000  1.0000
  Se  Se7       1.0  0.43800  0.12300  0.61200  1.0000
  Se  Se8       1.0  0.76200  0.47600  0.75000  1.0000
  Se  Se9       1.0  0.43800  0.12300  0.88800  1.0000
  Se  Se10      1.0  0.16800  0.66400  0.93000  1.0000
