data_image0
_chemical_formula_structural       In8Rh4Sc10
_chemical_formula_sum              "In8 Rh4 Sc10"
_cell_length_a       17.5923
_cell_length_b       7.67977
_cell_length_c       3.35263
_cell_angle_alpha    90
_cell_angle_beta     90
_cell_angle_gamma    90

_space_group_name_H-M_alt    "P 1"
_space_group_IT_number       1

loop_
  _space_group_symop_operation_xyz
  'x, y, z'

loop_
  _atom_site_type_symbol
  _atom_site_label
  _atom_site_symmetry_multiplicity
  _atom_site_fract_x
  _atom_site_fract_y
  _atom_site_fract_z
  _atom_site_occupancy
  In  In1       1.0  0.85100  0.06910  0.50000  1.0000
  In  In2       1.0  0.56700  0.20400  0.50000  1.0000
  In  In3       1.0  0.06700  0.29600  0.50000  1.0000
  In  In4       1.0  0.35100  0.43100  0.50000  1.0000
  In  In5       1.0  0.64900  0.56900  0.50000  1.0000
  In  In6       1.0  0.93300  0.70400  0.50000  1.0000
  In  In7       1.0  0.43300  0.79600  0.50000  1.0000
  In  In8       1.0  0.14900  0.93100  0.50000  1.0000
  Rh  Rh1       1.0  0.30600  0.03780  0.50000  1.0000
  Rh  Rh2       1.0  0.80600  0.46200  0.50000  1.0000
  Rh  Rh3       1.0  0.19400  0.53800  0.50000  1.0000
  Rh  Rh4       1.0  0.69400  0.96200  0.50000  1.0000
  Sc  Sc1       1.0  0.00000  0.00000  0.00000  1.0000
  Sc  Sc2       1.0  0.41500  0.12500  0.00000  1.0000
  Sc  Sc3       1.0  0.72100  0.24500  0.00000  1.0000
  Sc  Sc4       1.0  0.22100  0.25500  0.00000  1.0000
  Sc  Sc5       1.0  0.91500  0.37500  0.00000  1.0000
  Sc  Sc6       1.0  0.50000  0.50000  0.00000  1.0000
  Sc  Sc7       1.0  0.08530  0.62500  0.00000  1.0000
  Sc  Sc8       1.0  0.77900  0.74500  0.00000  1.0000
  Sc  Sc9       1.0  0.27900  0.75500  0.00000  1.0000
  Sc  Sc10      1.0  0.58500  0.87500  0.00000  1.0000
