data_image0
_chemical_formula_structural       I6La8Si8
_chemical_formula_sum              "I6 La8 Si8"
_cell_length_a       4.26594
_cell_length_b       12.4711
_cell_length_c       12.6452
_cell_angle_alpha    97.5452
_cell_angle_beta     90
_cell_angle_gamma    99.8479

_space_group_name_H-M_alt    "P 1"
_space_group_IT_number       1

loop_
  _space_group_symop_operation_xyz
  'x, y, z'

loop_
  _atom_site_type_symbol
  _atom_site_label
  _atom_site_symmetry_multiplicity
  _atom_site_fract_x
  _atom_site_fract_y
  _atom_site_fract_z
  _atom_site_occupancy
  I   I1        1.0  0.24300  0.48600  0.13000  1.0000
  I   I2        1.0  0.63200  0.26300  0.28800  1.0000
  I   I3        1.0  0.80000  0.60000  0.42700  1.0000
  I   I4        1.0  0.20000  0.40000  0.57300  1.0000
  I   I5        1.0  0.36800  0.73700  0.71200  1.0000
  I   I6        1.0  0.75700  0.51400  0.87000  1.0000
  La  La1       1.0  0.64400  0.28800  0.02340  1.0000
  La  La2       1.0  0.50300  0.00674  0.16500  1.0000
  La  La3       1.0  0.36200  0.72400  0.29100  1.0000
  La  La4       1.0  0.07370  0.14700  0.44600  1.0000
  La  La5       1.0  0.92600  0.85300  0.55400  1.0000
  La  La6       1.0  0.63800  0.27600  0.70900  1.0000
  La  La7       1.0  0.49700  0.99300  0.83500  1.0000
  La  La8       1.0  0.35600  0.71200  0.97700  1.0000
  Si  Si1       1.0  0.05070  0.10100  0.01590  1.0000
  Si  Si2       1.0  0.90400  0.80800  0.14000  1.0000
  Si  Si3       1.0  0.95700  0.91500  0.31800  1.0000
  Si  Si4       1.0  0.47700  0.95300  0.40900  1.0000
  Si  Si5       1.0  0.52300  0.04660  0.59100  1.0000
  Si  Si6       1.0  0.04270  0.08530  0.68200  1.0000
  Si  Si7       1.0  0.09580  0.19200  0.86000  1.0000
  Si  Si8       1.0  0.94900  0.89900  0.98400  1.0000
