data_image0
_chemical_formula_structural       Al10Br4La8
_chemical_formula_sum              "Al10 Br4 La8"
_cell_length_a       4.35783
_cell_length_b       11.854
_cell_length_c       11.854
_cell_angle_alpha    93.7155
_cell_angle_beta     90
_cell_angle_gamma    90

_space_group_name_H-M_alt    "P 1"
_space_group_IT_number       1

loop_
  _space_group_symop_operation_xyz
  'x, y, z'

loop_
  _atom_site_type_symbol
  _atom_site_label
  _atom_site_symmetry_multiplicity
  _atom_site_fract_x
  _atom_site_fract_y
  _atom_site_fract_z
  _atom_site_occupancy
  Al  Al1       1.0  0.00000  0.47200  0.10200  1.0000
  Al  Al2       1.0  0.50000  0.48000  0.21600  1.0000
  Al  Al3       1.0  0.50000  0.42100  0.42100  1.0000
  Al  Al4       1.0  0.00000  0.10200  0.47200  1.0000
  Al  Al5       1.0  0.50000  0.21600  0.48000  1.0000
  Al  Al6       1.0  0.50000  0.78400  0.52000  1.0000
  Al  Al7       1.0  0.00000  0.89800  0.52800  1.0000
  Al  Al8       1.0  0.50000  0.57900  0.57900  1.0000
  Al  Al9       1.0  0.50000  0.52000  0.78400  1.0000
  Al  Al10      1.0  0.00000  0.52800  0.89800  1.0000
  Br  Br1       1.0  0.50000  0.12300  0.12300  1.0000
  Br  Br2       1.0  0.00000  0.82800  0.17200  1.0000
  Br  Br3       1.0  0.00000  0.17200  0.82800  1.0000
  Br  Br4       1.0  0.50000  0.87700  0.87700  1.0000
  La  La1       1.0  0.50000  0.67700  0.04060  1.0000
  La  La2       1.0  0.00000  0.26500  0.26500  1.0000
  La  La3       1.0  0.50000  0.95900  0.32300  1.0000
  La  La4       1.0  0.00000  0.63600  0.36400  1.0000
  La  La5       1.0  0.00000  0.36400  0.63600  1.0000
  La  La6       1.0  0.50000  0.04060  0.67700  1.0000
  La  La7       1.0  0.00000  0.73500  0.73500  1.0000
  La  La8       1.0  0.50000  0.32300  0.95900  1.0000
