data_image0
_chemical_formula_structural       Br18Ta2Te2
_chemical_formula_sum              "Br18 Ta2 Te2"
_cell_length_a       6.71858
_cell_length_b       11.5594
_cell_length_c       10.0497
_cell_angle_alpha    90
_cell_angle_beta     103.103
_cell_angle_gamma    90

_space_group_name_H-M_alt    "P 1"
_space_group_IT_number       1

loop_
  _space_group_symop_operation_xyz
  'x, y, z'

loop_
  _atom_site_type_symbol
  _atom_site_label
  _atom_site_symmetry_multiplicity
  _atom_site_fract_x
  _atom_site_fract_y
  _atom_site_fract_z
  _atom_site_occupancy
  Br  Br1       1.0  0.29200  0.75000  0.00327  1.0000
  Br  Br2       1.0  0.76300  0.59200  0.01540  1.0000
  Br  Br3       1.0  0.76300  0.90800  0.01540  1.0000
  Br  Br4       1.0  0.54000  0.59800  0.30800  1.0000
  Br  Br5       1.0  0.54000  0.90200  0.30800  1.0000
  Br  Br6       1.0  0.99900  0.75000  0.31800  1.0000
  Br  Br7       1.0  0.03690  0.08510  0.32800  1.0000
  Br  Br8       1.0  0.03690  0.41500  0.32800  1.0000
  Br  Br9       1.0  0.53200  0.25000  0.34000  1.0000
  Br  Br10      1.0  0.46800  0.75000  0.66000  1.0000
  Br  Br11      1.0  0.96300  0.58500  0.67200  1.0000
  Br  Br12      1.0  0.96300  0.91500  0.67200  1.0000
  Br  Br13      1.0  0.00079  0.25000  0.68200  1.0000
  Br  Br14      1.0  0.46000  0.09760  0.69200  1.0000
  Br  Br15      1.0  0.46000  0.40200  0.69200  1.0000
  Br  Br16      1.0  0.23700  0.09240  0.98500  1.0000
  Br  Br17      1.0  0.23700  0.40800  0.98500  1.0000
  Br  Br18      1.0  0.70800  0.25000  0.99700  1.0000
  Ta  Ta1       1.0  0.64300  0.75000  0.14000  1.0000
  Ta  Ta2       1.0  0.35700  0.25000  0.86000  1.0000
  Te  Te1       1.0  0.24000  0.25000  0.46300  1.0000
  Te  Te2       1.0  0.76000  0.75000  0.53700  1.0000
