data_image0
_chemical_formula_structural       F14Ga2Na4Ni2
_chemical_formula_sum              "F14 Ga2 Na4 Ni2"
_cell_length_a       7.02925
_cell_length_b       7.14094
_cell_length_c       7.14094
_cell_angle_alpha    90.251
_cell_angle_beta     119.484
_cell_angle_gamma    60.5161

_space_group_name_H-M_alt    "P 1"
_space_group_IT_number       1

loop_
  _space_group_symop_operation_xyz
  'x, y, z'

loop_
  _atom_site_type_symbol
  _atom_site_label
  _atom_site_symmetry_multiplicity
  _atom_site_fract_x
  _atom_site_fract_y
  _atom_site_fract_z
  _atom_site_occupancy
  F   F1        1.0  0.23900  0.17400  0.05720  1.0000
  F   F2        1.0  0.64400  0.17400  0.05720  1.0000
  F   F3        1.0  0.86900  0.38100  0.11900  1.0000
  F   F4        1.0  0.73200  0.85900  0.32300  1.0000
  F   F5        1.0  0.23900  0.44300  0.32600  1.0000
  F   F6        1.0  0.64400  0.44300  0.32600  1.0000
  F   F7        1.0  0.26800  0.82300  0.35900  1.0000
  F   F8        1.0  0.73200  0.17700  0.64100  1.0000
  F   F9        1.0  0.35600  0.55700  0.67400  1.0000
  F   F10       1.0  0.76100  0.55700  0.67400  1.0000
  F   F11       1.0  0.26800  0.14100  0.67700  1.0000
  F   F12       1.0  0.13100  0.61900  0.88100  1.0000
  F   F13       1.0  0.35600  0.82600  0.94300  1.0000
  F   F14       1.0  0.76100  0.82600  0.94300  1.0000
  Ga  Ga1       1.0  0.50000  0.00000  0.00000  1.0000
  Ga  Ga2       1.0  0.50000  0.50000  0.50000  1.0000
  Na  Na1       1.0  0.00000  0.00000  0.00000  1.0000
  Na  Na2       1.0  1.00000  0.50000  0.50000  1.0000
  Na  Na3       1.0  0.00000  0.00000  0.50000  1.0000
  Na  Na4       1.0  0.50000  0.00000  0.50000  1.0000
  Ni  Ni1       1.0  0.00000  0.50000  0.00000  1.0000
  Ni  Ni2       1.0  0.50000  0.50000  0.00000  1.0000
