data_image0
_chemical_formula_structural       F2K2Nb4O12Sr2
_chemical_formula_sum              "F2 K2 Nb4 O12 Sr2"
_cell_length_a       3.87115
_cell_length_b       7.71483
_cell_length_c       11.7883
_cell_angle_alpha    109.1
_cell_angle_beta     99.4505
_cell_angle_gamma    90

_space_group_name_H-M_alt    "P 1"
_space_group_IT_number       1

loop_
  _space_group_symop_operation_xyz
  'x, y, z'

loop_
  _atom_site_type_symbol
  _atom_site_label
  _atom_site_symmetry_multiplicity
  _atom_site_fract_x
  _atom_site_fract_y
  _atom_site_fract_z
  _atom_site_occupancy
  F   F1        1.0  0.50000  0.27400  0.00000  1.0000
  F   F2        1.0  0.50000  0.72600  0.00000  1.0000
  K   K1        1.0  0.23600  0.23600  0.47200  1.0000
  K   K2        1.0  0.76400  0.76400  0.52800  1.0000
  Nb  Nb1       1.0  0.61000  0.35600  0.22100  1.0000
  Nb  Nb2       1.0  0.61000  0.86400  0.22100  1.0000
  Nb  Nb3       1.0  0.39000  0.13600  0.77900  1.0000
  Nb  Nb4       1.0  0.39000  0.64400  0.77900  1.0000
  O   O1        1.0  0.58000  0.07970  0.15900  1.0000
  O   O2        1.0  0.08650  0.33400  0.17300  1.0000
  O   O3        1.0  0.08650  0.83800  0.17300  1.0000
  O   O4        1.0  0.59600  0.59600  0.19200  1.0000
  O   O5        1.0  0.69100  0.41100  0.38300  1.0000
  O   O6        1.0  0.69100  0.97100  0.38300  1.0000
  O   O7        1.0  0.30900  0.02880  0.61700  1.0000
  O   O8        1.0  0.30900  0.58900  0.61700  1.0000
  O   O9        1.0  0.40400  0.40400  0.80800  1.0000
  O   O10       1.0  0.91400  0.16200  0.82700  1.0000
  O   O11       1.0  0.91400  0.66600  0.82700  1.0000
  O   O12       1.0  0.42000  0.92000  0.84100  1.0000
  Sr  Sr1       1.0  0.00000  0.00000  0.00000  1.0000
  Sr  Sr2       1.0  0.00000  0.50000  0.00000  1.0000
