data_image0
_chemical_formula_structural       Cs2Cu6Dy4S10
_chemical_formula_sum              "Cs2 Cu6 Dy4 S10"
_cell_length_a       3.96246
_cell_length_b       7.31009
_cell_length_c       16.8162
_cell_angle_alpha    90
_cell_angle_beta     90
_cell_angle_gamma    74.2746

_space_group_name_H-M_alt    "P 1"
_space_group_IT_number       1

loop_
  _space_group_symop_operation_xyz
  'x, y, z'

loop_
  _atom_site_type_symbol
  _atom_site_label
  _atom_site_symmetry_multiplicity
  _atom_site_fract_x
  _atom_site_fract_y
  _atom_site_fract_z
  _atom_site_occupancy
  Cs  Cs1       1.0  0.93600  0.12800  0.25000  1.0000
  Cs  Cs2       1.0  0.06420  0.87200  0.75000  1.0000
  Cu  Cu1       1.0  0.41600  0.16900  0.03550  1.0000
  Cu  Cu2       1.0  0.65700  0.68700  0.25000  1.0000
  Cu  Cu3       1.0  0.41600  0.16900  0.46400  1.0000
  Cu  Cu4       1.0  0.58400  0.83100  0.53600  1.0000
  Cu  Cu5       1.0  0.34300  0.31300  0.75000  1.0000
  Cu  Cu6       1.0  0.58400  0.83100  0.96400  1.0000
  Dy  Dy1       1.0  0.19200  0.61600  0.09150  1.0000
  Dy  Dy2       1.0  0.19200  0.61600  0.40900  1.0000
  Dy  Dy3       1.0  0.80800  0.38400  0.59100  1.0000
  Dy  Dy4       1.0  0.80800  0.38400  0.90900  1.0000
  S   S1        1.0  0.83100  0.33800  0.06860  1.0000
  S   S2        1.0  0.56200  0.87700  0.10800  1.0000
  S   S3        1.0  0.23100  0.53800  0.25000  1.0000
  S   S4        1.0  0.56200  0.87700  0.39200  1.0000
  S   S5        1.0  0.83100  0.33800  0.43100  1.0000
  S   S6        1.0  0.16900  0.66200  0.56900  1.0000
  S   S7        1.0  0.43800  0.12300  0.60800  1.0000
  S   S8        1.0  0.76900  0.46200  0.75000  1.0000
  S   S9        1.0  0.43800  0.12300  0.89200  1.0000
  S   S10       1.0  0.16900  0.66200  0.93100  1.0000
