data_image0
_chemical_formula_structural       Br12Si2Tb8
_chemical_formula_sum              "Br12 Si2 Tb8"
_cell_length_a       13.2491
_cell_length_b       14.029
_cell_length_c       4.06569
_cell_angle_alpha    90
_cell_angle_beta     90
_cell_angle_gamma    90

_space_group_name_H-M_alt    "P 1"
_space_group_IT_number       1

loop_
  _space_group_symop_operation_xyz
  'x, y, z'

loop_
  _atom_site_type_symbol
  _atom_site_label
  _atom_site_symmetry_multiplicity
  _atom_site_fract_x
  _atom_site_fract_y
  _atom_site_fract_z
  _atom_site_occupancy
  Br  Br1       1.0  0.75600  0.08890  0.00000  1.0000
  Br  Br2       1.0  0.00147  0.24200  0.00000  1.0000
  Br  Br3       1.0  0.50100  0.25800  0.00000  1.0000
  Br  Br4       1.0  0.25600  0.41100  0.00000  1.0000
  Br  Br5       1.0  0.74400  0.58900  0.00000  1.0000
  Br  Br6       1.0  0.49900  0.74200  0.00000  1.0000
  Br  Br7       1.0  0.99900  0.75800  0.00000  1.0000
  Br  Br8       1.0  0.24400  0.91100  0.00000  1.0000
  Br  Br9       1.0  0.24300  0.16200  0.50000  1.0000
  Br  Br10      1.0  0.74300  0.33800  0.50000  1.0000
  Br  Br11      1.0  0.25700  0.66200  0.50000  1.0000
  Br  Br12      1.0  0.75700  0.83800  0.50000  1.0000
  Si  Si1       1.0  0.50000  0.00000  0.50000  1.0000
  Si  Si2       1.0  0.00000  0.50000  0.50000  1.0000
  Tb  Tb1       1.0  0.38100  0.07850  0.00000  1.0000
  Tb  Tb2       1.0  0.88100  0.42100  0.00000  1.0000
  Tb  Tb3       1.0  0.11900  0.57900  0.00000  1.0000
  Tb  Tb4       1.0  0.61900  0.92100  0.00000  1.0000
  Tb  Tb5       1.0  0.61900  0.15900  0.50000  1.0000
  Tb  Tb6       1.0  0.11900  0.34100  0.50000  1.0000
  Tb  Tb7       1.0  0.88100  0.65900  0.50000  1.0000
  Tb  Tb8       1.0  0.38100  0.84100  0.50000  1.0000
