data_image0
_chemical_formula_structural       Ce4In10Pd8
_chemical_formula_sum              "Ce4 In10 Pd8"
_cell_length_a       9.74464
_cell_length_b       4.67587
_cell_length_c       10.7131
_cell_angle_alpha    90
_cell_angle_beta     102.55
_cell_angle_gamma    90

_space_group_name_H-M_alt    "P 1"
_space_group_IT_number       1

loop_
  _space_group_symop_operation_xyz
  'x, y, z'

loop_
  _atom_site_type_symbol
  _atom_site_label
  _atom_site_symmetry_multiplicity
  _atom_site_fract_x
  _atom_site_fract_y
  _atom_site_fract_z
  _atom_site_occupancy
  Ce  Ce1       1.0  0.77600  0.25000  0.11100  1.0000
  Ce  Ce2       1.0  0.32700  0.75000  0.29800  1.0000
  Ce  Ce3       1.0  0.67300  0.25000  0.70200  1.0000
  Ce  Ce4       1.0  0.22400  0.75000  0.88900  1.0000
  In  In1       1.0  0.11800  0.25000  0.07600  1.0000
  In  In2       1.0  0.42500  0.25000  0.08050  1.0000
  In  In3       1.0  0.08440  0.25000  0.34900  1.0000
  In  In4       1.0  0.83300  0.75000  0.35000  1.0000
  In  In5       1.0  0.59500  0.25000  0.36100  1.0000
  In  In6       1.0  0.40500  0.75000  0.63900  1.0000
  In  In7       1.0  0.16700  0.25000  0.65000  1.0000
  In  In8       1.0  0.91600  0.75000  0.65100  1.0000
  In  In9       1.0  0.57500  0.75000  0.92000  1.0000
  In  In10      1.0  0.88200  0.75000  0.92400  1.0000
  Pd  Pd1       1.0  0.57500  0.75000  0.18100  1.0000
  Pd  Pd2       1.0  0.01630  0.75000  0.18300  1.0000
  Pd  Pd3       1.0  0.37100  0.25000  0.49000  1.0000
  Pd  Pd4       1.0  0.12100  0.75000  0.49900  1.0000
  Pd  Pd5       1.0  0.87900  0.25000  0.50100  1.0000
  Pd  Pd6       1.0  0.62900  0.75000  0.51000  1.0000
  Pd  Pd7       1.0  0.98400  0.25000  0.81700  1.0000
  Pd  Pd8       1.0  0.42500  0.25000  0.81900  1.0000
