data_image0
_chemical_formula_structural       Cl18Te2W2
_chemical_formula_sum              "Cl18 Te2 W2"
_cell_length_a       11.2867
_cell_length_b       9.29138
_cell_length_c       6.43392
_cell_angle_alpha    91.4166
_cell_angle_beta     107.402
_cell_angle_gamma    105.824

_space_group_name_H-M_alt    "P 1"
_space_group_IT_number       1

loop_
  _space_group_symop_operation_xyz
  'x, y, z'

loop_
  _atom_site_type_symbol
  _atom_site_label
  _atom_site_symmetry_multiplicity
  _atom_site_fract_x
  _atom_site_fract_y
  _atom_site_fract_z
  _atom_site_occupancy
  Cl  Cl1       1.0  0.72100  0.03930  0.00265  1.0000
  Cl  Cl2       1.0  0.94000  0.80500  0.05530  1.0000
  Cl  Cl3       1.0  0.17000  0.60900  0.08390  1.0000
  Cl  Cl4       1.0  0.48100  0.75600  0.13300  1.0000
  Cl  Cl5       1.0  0.70100  0.50400  0.26900  1.0000
  Cl  Cl6       1.0  0.37300  0.36500  0.27700  1.0000
  Cl  Cl7       1.0  0.60500  0.14800  0.37500  1.0000
  Cl  Cl8       1.0  0.91200  0.30400  0.41800  1.0000
  Cl  Cl9       1.0  0.16400  0.11700  0.47800  1.0000
  Cl  Cl10      1.0  0.83600  0.88300  0.52200  1.0000
  Cl  Cl11      1.0  0.08790  0.69600  0.58200  1.0000
  Cl  Cl12      1.0  0.39500  0.85200  0.62500  1.0000
  Cl  Cl13      1.0  0.62700  0.63500  0.72300  1.0000
  Cl  Cl14      1.0  0.29900  0.49600  0.73100  1.0000
  Cl  Cl15      1.0  0.51900  0.24400  0.86700  1.0000
  Cl  Cl16      1.0  0.83000  0.39100  0.91600  1.0000
  Cl  Cl17      1.0  0.06000  0.19500  0.94500  1.0000
  Cl  Cl18      1.0  0.27900  0.96100  0.99700  1.0000
  Te  Te1       1.0  0.16400  0.33300  0.29300  1.0000
  Te  Te2       1.0  0.83600  0.66700  0.70700  1.0000
  W   W1        1.0  0.70700  0.26000  0.14000  1.0000
  W   W2        1.0  0.29300  0.74000  0.86000  1.0000
