data_image0
_chemical_formula_structural       Hf14P8
_chemical_formula_sum              "Hf14 P8"
_cell_length_a       3.52776
_cell_length_b       8.06671
_cell_length_c       14.6786
_cell_angle_alpha    104.172
_cell_angle_beta     90
_cell_angle_gamma    102.63

_space_group_name_H-M_alt    "P 1"
_space_group_IT_number       1

loop_
  _space_group_symop_operation_xyz
  'x, y, z'

loop_
  _atom_site_type_symbol
  _atom_site_label
  _atom_site_symmetry_multiplicity
  _atom_site_fract_x
  _atom_site_fract_y
  _atom_site_fract_z
  _atom_site_occupancy
  Hf  Hf1       1.0  0.00000  0.00000  0.00000  1.0000
  Hf  Hf2       1.0  0.33900  0.67800  0.02930  1.0000
  Hf  Hf3       1.0  0.56900  0.13900  0.16900  1.0000
  Hf  Hf4       1.0  0.79500  0.58900  0.20200  1.0000
  Hf  Hf5       1.0  0.19700  0.39400  0.31100  1.0000
  Hf  Hf6       1.0  0.99600  0.99300  0.33100  1.0000
  Hf  Hf7       1.0  0.82400  0.64700  0.45900  1.0000
  Hf  Hf8       1.0  0.50000  0.00000  0.50000  1.0000
  Hf  Hf9       1.0  0.17600  0.35300  0.54100  1.0000
  Hf  Hf10      1.0  0.00364  0.00727  0.66900  1.0000
  Hf  Hf11      1.0  0.80300  0.60600  0.68900  1.0000
  Hf  Hf12      1.0  0.20500  0.41100  0.79800  1.0000
  Hf  Hf13      1.0  0.43100  0.86100  0.83100  1.0000
  Hf  Hf14      1.0  0.66100  0.32200  0.97100  1.0000
  P   P1        1.0  0.17700  0.35300  0.11100  1.0000
  P   P2        1.0  0.93700  0.87400  0.14800  1.0000
  P   P3        1.0  0.37000  0.74000  0.33900  1.0000
  P   P4        1.0  0.62400  0.24900  0.39900  1.0000
  P   P5        1.0  0.37600  0.75100  0.60100  1.0000
  P   P6        1.0  0.63000  0.26000  0.66100  1.0000
  P   P7        1.0  0.06290  0.12600  0.85200  1.0000
  P   P8        1.0  0.82300  0.64700  0.88900  1.0000
