data_image0
_chemical_formula_structural       Ga18Rh4
_chemical_formula_sum              "Ga18 Rh4"
_cell_length_a       6.45928
_cell_length_b       6.45291
_cell_length_c       8.85551
_cell_angle_alpha    90
_cell_angle_beta     93.4478
_cell_angle_gamma    90

_space_group_name_H-M_alt    "P 1"
_space_group_IT_number       1

loop_
  _space_group_symop_operation_xyz
  'x, y, z'

loop_
  _atom_site_type_symbol
  _atom_site_label
  _atom_site_symmetry_multiplicity
  _atom_site_fract_x
  _atom_site_fract_y
  _atom_site_fract_z
  _atom_site_occupancy
  Ga  Ga1       1.0  0.59800  0.55200  0.00921  1.0000
  Ga  Ga2       1.0  0.19600  0.36400  0.04300  1.0000
  Ga  Ga3       1.0  0.10700  0.02770  0.21700  1.0000
  Ga  Ga4       1.0  0.60100  0.23900  0.23200  1.0000
  Ga  Ga5       1.0  0.90900  0.54800  0.26600  1.0000
  Ga  Ga6       1.0  0.40000  0.74000  0.27400  1.0000
  Ga  Ga7       1.0  0.78400  0.84200  0.46200  1.0000
  Ga  Ga8       1.0  0.96700  0.23800  0.46900  1.0000
  Ga  Ga9       1.0  0.38700  0.05380  0.49700  1.0000
  Ga  Ga10      1.0  0.59800  0.44800  0.50900  1.0000
  Ga  Ga11      1.0  0.19600  0.63600  0.54300  1.0000
  Ga  Ga12      1.0  0.10700  0.97200  0.71700  1.0000
  Ga  Ga13      1.0  0.60100  0.76100  0.73200  1.0000
  Ga  Ga14      1.0  0.90900  0.45200  0.76600  1.0000
  Ga  Ga15      1.0  0.40000  0.26000  0.77400  1.0000
  Ga  Ga16      1.0  0.78400  0.15800  0.96200  1.0000
  Ga  Ga17      1.0  0.96700  0.76200  0.96900  1.0000
  Ga  Ga18      1.0  0.38700  0.94600  0.99700  1.0000
  Rh  Rh1       1.0  0.74000  0.88000  0.16800  1.0000
  Rh  Rh2       1.0  0.26100  0.37700  0.33100  1.0000
  Rh  Rh3       1.0  0.74000  0.12000  0.66800  1.0000
  Rh  Rh4       1.0  0.26100  0.62300  0.83100  1.0000
