data_image0
_chemical_formula_structural       O14Pr4Ru4
_chemical_formula_sum              "O14 Pr4 Ru4"
_cell_length_a       7.35126
_cell_length_b       7.35126
_cell_length_c       7.35126
_cell_angle_alpha    120
_cell_angle_beta     90
_cell_angle_gamma    120

_space_group_name_H-M_alt    "P 1"
_space_group_IT_number       1

loop_
  _space_group_symop_operation_xyz
  'x, y, z'

loop_
  _atom_site_type_symbol
  _atom_site_label
  _atom_site_symmetry_multiplicity
  _atom_site_fract_x
  _atom_site_fract_y
  _atom_site_fract_z
  _atom_site_occupancy
  O   O1        1.0  0.42200  0.75000  0.07840  1.0000
  O   O2        1.0  0.82800  0.75000  0.07840  1.0000
  O   O3        1.0  0.82800  0.15700  0.07840  1.0000
  O   O4        1.0  0.17200  0.25000  0.32800  1.0000
  O   O5        1.0  0.57800  0.25000  0.32800  1.0000
  O   O6        1.0  0.57800  0.65700  0.32800  1.0000
  O   O7        1.0  0.12500  0.75000  0.37500  1.0000
  O   O8        1.0  0.87500  0.25000  0.62500  1.0000
  O   O9        1.0  0.42200  0.34300  0.67200  1.0000
  O   O10       1.0  0.42200  0.75000  0.67200  1.0000
  O   O11       1.0  0.82800  0.75000  0.67200  1.0000
  O   O12       1.0  0.17200  0.25000  0.92200  1.0000
  O   O13       1.0  0.57800  0.25000  0.92200  1.0000
  O   O14       1.0  0.17200  0.84300  0.92200  1.0000
  Pr  Pr1       1.0  0.00000  0.50000  0.00000  1.0000
  Pr  Pr2       1.0  0.00000  0.00000  0.50000  1.0000
  Pr  Pr3       1.0  0.50000  0.00000  0.50000  1.0000
  Pr  Pr4       1.0  0.00000  0.50000  0.50000  1.0000
  Ru  Ru1       1.0  0.00000  0.00000  0.00000  1.0000
  Ru  Ru2       1.0  0.50000  0.00000  0.00000  1.0000
  Ru  Ru3       1.0  0.50000  0.50000  0.00000  1.0000
  Ru  Ru4       1.0  0.50000  0.50000  0.50000  1.0000
