data_image0
_chemical_formula_structural       Al18Ir4
_chemical_formula_sum              "Al18 Ir4"
_cell_length_a       8.77059
_cell_length_b       6.47169
_cell_length_c       6.39962
_cell_angle_alpha    90
_cell_angle_beta     94.9896
_cell_angle_gamma    90

_space_group_name_H-M_alt    "P 1"
_space_group_IT_number       1

loop_
  _space_group_symop_operation_xyz
  'x, y, z'

loop_
  _atom_site_type_symbol
  _atom_site_label
  _atom_site_symmetry_multiplicity
  _atom_site_fract_x
  _atom_site_fract_y
  _atom_site_fract_z
  _atom_site_occupancy
  Al  Al1       1.0  0.00000  0.00000  0.00000  1.0000
  Al  Al2       1.0  0.50000  0.50000  0.00000  1.0000
  Al  Al3       1.0  0.22800  0.28400  0.09800  1.0000
  Al  Al4       1.0  0.72800  0.21600  0.09800  1.0000
  Al  Al5       1.0  0.03910  0.60300  0.21200  1.0000
  Al  Al6       1.0  0.53900  0.89700  0.21200  1.0000
  Al  Al7       1.0  0.99800  0.19500  0.38900  1.0000
  Al  Al8       1.0  0.49800  0.30500  0.38900  1.0000
  Al  Al9       1.0  0.27000  0.98000  0.40000  1.0000
  Al  Al10      1.0  0.77000  0.52000  0.40000  1.0000
  Al  Al11      1.0  0.23000  0.48000  0.60000  1.0000
  Al  Al12      1.0  0.73000  0.02000  0.60000  1.0000
  Al  Al13      1.0  0.50200  0.69500  0.61100  1.0000
  Al  Al14      1.0  0.00210  0.80500  0.61100  1.0000
  Al  Al15      1.0  0.96100  0.39700  0.78800  1.0000
  Al  Al16      1.0  0.46100  0.10300  0.78800  1.0000
  Al  Al17      1.0  0.27200  0.78400  0.90200  1.0000
  Al  Al18      1.0  0.77200  0.71600  0.90200  1.0000
  Ir  Ir1       1.0  0.33100  0.62300  0.26400  1.0000
  Ir  Ir2       1.0  0.83100  0.87700  0.26400  1.0000
  Ir  Ir3       1.0  0.16900  0.12300  0.73600  1.0000
  Ir  Ir4       1.0  0.66900  0.37700  0.73600  1.0000
