data_image0
_chemical_formula_structural       C6N12Yb4
_chemical_formula_sum              "C6 N12 Yb4"
_cell_length_a       6.14336
_cell_length_b       6.14336
_cell_length_c       10.9369
_cell_angle_alpha    90
_cell_angle_beta     106.311
_cell_angle_gamma    60

_space_group_name_H-M_alt    "P 1"
_space_group_IT_number       1

loop_
  _space_group_symop_operation_xyz
  'x, y, z'

loop_
  _atom_site_type_symbol
  _atom_site_label
  _atom_site_symmetry_multiplicity
  _atom_site_fract_x
  _atom_site_fract_y
  _atom_site_fract_z
  _atom_site_occupancy
  C   C1        1.0  0.19400  0.25000  0.25000  1.0000
  C   C2        1.0  0.50000  0.55600  0.25000  1.0000
  C   C3        1.0  0.80600  0.94400  0.25000  1.0000
  C   C4        1.0  0.19400  0.05600  0.75000  1.0000
  C   C5        1.0  0.50000  0.44400  0.75000  1.0000
  C   C6        1.0  0.80600  0.75000  0.75000  1.0000
  N   N1        1.0  0.09810  0.32800  0.13300  1.0000
  N   N2        1.0  0.46100  0.57400  0.13300  1.0000
  N   N3        1.0  0.70700  0.96500  0.13300  1.0000
  N   N4        1.0  0.29300  0.17200  0.36700  1.0000
  N   N5        1.0  0.53900  0.53500  0.36700  1.0000
  N   N6        1.0  0.90200  0.92600  0.36700  1.0000
  N   N7        1.0  0.09810  0.07390  0.63300  1.0000
  N   N8        1.0  0.46100  0.46500  0.63300  1.0000
  N   N9        1.0  0.70700  0.82800  0.63300  1.0000
  N   N10       1.0  0.29300  0.03480  0.86700  1.0000
  N   N11       1.0  0.53900  0.42600  0.86700  1.0000
  N   N12       1.0  0.90200  0.67200  0.86700  1.0000
  Yb  Yb1       1.0  0.67200  0.66400  0.00752  1.0000
  Yb  Yb2       1.0  0.32800  0.83600  0.49200  1.0000
  Yb  Yb3       1.0  0.67200  0.16400  0.50800  1.0000
  Yb  Yb4       1.0  0.32800  0.33600  0.99200  1.0000
