data_image0
_chemical_formula_structural       Cs2Cu6Se10Yb4
_chemical_formula_sum              "Cs2 Cu6 Se10 Yb4"
_cell_length_a       4.13654
_cell_length_b       7.64918
_cell_length_c       17.4357
_cell_angle_alpha    90
_cell_angle_beta     90
_cell_angle_gamma    74.3125

_space_group_name_H-M_alt    "P 1"
_space_group_IT_number       1

loop_
  _space_group_symop_operation_xyz
  'x, y, z'

loop_
  _atom_site_type_symbol
  _atom_site_label
  _atom_site_symmetry_multiplicity
  _atom_site_fract_x
  _atom_site_fract_y
  _atom_site_fract_z
  _atom_site_occupancy
  Cs  Cs1       1.0  0.93800  0.12300  0.25000  1.0000
  Cs  Cs2       1.0  0.06170  0.87700  0.75000  1.0000
  Cu  Cu1       1.0  0.41600  0.16900  0.03340  1.0000
  Cu  Cu2       1.0  0.64800  0.70500  0.25000  1.0000
  Cu  Cu3       1.0  0.41600  0.16900  0.46700  1.0000
  Cu  Cu4       1.0  0.58400  0.83100  0.53300  1.0000
  Cu  Cu5       1.0  0.35200  0.29500  0.75000  1.0000
  Cu  Cu6       1.0  0.58400  0.83100  0.96700  1.0000
  Se  Se1       1.0  0.83800  0.32300  0.07120  1.0000
  Se  Se2       1.0  0.56000  0.88100  0.10900  1.0000
  Se  Se3       1.0  0.22300  0.55300  0.25000  1.0000
  Se  Se4       1.0  0.56000  0.88100  0.39100  1.0000
  Se  Se5       1.0  0.83800  0.32300  0.42900  1.0000
  Se  Se6       1.0  0.16200  0.67700  0.57100  1.0000
  Se  Se7       1.0  0.44000  0.11900  0.60900  1.0000
  Se  Se8       1.0  0.77700  0.44700  0.75000  1.0000
  Se  Se9       1.0  0.44000  0.11900  0.89100  1.0000
  Se  Se10      1.0  0.16200  0.67700  0.92900  1.0000
  Yb  Yb1       1.0  0.19600  0.60900  0.08910  1.0000
  Yb  Yb2       1.0  0.19600  0.60900  0.41100  1.0000
  Yb  Yb3       1.0  0.80400  0.39100  0.58900  1.0000
  Yb  Yb4       1.0  0.80400  0.39100  0.91100  1.0000
