data_image0
_chemical_formula_structural       As8Cl4Cu4S6
_chemical_formula_sum              "As8 Cl4 Cu4 S6"
_cell_length_a       6.2413
_cell_length_b       7.01906
_cell_length_c       11.8793
_cell_angle_alpha    90
_cell_angle_beta     103.038
_cell_angle_gamma    90

_space_group_name_H-M_alt    "P 1"
_space_group_IT_number       1

loop_
  _space_group_symop_operation_xyz
  'x, y, z'

loop_
  _atom_site_type_symbol
  _atom_site_label
  _atom_site_symmetry_multiplicity
  _atom_site_fract_x
  _atom_site_fract_y
  _atom_site_fract_z
  _atom_site_occupancy
  As  As1       1.0  0.01640  0.75000  0.10500  1.0000
  As  As2       1.0  0.26500  0.57100  0.39700  1.0000
  As  As3       1.0  0.26500  0.92900  0.39700  1.0000
  As  As4       1.0  0.92500  0.75000  0.40800  1.0000
  As  As5       1.0  0.07520  0.25000  0.59200  1.0000
  As  As6       1.0  0.73500  0.07080  0.60300  1.0000
  As  As7       1.0  0.73500  0.42900  0.60300  1.0000
  As  As8       1.0  0.98400  0.25000  0.89500  1.0000
  Cl  Cl1       1.0  0.61100  0.25000  0.05650  1.0000
  Cl  Cl2       1.0  0.70600  0.25000  0.35800  1.0000
  Cl  Cl3       1.0  0.29400  0.75000  0.64200  1.0000
  Cl  Cl4       1.0  0.38900  0.75000  0.94400  1.0000
  Cu  Cu1       1.0  0.55900  0.02870  0.19200  1.0000
  Cu  Cu2       1.0  0.55900  0.47100  0.19200  1.0000
  Cu  Cu3       1.0  0.44100  0.52900  0.80800  1.0000
  Cu  Cu4       1.0  0.44100  0.97100  0.80800  1.0000
  S   S1        1.0  0.20100  0.00080  0.20400  1.0000
  S   S2        1.0  0.20100  0.49900  0.20400  1.0000
  S   S3        1.0  0.74400  0.75000  0.21500  1.0000
  S   S4        1.0  0.25600  0.25000  0.78500  1.0000
  S   S5        1.0  0.79900  0.50100  0.79600  1.0000
  S   S6        1.0  0.79900  0.99900  0.79600  1.0000
