data_image0
_chemical_formula_structural       Cs2Cu6Se10Sm4
_chemical_formula_sum              "Cs2 Cu6 Se10 Sm4"
_cell_length_a       4.18703
_cell_length_b       7.66786
_cell_length_c       17.7233
_cell_angle_alpha    90
_cell_angle_beta     90
_cell_angle_gamma    74.1557

_space_group_name_H-M_alt    "P 1"
_space_group_IT_number       1

loop_
  _space_group_symop_operation_xyz
  'x, y, z'

loop_
  _atom_site_type_symbol
  _atom_site_label
  _atom_site_symmetry_multiplicity
  _atom_site_fract_x
  _atom_site_fract_y
  _atom_site_fract_z
  _atom_site_occupancy
  Cs  Cs1       1.0  0.93900  0.12200  0.25000  1.0000
  Cs  Cs2       1.0  0.06080  0.87800  0.75000  1.0000
  Cu  Cu1       1.0  0.41500  0.17000  0.02910  1.0000
  Cu  Cu2       1.0  0.66000  0.67900  0.25000  1.0000
  Cu  Cu3       1.0  0.41500  0.17000  0.47100  1.0000
  Cu  Cu4       1.0  0.58500  0.83000  0.52900  1.0000
  Cu  Cu5       1.0  0.34000  0.32100  0.75000  1.0000
  Cu  Cu6       1.0  0.58500  0.83000  0.97100  1.0000
  Se  Se1       1.0  0.83500  0.33000  0.07070  1.0000
  Se  Se2       1.0  0.55800  0.88400  0.11100  1.0000
  Se  Se3       1.0  0.23600  0.52700  0.25000  1.0000
  Se  Se4       1.0  0.55800  0.88400  0.38900  1.0000
  Se  Se5       1.0  0.83500  0.33000  0.42900  1.0000
  Se  Se6       1.0  0.16500  0.67000  0.57100  1.0000
  Se  Se7       1.0  0.44200  0.11600  0.61100  1.0000
  Se  Se8       1.0  0.76400  0.47300  0.75000  1.0000
  Se  Se9       1.0  0.44200  0.11600  0.88900  1.0000
  Se  Se10      1.0  0.16500  0.67000  0.92900  1.0000
  Sm  Sm1       1.0  0.19200  0.61600  0.09040  1.0000
  Sm  Sm2       1.0  0.19200  0.61600  0.41000  1.0000
  Sm  Sm3       1.0  0.80800  0.38400  0.59000  1.0000
  Sm  Sm4       1.0  0.80800  0.38400  0.91000  1.0000
