data_image0
_chemical_formula_structural       B4S12Sr6
_chemical_formula_sum              "B4 S12 Sr6"
_cell_length_a       6.12803
_cell_length_b       6.12803
_cell_length_c       15.5752
_cell_angle_alpha    100.189
_cell_angle_beta     79.811
_cell_angle_gamma    114.174

_space_group_name_H-M_alt    "P 1"
_space_group_IT_number       1

loop_
  _space_group_symop_operation_xyz
  'x, y, z'

loop_
  _atom_site_type_symbol
  _atom_site_label
  _atom_site_symmetry_multiplicity
  _atom_site_fract_x
  _atom_site_fract_y
  _atom_site_fract_z
  _atom_site_occupancy
  B   B1        1.0  0.53400  0.25700  0.13500  1.0000
  B   B2        1.0  0.25700  0.53400  0.36500  1.0000
  B   B3        1.0  0.74300  0.46600  0.63500  1.0000
  B   B4        1.0  0.46600  0.74300  0.86500  1.0000
  S   S1        1.0  0.27700  0.12700  0.07060  1.0000
  S   S2        1.0  0.76800  0.54600  0.10800  1.0000
  S   S3        1.0  0.52600  0.08300  0.22000  1.0000
  S   S4        1.0  0.08300  0.52600  0.28000  1.0000
  S   S5        1.0  0.54600  0.76800  0.39200  1.0000
  S   S6        1.0  0.12700  0.27700  0.42900  1.0000
  S   S7        1.0  0.87300  0.72300  0.57100  1.0000
  S   S8        1.0  0.45400  0.23200  0.60800  1.0000
  S   S9        1.0  0.91700  0.47400  0.72000  1.0000
  S   S10       1.0  0.47400  0.91700  0.78000  1.0000
  S   S11       1.0  0.23200  0.45400  0.89200  1.0000
  S   S12       1.0  0.72300  0.87300  0.92900  1.0000
  Sr  Sr1       1.0  0.32300  0.64800  0.08690  1.0000
  Sr  Sr2       1.0  0.98000  0.98000  0.25000  1.0000
  Sr  Sr3       1.0  0.64800  0.32300  0.41300  1.0000
  Sr  Sr4       1.0  0.35200  0.67700  0.58700  1.0000
  Sr  Sr5       1.0  0.02040  0.02040  0.75000  1.0000
  Sr  Sr6       1.0  0.67700  0.35200  0.91300  1.0000
