data_image0
_chemical_formula_structural       K2Na2O14S4
_chemical_formula_sum              "K2 Na2 O14 S4"
_cell_length_a       5.83183
_cell_length_b       7.08411
_cell_length_c       7.29679
_cell_angle_alpha    101.352
_cell_angle_beta     90.348
_cell_angle_gamma    94.575

_space_group_name_H-M_alt    "P 1"
_space_group_IT_number       1

loop_
  _space_group_symop_operation_xyz
  'x, y, z'

loop_
  _atom_site_type_symbol
  _atom_site_label
  _atom_site_symmetry_multiplicity
  _atom_site_fract_x
  _atom_site_fract_y
  _atom_site_fract_z
  _atom_site_occupancy
  K   K1        1.0  0.22300  0.77400  0.43000  1.0000
  K   K2        1.0  0.77700  0.22600  0.57000  1.0000
  Na  Na1       1.0  0.79400  0.35400  0.09870  1.0000
  Na  Na2       1.0  0.20600  0.64600  0.90100  1.0000
  O   O1        1.0  0.26200  0.11600  0.11000  1.0000
  O   O2        1.0  0.90700  0.70100  0.11200  1.0000
  O   O3        1.0  0.49700  0.73700  0.11700  1.0000
  O   O4        1.0  0.76900  0.02310  0.21300  1.0000
  O   O5        1.0  0.50900  0.38500  0.30900  1.0000
  O   O6        1.0  0.09280  0.39600  0.31000  1.0000
  O   O7        1.0  0.26800  0.15200  0.44500  1.0000
  O   O8        1.0  0.73200  0.84800  0.55500  1.0000
  O   O9        1.0  0.90700  0.60400  0.69000  1.0000
  O   O10       1.0  0.49100  0.61500  0.69100  1.0000
  O   O11       1.0  0.23100  0.97700  0.78700  1.0000
  O   O12       1.0  0.50300  0.26300  0.88300  1.0000
  O   O13       1.0  0.09300  0.29900  0.88800  1.0000
  O   O14       1.0  0.73800  0.88400  0.89000  1.0000
  S   S1        1.0  0.72500  0.83100  0.10200  1.0000
  S   S2        1.0  0.28600  0.27800  0.31000  1.0000
  S   S3        1.0  0.71400  0.72200  0.69000  1.0000
  S   S4        1.0  0.27500  0.16900  0.89800  1.0000
