data_image0
_chemical_formula_structural       C6Cr4N12
_chemical_formula_sum              "C6 Cr4 N12"
_cell_length_a       5.42333
_cell_length_b       5.42333
_cell_length_c       9.86393
_cell_angle_alpha    105.956
_cell_angle_beta     105.956
_cell_angle_gamma    60

_space_group_name_H-M_alt    "P 1"
_space_group_IT_number       1

loop_
  _space_group_symop_operation_xyz
  'x, y, z'

loop_
  _atom_site_type_symbol
  _atom_site_label
  _atom_site_symmetry_multiplicity
  _atom_site_fract_x
  _atom_site_fract_y
  _atom_site_fract_z
  _atom_site_occupancy
  C   C1        1.0  0.06940  0.43100  0.25000  1.0000
  C   C2        1.0  0.43100  0.75000  0.25000  1.0000
  C   C3        1.0  0.75000  0.06940  0.25000  1.0000
  C   C4        1.0  0.25000  0.93100  0.75000  1.0000
  C   C5        1.0  0.56900  0.25000  0.75000  1.0000
  C   C6        1.0  0.93100  0.56900  0.75000  1.0000
  Cr  Cr1       1.0  0.33500  0.33500  0.00385  1.0000
  Cr  Cr2       1.0  0.16500  0.16500  0.49600  1.0000
  Cr  Cr3       1.0  0.83500  0.83500  0.50400  1.0000
  Cr  Cr4       1.0  0.66500  0.66500  0.99600  1.0000
  N   N1        1.0  0.04330  0.41700  0.12100  1.0000
  N   N2        1.0  0.41700  0.66100  0.12100  1.0000
  N   N3        1.0  0.66100  0.04330  0.12100  1.0000
  N   N4        1.0  0.08340  0.45700  0.37900  1.0000
  N   N5        1.0  0.45700  0.83900  0.37900  1.0000
  N   N6        1.0  0.83900  0.08340  0.37900  1.0000
  N   N7        1.0  0.16100  0.91700  0.62100  1.0000
  N   N8        1.0  0.54300  0.16100  0.62100  1.0000
  N   N9        1.0  0.91700  0.54300  0.62100  1.0000
  N   N10       1.0  0.33900  0.95700  0.87900  1.0000
  N   N11       1.0  0.58300  0.33900  0.87900  1.0000
  N   N12       1.0  0.95700  0.58300  0.87900  1.0000
