data_image0
_chemical_formula_structural       Cl2In10S10
_chemical_formula_sum              "Cl2 In10 S10"
_cell_length_a       9.04183
_cell_length_b       3.97536
_cell_length_c       15.2102
_cell_angle_alpha    90
_cell_angle_beta     93.8348
_cell_angle_gamma    90

_space_group_name_H-M_alt    "P 1"
_space_group_IT_number       1

loop_
  _space_group_symop_operation_xyz
  'x, y, z'

loop_
  _atom_site_type_symbol
  _atom_site_label
  _atom_site_symmetry_multiplicity
  _atom_site_fract_x
  _atom_site_fract_y
  _atom_site_fract_z
  _atom_site_occupancy
  Cl  Cl1       1.0  0.32800  0.25000  0.00501  1.0000
  Cl  Cl2       1.0  0.67200  0.75000  0.99500  1.0000
  In  In1       1.0  0.13400  0.75000  0.06310  1.0000
  In  In2       1.0  0.62000  0.25000  0.15700  1.0000
  In  In3       1.0  0.23700  0.25000  0.29100  1.0000
  In  In4       1.0  0.95500  0.25000  0.35600  1.0000
  In  In5       1.0  0.65800  0.75000  0.44600  1.0000
  In  In6       1.0  0.34200  0.25000  0.55400  1.0000
  In  In7       1.0  0.04470  0.75000  0.64400  1.0000
  In  In8       1.0  0.76300  0.75000  0.70900  1.0000
  In  In9       1.0  0.38000  0.75000  0.84300  1.0000
  In  In10      1.0  0.86600  0.25000  0.93700  1.0000
  S   S1        1.0  0.96600  0.25000  0.10100  1.0000
  S   S2        1.0  0.31900  0.75000  0.19900  1.0000
  S   S3        1.0  0.79100  0.75000  0.29800  1.0000
  S   S4        1.0  0.46700  0.25000  0.40000  1.0000
  S   S5        1.0  0.16700  0.75000  0.49800  1.0000
  S   S6        1.0  0.83300  0.25000  0.50200  1.0000
  S   S7        1.0  0.53300  0.75000  0.60000  1.0000
  S   S8        1.0  0.20900  0.25000  0.70200  1.0000
  S   S9        1.0  0.68100  0.25000  0.80100  1.0000
  S   S10       1.0  0.03370  0.75000  0.89900  1.0000
