data_image0
_chemical_formula_structural       Cs2Cu6Lu4Se10
_chemical_formula_sum              "Cs2 Cu6 Lu4 Se10"
_cell_length_a       4.08623
_cell_length_b       7.6184
_cell_length_c       17.0982
_cell_angle_alpha    90
_cell_angle_beta     90
_cell_angle_gamma    74.4439

_space_group_name_H-M_alt    "P 1"
_space_group_IT_number       1

loop_
  _space_group_symop_operation_xyz
  'x, y, z'

loop_
  _atom_site_type_symbol
  _atom_site_label
  _atom_site_symmetry_multiplicity
  _atom_site_fract_x
  _atom_site_fract_y
  _atom_site_fract_z
  _atom_site_occupancy
  Cs  Cs1       1.0  0.93900  0.12200  0.25000  1.0000
  Cs  Cs2       1.0  0.06100  0.87800  0.75000  1.0000
  Cu  Cu1       1.0  0.41800  0.16400  0.03480  1.0000
  Cu  Cu2       1.0  0.65500  0.69100  0.25000  1.0000
  Cu  Cu3       1.0  0.41800  0.16400  0.46500  1.0000
  Cu  Cu4       1.0  0.58200  0.83600  0.53500  1.0000
  Cu  Cu5       1.0  0.34500  0.30900  0.75000  1.0000
  Cu  Cu6       1.0  0.58200  0.83600  0.96500  1.0000
  Lu  Lu1       1.0  0.19300  0.61500  0.09200  1.0000
  Lu  Lu2       1.0  0.19300  0.61500  0.40800  1.0000
  Lu  Lu3       1.0  0.80700  0.38500  0.59200  1.0000
  Lu  Lu4       1.0  0.80700  0.38500  0.90800  1.0000
  Se  Se1       1.0  0.82900  0.34200  0.06960  1.0000
  Se  Se2       1.0  0.56400  0.87200  0.11200  1.0000
  Se  Se3       1.0  0.23900  0.52200  0.25000  1.0000
  Se  Se4       1.0  0.56400  0.87200  0.38800  1.0000
  Se  Se5       1.0  0.82900  0.34200  0.43000  1.0000
  Se  Se6       1.0  0.17100  0.65800  0.57000  1.0000
  Se  Se7       1.0  0.43600  0.12800  0.61200  1.0000
  Se  Se8       1.0  0.76100  0.47800  0.75000  1.0000
  Se  Se9       1.0  0.43600  0.12800  0.88800  1.0000
  Se  Se10      1.0  0.17100  0.65800  0.93000  1.0000
