data_image0
_chemical_formula_structural       Eu8I12O2
_chemical_formula_sum              "Eu8 I12 O2"
_cell_length_a       10.2987
_cell_length_b       10.2984
_cell_length_c       7.95452
_cell_angle_alpha    90
_cell_angle_beta     90
_cell_angle_gamma    120.001

_space_group_name_H-M_alt    "P 1"
_space_group_IT_number       1

loop_
  _space_group_symop_operation_xyz
  'x, y, z'

loop_
  _atom_site_type_symbol
  _atom_site_label
  _atom_site_symmetry_multiplicity
  _atom_site_fract_x
  _atom_site_fract_y
  _atom_site_fract_z
  _atom_site_occupancy
  Eu  Eu1       1.0  0.20800  0.41600  0.01550  1.0000
  Eu  Eu2       1.0  0.20800  0.79200  0.01560  1.0000
  Eu  Eu3       1.0  0.58400  0.79200  0.01560  1.0000
  Eu  Eu4       1.0  0.33300  0.66700  0.39800  1.0000
  Eu  Eu5       1.0  0.79200  0.58400  0.51600  1.0000
  Eu  Eu6       1.0  0.41600  0.20800  0.51600  1.0000
  Eu  Eu7       1.0  0.79200  0.20800  0.51600  1.0000
  Eu  Eu8       1.0  0.66700  0.33300  0.89800  1.0000
  I   I1        1.0  0.53500  0.07070  0.20700  1.0000
  I   I2        1.0  0.53500  0.46500  0.20700  1.0000
  I   I3        1.0  0.92900  0.46500  0.20700  1.0000
  I   I4        1.0  0.13600  0.86400  0.38900  1.0000
  I   I5        1.0  0.72800  0.86400  0.38900  1.0000
  I   I6        1.0  0.13600  0.27200  0.38900  1.0000
  I   I7        1.0  0.46500  0.92900  0.70700  1.0000
  I   I8        1.0  0.07070  0.53500  0.70700  1.0000
  I   I9        1.0  0.46500  0.53500  0.70700  1.0000
  I   I10       1.0  0.27200  0.13600  0.88900  1.0000
  I   I11       1.0  0.86400  0.13600  0.88900  1.0000
  I   I12       1.0  0.86400  0.72800  0.88900  1.0000
  O   O1        1.0  0.33300  0.66700  0.10600  1.0000
  O   O2        1.0  0.66700  0.33300  0.60600  1.0000
