data_image0
_chemical_formula_structural       Bi4K8O10
_chemical_formula_sum              "Bi4 K8 O10"
_cell_length_a       5.63666
_cell_length_b       9.53393
_cell_length_c       9.75707
_cell_angle_alpha    106.494
_cell_angle_beta     104.841
_cell_angle_gamma    106.398

_space_group_name_H-M_alt    "P 1"
_space_group_IT_number       1

loop_
  _space_group_symop_operation_xyz
  'x, y, z'

loop_
  _atom_site_type_symbol
  _atom_site_label
  _atom_site_symmetry_multiplicity
  _atom_site_fract_x
  _atom_site_fract_y
  _atom_site_fract_z
  _atom_site_occupancy
  Bi  Bi1       1.0  0.89400  0.11800  0.12500  1.0000
  Bi  Bi2       1.0  0.14300  0.54300  0.22700  1.0000
  Bi  Bi3       1.0  0.85700  0.45700  0.77300  1.0000
  Bi  Bi4       1.0  0.10600  0.88200  0.87500  1.0000
  K   K1        1.0  0.60400  0.70300  0.04450  1.0000
  K   K2        1.0  0.39700  0.99000  0.31500  1.0000
  K   K3        1.0  0.63100  0.37900  0.36800  1.0000
  K   K4        1.0  0.87800  0.78800  0.45000  1.0000
  K   K5        1.0  0.12200  0.21200  0.55000  1.0000
  K   K6        1.0  0.36900  0.62100  0.63200  1.0000
  K   K7        1.0  0.60300  0.00974  0.68500  1.0000
  K   K8        1.0  0.39600  0.29700  0.95500  1.0000
  O   O1        1.0  0.26000  0.11600  0.10800  1.0000
  O   O2        1.0  0.76800  0.54200  0.19700  1.0000
  O   O3        1.0  0.86500  0.99300  0.26600  1.0000
  O   O4        1.0  0.12000  0.37300  0.33300  1.0000
  O   O5        1.0  0.35400  0.75300  0.41900  1.0000
  O   O6        1.0  0.64600  0.24700  0.58100  1.0000
  O   O7        1.0  0.88000  0.62700  0.66700  1.0000
  O   O8        1.0  0.13500  0.00687  0.73400  1.0000
  O   O9        1.0  0.23200  0.45800  0.80300  1.0000
  O   O10       1.0  0.74000  0.88400  0.89200  1.0000
