data_image0
_chemical_formula_structural       Br12O2Sr8
_chemical_formula_sum              "Br12 O2 Sr8"
_cell_length_a       9.9512
_cell_length_b       9.95105
_cell_length_c       7.63483
_cell_angle_alpha    90
_cell_angle_beta     90
_cell_angle_gamma    120.001

_space_group_name_H-M_alt    "P 1"
_space_group_IT_number       1

loop_
  _space_group_symop_operation_xyz
  'x, y, z'

loop_
  _atom_site_type_symbol
  _atom_site_label
  _atom_site_symmetry_multiplicity
  _atom_site_fract_x
  _atom_site_fract_y
  _atom_site_fract_z
  _atom_site_occupancy
  Br  Br1       1.0  0.13900  0.27700  0.11400  1.0000
  Br  Br2       1.0  0.13900  0.86100  0.11400  1.0000
  Br  Br3       1.0  0.72300  0.86100  0.11400  1.0000
  Br  Br4       1.0  0.53400  0.46600  0.29300  1.0000
  Br  Br5       1.0  0.93100  0.46600  0.29300  1.0000
  Br  Br6       1.0  0.53400  0.06870  0.29300  1.0000
  Br  Br7       1.0  0.86100  0.72300  0.61400  1.0000
  Br  Br8       1.0  0.27700  0.13900  0.61400  1.0000
  Br  Br9       1.0  0.86100  0.13900  0.61400  1.0000
  Br  Br10      1.0  0.06870  0.53400  0.79300  1.0000
  Br  Br11      1.0  0.46600  0.53400  0.79300  1.0000
  Br  Br12      1.0  0.46600  0.93100  0.79300  1.0000
  O   O1        1.0  0.33300  0.66700  0.39800  1.0000
  O   O2        1.0  0.66700  0.33300  0.89800  1.0000
  Sr  Sr1       1.0  0.33300  0.66700  0.08470  1.0000
  Sr  Sr2       1.0  0.20100  0.79900  0.49700  1.0000
  Sr  Sr3       1.0  0.59800  0.79900  0.49700  1.0000
  Sr  Sr4       1.0  0.20100  0.40200  0.49700  1.0000
  Sr  Sr5       1.0  0.66700  0.33300  0.58500  1.0000
  Sr  Sr6       1.0  0.40200  0.20100  0.99700  1.0000
  Sr  Sr7       1.0  0.79900  0.20100  0.99700  1.0000
  Sr  Sr8       1.0  0.79900  0.59800  0.99700  1.0000
