data_image0
_chemical_formula_structural       C8N12Sr2
_chemical_formula_sum              "C8 N12 Sr2"
_cell_length_a       6.1751
_cell_length_b       7.12098
_cell_length_c       7.99518
_cell_angle_alpha    100.27
_cell_angle_beta     90
_cell_angle_gamma    115.695

_space_group_name_H-M_alt    "P 1"
_space_group_IT_number       1

loop_
  _space_group_symop_operation_xyz
  'x, y, z'

loop_
  _atom_site_type_symbol
  _atom_site_label
  _atom_site_symmetry_multiplicity
  _atom_site_fract_x
  _atom_site_fract_y
  _atom_site_fract_z
  _atom_site_occupancy
  C   C1        1.0  0.52600  0.82300  0.08980  1.0000
  C   C2        1.0  0.23900  0.54800  0.18800  1.0000
  C   C3        1.0  0.69200  0.45200  0.31200  1.0000
  C   C4        1.0  0.70300  0.17700  0.41000  1.0000
  C   C5        1.0  0.29700  0.82300  0.59000  1.0000
  C   C6        1.0  0.30800  0.54800  0.68800  1.0000
  C   C7        1.0  0.76100  0.45200  0.81200  1.0000
  C   C8        1.0  0.47400  0.17700  0.91000  1.0000
  N   N1        1.0  0.71300  0.91900  0.03670  1.0000
  N   N2        1.0  0.31900  0.73700  0.15100  1.0000
  N   N3        1.0  0.15500  0.38000  0.22600  1.0000
  N   N4        1.0  0.77500  0.62000  0.27400  1.0000
  N   N5        1.0  0.58200  0.26300  0.34900  1.0000
  N   N6        1.0  0.79400  0.08120  0.46300  1.0000
  N   N7        1.0  0.20600  0.91900  0.53700  1.0000
  N   N8        1.0  0.41800  0.73700  0.65100  1.0000
  N   N9        1.0  0.22500  0.38000  0.72600  1.0000
  N   N10       1.0  0.84500  0.62000  0.77400  1.0000
  N   N11       1.0  0.68100  0.26300  0.84900  1.0000
  N   N12       1.0  0.28700  0.08120  0.96300  1.0000
  Sr  Sr1       1.0  0.09230  0.00000  0.25000  1.0000
  Sr  Sr2       1.0  0.90800  0.00000  0.75000  1.0000
