data_image0
_chemical_formula_structural       La2O6Tl2
_chemical_formula_sum              "La2 O6 Tl2"
_cell_length_a       3.73918
_cell_length_b       3.73915
_cell_length_c       12.4885
_cell_angle_alpha    90
_cell_angle_beta     90
_cell_angle_gamma    120

_space_group_name_H-M_alt    "P 1"
_space_group_IT_number       1

loop_
  _space_group_symop_operation_xyz
  'x, y, z'

loop_
  _atom_site_type_symbol
  _atom_site_label
  _atom_site_symmetry_multiplicity
  _atom_site_fract_x
  _atom_site_fract_y
  _atom_site_fract_z
  _atom_site_occupancy
  La  La1       1.0  0.00000  0.00000  0.49300  1.0000
  La  La2       1.0  0.00000  0.00000  0.99300  1.0000
  O   O1        1.0  0.33300  0.66700  0.04790  1.0000
  O   O2        1.0  0.00000  1.00000  0.20400  1.0000
  O   O3        1.0  0.33300  0.66700  0.37100  1.0000
  O   O4        1.0  0.66700  0.33300  0.54800  1.0000
  O   O5        1.0  0.00001  0.00000  0.70400  1.0000
  O   O6        1.0  0.66700  0.33300  0.87100  1.0000
  Tl  Tl1       1.0  0.66700  0.33300  0.25900  1.0000
  Tl  Tl2       1.0  0.33300  0.66700  0.75900  1.0000
