data_image0
_chemical_formula_structural       AcAl11Mg17
_chemical_formula_sum              "Ac1 Al11 Mg17"
_cell_length_a       9.59594
_cell_length_b       10.0677
_cell_length_c       8.93922
_cell_angle_alpha    112.911
_cell_angle_beta     110.755
_cell_angle_gamma    108.896

_space_group_name_H-M_alt    "P 1"
_space_group_IT_number       1

loop_
  _space_group_symop_operation_xyz
  'x, y, z'

loop_
  _atom_site_type_symbol
  _atom_site_label
  _atom_site_symmetry_multiplicity
  _atom_site_fract_x
  _atom_site_fract_y
  _atom_site_fract_z
  _atom_site_occupancy
  Ac  Ac1       1.0  0.88300  0.61500  0.00000  1.0000
  Al  Al1       1.0  0.68400  0.81800  0.00000  1.0000
  Al  Al2       1.0  0.36400  0.38100  0.19400  1.0000
  Al  Al3       1.0  0.82100  0.17800  0.19600  1.0000
  Al  Al4       1.0  0.27900  0.91500  0.23200  1.0000
  Al  Al5       1.0  0.18100  0.37300  0.38600  1.0000
  Al  Al6       1.0  0.37900  0.24000  0.40300  1.0000
  Al  Al7       1.0  0.97700  0.83700  0.59700  1.0000
  Al  Al8       1.0  0.79500  0.98700  0.61400  1.0000
  Al  Al9       1.0  0.04710  0.68400  0.76900  1.0000
  Al  Al10      1.0  0.62500  0.98300  0.80400  1.0000
  Al  Al11      1.0  0.17000  0.18700  0.80600  1.0000
  Mg  Mg1       1.0  0.00901  0.00429  0.00000  1.0000
  Mg  Mg2       1.0  0.34500  0.03700  0.00000  1.0000
  Mg  Mg3       1.0  0.60700  0.29700  0.00000  1.0000
  Mg  Mg4       1.0  0.98400  0.31200  1.00000  1.0000
  Mg  Mg5       1.0  0.27700  0.60200  0.00000  1.0000
  Mg  Mg6       1.0  0.64800  0.65800  0.23800  1.0000
  Mg  Mg7       1.0  0.60400  0.97100  0.26800  1.0000
  Mg  Mg8       1.0  0.99200  0.55300  0.37000  1.0000
  Mg  Mg9       1.0  0.01920  0.03690  0.37700  1.0000
  Mg  Mg10      1.0  0.35100  0.70000  0.38100  1.0000
  Mg  Mg11      1.0  0.69500  0.37900  0.41100  1.0000
  Mg  Mg12      1.0  0.28400  0.96800  0.58900  1.0000
  Mg  Mg13      1.0  0.97000  0.31900  0.61900  1.0000
  Mg  Mg14      1.0  0.64200  0.66000  0.62300  1.0000
  Mg  Mg15      1.0  0.62100  0.18200  0.63000  1.0000
  Mg  Mg16      1.0  0.33600  0.70300  0.73200  1.0000
  Mg  Mg17      1.0  0.41000  0.42000  0.76200  1.0000
