data_image0
_chemical_formula_structural       Li12Nb8O48Pb12
_chemical_formula_sum              "Li12 Nb8 O48 Pb12"
_cell_length_a       10.6919
_cell_length_b       10.6919
_cell_length_c       10.6919
_cell_angle_alpha    109.471
_cell_angle_beta     109.471
_cell_angle_gamma    109.471

_space_group_name_H-M_alt    "P 1"
_space_group_IT_number       1

loop_
  _space_group_symop_operation_xyz
  'x, y, z'

loop_
  _atom_site_type_symbol
  _atom_site_label
  _atom_site_symmetry_multiplicity
  _atom_site_fract_x
  _atom_site_fract_y
  _atom_site_fract_z
  _atom_site_occupancy
  Li  Li1       1.0  0.87500  0.75000  0.12500  1.0000
  Li  Li2       1.0  0.75000  0.37500  0.12500  1.0000
  Li  Li3       1.0  0.12500  0.37500  0.25000  1.0000
  Li  Li4       1.0  0.62500  0.87500  0.25000  1.0000
  Li  Li5       1.0  0.25000  0.12500  0.37500  1.0000
  Li  Li6       1.0  0.62500  0.25000  0.37500  1.0000
  Li  Li7       1.0  0.37500  0.75000  0.62500  1.0000
  Li  Li8       1.0  0.75000  0.87500  0.62500  1.0000
  Li  Li9       1.0  0.37500  0.12500  0.75000  1.0000
  Li  Li10      1.0  0.87500  0.62500  0.75000  1.0000
  Li  Li11      1.0  0.12500  0.25000  0.87500  1.0000
  Li  Li12      1.0  0.25000  0.62500  0.87500  1.0000
  Nb  Nb1       1.0  0.00000  0.00000  0.00000  1.0000
  Nb  Nb2       1.0  0.50000  0.00000  0.00000  1.0000
  Nb  Nb3       1.0  0.50000  0.50000  0.00000  1.0000
  Nb  Nb4       1.0  0.00000  0.50000  0.00000  1.0000
  Nb  Nb5       1.0  0.50000  0.00000  0.50000  1.0000
  Nb  Nb6       1.0  0.00000  0.50000  0.50000  1.0000
  Nb  Nb7       1.0  0.00000  0.00000  0.50000  1.0000
  Nb  Nb8       1.0  0.50000  0.50000  0.50000  1.0000
  O   O1        1.0  0.32200  0.40800  0.03010  1.0000
  O   O2        1.0  0.20800  0.62300  0.03010  1.0000
  O   O3        1.0  0.87700  0.90800  0.08580  1.0000
  O   O4        1.0  0.70800  0.17800  0.08580  1.0000
  O   O5        1.0  0.62300  0.91400  0.09240  1.0000
  O   O6        1.0  0.97000  0.17800  0.09240  1.0000
  O   O7        1.0  0.03010  0.70800  0.12300  1.0000
  O   O8        1.0  0.59200  0.41400  0.12300  1.0000
  O   O9        1.0  0.20800  0.08580  0.17800  1.0000
  O   O10       1.0  0.47000  0.09240  0.17800  1.0000
  O   O11       1.0  0.58600  0.67800  0.20800  1.0000
  O   O12       1.0  0.12300  0.53000  0.20800  1.0000
  O   O13       1.0  0.32200  0.41400  0.29200  1.0000
  O   O14       1.0  0.47000  0.87700  0.29200  1.0000
  O   O15       1.0  0.91400  0.79200  0.32200  1.0000
  O   O16       1.0  0.90800  0.53000  0.32200  1.0000
  O   O17       1.0  0.58600  0.40800  0.37700  1.0000
  O   O18       1.0  0.29200  0.97000  0.37700  1.0000
  O   O19       1.0  0.08580  0.37700  0.40800  1.0000
  O   O20       1.0  0.82200  0.03010  0.40800  1.0000
  O   O21       1.0  0.09240  0.12300  0.41400  1.0000
  O   O22       1.0  0.82200  0.29200  0.41400  1.0000
  O   O23       1.0  0.59200  0.67800  0.47000  1.0000
  O   O24       1.0  0.37700  0.79200  0.47000  1.0000
  O   O25       1.0  0.40800  0.32200  0.53000  1.0000
  O   O26       1.0  0.62300  0.20800  0.53000  1.0000
  O   O27       1.0  0.17800  0.70800  0.58600  1.0000
  O   O28       1.0  0.90800  0.87700  0.58600  1.0000
  O   O29       1.0  0.91400  0.62300  0.59200  1.0000
  O   O30       1.0  0.17800  0.97000  0.59200  1.0000
  O   O31       1.0  0.41400  0.59200  0.62300  1.0000
  O   O32       1.0  0.70800  0.03010  0.62300  1.0000
  O   O33       1.0  0.08580  0.20800  0.67800  1.0000
  O   O34       1.0  0.09240  0.47000  0.67800  1.0000
  O   O35       1.0  0.53000  0.12300  0.70800  1.0000
  O   O36       1.0  0.67800  0.58600  0.70800  1.0000
  O   O37       1.0  0.41400  0.32200  0.79200  1.0000
  O   O38       1.0  0.87700  0.47000  0.79200  1.0000
  O   O39       1.0  0.53000  0.90800  0.82200  1.0000
  O   O40       1.0  0.79200  0.91400  0.82200  1.0000
  O   O41       1.0  0.97000  0.29200  0.87700  1.0000
  O   O42       1.0  0.40800  0.58600  0.87700  1.0000
  O   O43       1.0  0.37700  0.08580  0.90800  1.0000
  O   O44       1.0  0.03010  0.82200  0.90800  1.0000
  O   O45       1.0  0.12300  0.09240  0.91400  1.0000
  O   O46       1.0  0.29200  0.82200  0.91400  1.0000
  O   O47       1.0  0.79200  0.37700  0.97000  1.0000
  O   O48       1.0  0.67800  0.59200  0.97000  1.0000
  Pb  Pb1       1.0  0.25000  0.87500  0.12500  1.0000
  Pb  Pb2       1.0  0.37500  0.25000  0.12500  1.0000
  Pb  Pb3       1.0  0.87500  0.12500  0.25000  1.0000
  Pb  Pb4       1.0  0.37500  0.62500  0.25000  1.0000
  Pb  Pb5       1.0  0.75000  0.62500  0.37500  1.0000
  Pb  Pb6       1.0  0.12500  0.75000  0.37500  1.0000
  Pb  Pb7       1.0  0.87500  0.25000  0.62500  1.0000
  Pb  Pb8       1.0  0.25000  0.37500  0.62500  1.0000
  Pb  Pb9       1.0  0.62500  0.37500  0.75000  1.0000
  Pb  Pb10      1.0  0.12500  0.87500  0.75000  1.0000
  Pb  Pb11      1.0  0.75000  0.12500  0.87500  1.0000
  Pb  Pb12      1.0  0.62500  0.75000  0.87500  1.0000
