data_image0
_chemical_formula_structural       Cr8Li12O48W12
_chemical_formula_sum              "Cr8 Li12 O48 W12"
_cell_length_a       9.92046
_cell_length_b       9.92046
_cell_length_c       9.92046
_cell_angle_alpha    109.471
_cell_angle_beta     109.471
_cell_angle_gamma    109.471

_space_group_name_H-M_alt    "P 1"
_space_group_IT_number       1

loop_
  _space_group_symop_operation_xyz
  'x, y, z'

loop_
  _atom_site_type_symbol
  _atom_site_label
  _atom_site_symmetry_multiplicity
  _atom_site_fract_x
  _atom_site_fract_y
  _atom_site_fract_z
  _atom_site_occupancy
  Cr  Cr1       1.0  0.00000  0.00000  0.00000  1.0000
  Cr  Cr2       1.0  0.50000  0.00000  0.00000  1.0000
  Cr  Cr3       1.0  0.00000  0.50000  0.00000  1.0000
  Cr  Cr4       1.0  0.50000  0.50000  0.00000  1.0000
  Cr  Cr5       1.0  0.00000  0.00000  0.50000  1.0000
  Cr  Cr6       1.0  0.50000  0.00000  0.50000  1.0000
  Cr  Cr7       1.0  1.00000  0.50000  0.50000  1.0000
  Cr  Cr8       1.0  0.50000  0.50000  0.50000  1.0000
  Li  Li1       1.0  0.87500  0.75000  0.12500  1.0000
  Li  Li2       1.0  0.75000  0.37500  0.12500  1.0000
  Li  Li3       1.0  0.12500  0.37500  0.25000  1.0000
  Li  Li4       1.0  0.62500  0.87500  0.25000  1.0000
  Li  Li5       1.0  0.25000  0.12500  0.37500  1.0000
  Li  Li6       1.0  0.62500  0.25000  0.37500  1.0000
  Li  Li7       1.0  0.37500  0.75000  0.62500  1.0000
  Li  Li8       1.0  0.75000  0.87500  0.62500  1.0000
  Li  Li9       1.0  0.37500  0.12500  0.75000  1.0000
  Li  Li10      1.0  0.87500  0.62500  0.75000  1.0000
  Li  Li11      1.0  0.25000  0.62500  0.87500  1.0000
  Li  Li12      1.0  0.12500  0.25000  0.87500  1.0000
  O   O1        1.0  0.22500  0.63300  0.04760  1.0000
  O   O2        1.0  0.32300  0.41400  0.04760  1.0000
  O   O3        1.0  0.95200  0.17700  0.08570  1.0000
  O   O4        1.0  0.63300  0.90800  0.08570  1.0000
  O   O5        1.0  0.72500  0.17700  0.09170  1.0000
  O   O6        1.0  0.86700  0.91400  0.09170  1.0000
  O   O7        1.0  0.58600  0.40800  0.13300  1.0000
  O   O8        1.0  0.04760  0.72500  0.13300  1.0000
  O   O9        1.0  0.45200  0.08570  0.17700  1.0000
  O   O10       1.0  0.22500  0.09170  0.17700  1.0000
  O   O11       1.0  0.13300  0.54800  0.22500  1.0000
  O   O12       1.0  0.59200  0.67700  0.22500  1.0000
  O   O13       1.0  0.45200  0.86700  0.27500  1.0000
  O   O14       1.0  0.32300  0.40800  0.27500  1.0000
  O   O15       1.0  0.91400  0.54800  0.32300  1.0000
  O   O16       1.0  0.90800  0.77500  0.32300  1.0000
  O   O17       1.0  0.59200  0.41400  0.36700  1.0000
  O   O18       1.0  0.27500  0.95200  0.36700  1.0000
  O   O19       1.0  0.82300  0.27500  0.40800  1.0000
  O   O20       1.0  0.08570  0.13300  0.40800  1.0000
  O   O21       1.0  0.82300  0.04760  0.41400  1.0000
  O   O22       1.0  0.09170  0.36700  0.41400  1.0000
  O   O23       1.0  0.36700  0.77500  0.45200  1.0000
  O   O24       1.0  0.58600  0.67700  0.45200  1.0000
  O   O25       1.0  0.63300  0.22500  0.54800  1.0000
  O   O26       1.0  0.41400  0.32300  0.54800  1.0000
  O   O27       1.0  0.90800  0.63300  0.58600  1.0000
  O   O28       1.0  0.17700  0.95200  0.58600  1.0000
  O   O29       1.0  0.17700  0.72500  0.59200  1.0000
  O   O30       1.0  0.91400  0.86700  0.59200  1.0000
  O   O31       1.0  0.40800  0.58600  0.63300  1.0000
  O   O32       1.0  0.72500  0.04760  0.63300  1.0000
  O   O33       1.0  0.09170  0.22500  0.67700  1.0000
  O   O34       1.0  0.08570  0.45200  0.67700  1.0000
  O   O35       1.0  0.54800  0.13300  0.72500  1.0000
  O   O36       1.0  0.67700  0.59200  0.72500  1.0000
  O   O37       1.0  0.40800  0.32300  0.77500  1.0000
  O   O38       1.0  0.86700  0.45200  0.77500  1.0000
  O   O39       1.0  0.77500  0.90800  0.82300  1.0000
  O   O40       1.0  0.54800  0.91400  0.82300  1.0000
  O   O41       1.0  0.95200  0.27500  0.86700  1.0000
  O   O42       1.0  0.41400  0.59200  0.86700  1.0000
  O   O43       1.0  0.13300  0.08570  0.90800  1.0000
  O   O44       1.0  0.27500  0.82300  0.90800  1.0000
  O   O45       1.0  0.36700  0.09170  0.91400  1.0000
  O   O46       1.0  0.04760  0.82300  0.91400  1.0000
  O   O47       1.0  0.67700  0.58600  0.95200  1.0000
  O   O48       1.0  0.77500  0.36700  0.95200  1.0000
  W   W1        1.0  0.37500  0.25000  0.12500  1.0000
  W   W2        1.0  0.25000  0.87500  0.12500  1.0000
  W   W3        1.0  0.87500  0.12500  0.25000  1.0000
  W   W4        1.0  0.37500  0.62500  0.25000  1.0000
  W   W5        1.0  0.75000  0.62500  0.37500  1.0000
  W   W6        1.0  0.12500  0.75000  0.37500  1.0000
  W   W7        1.0  0.87500  0.25000  0.62500  1.0000
  W   W8        1.0  0.25000  0.37500  0.62500  1.0000
  W   W9        1.0  0.62500  0.37500  0.75000  1.0000
  W   W10       1.0  0.12500  0.87500  0.75000  1.0000
  W   W11       1.0  0.75000  0.12500  0.87500  1.0000
  W   W12       1.0  0.62500  0.75000  0.87500  1.0000
