data_image0
_chemical_formula_structural       B8H28Mg4
_chemical_formula_sum              "B8 H28 Mg4"
_cell_length_a       7.29596
_cell_length_b       7.97961
_cell_length_c       7.01415
_cell_angle_alpha    83.1311
_cell_angle_beta     99.651
_cell_angle_gamma    84.5026

_space_group_name_H-M_alt    "P 1"
_space_group_IT_number       1

loop_
  _space_group_symop_operation_xyz
  'x, y, z'

loop_
  _atom_site_type_symbol
  _atom_site_label
  _atom_site_symmetry_multiplicity
  _atom_site_fract_x
  _atom_site_fract_y
  _atom_site_fract_z
  _atom_site_occupancy
  B   B1        1.0  0.03250  0.26300  0.16900  1.0000
  B   B2        1.0  0.49200  0.45200  0.26300  1.0000
  B   B3        1.0  0.73800  0.95400  0.48200  1.0000
  B   B4        1.0  0.12100  0.45700  0.63400  1.0000
  B   B5        1.0  0.24200  0.86800  0.77200  1.0000
  B   B6        1.0  0.69200  0.60600  0.77600  1.0000
  B   B7        1.0  0.60200  0.16000  0.87700  1.0000
  B   B8        1.0  0.79700  0.67500  0.96400  1.0000
  H   H1        1.0  0.52600  0.20700  0.00669  1.0000
  H   H2        1.0  0.00576  0.21600  0.01090  1.0000
  H   H3        1.0  0.43300  0.46900  0.08700  1.0000
  H   H4        1.0  0.72100  0.72700  0.09010  1.0000
  H   H5        1.0  0.07790  0.40900  0.14200  1.0000
  H   H6        1.0  0.89800  0.26800  0.25400  1.0000
  H   H7        1.0  0.15300  0.16100  0.28000  1.0000
  H   H8        1.0  0.65500  0.47400  0.31000  1.0000
  H   H9        1.0  0.39900  0.56100  0.32900  1.0000
  H   H10       1.0  0.48300  0.30300  0.33200  1.0000
  H   H11       1.0  0.74200  0.08160  0.37400  1.0000
  H   H12       1.0  0.83400  0.83500  0.43400  1.0000
  H   H13       1.0  0.57600  0.91400  0.46900  1.0000
  H   H14       1.0  0.05860  0.57900  0.50400  1.0000
  H   H15       1.0  0.05370  0.33100  0.58000  1.0000
  H   H16       1.0  0.29200  0.91500  0.61700  1.0000
  H   H17       1.0  0.76000  0.55900  0.64200  1.0000
  H   H18       1.0  0.80000  0.98100  0.64900  1.0000
  H   H19       1.0  0.29300  0.44200  0.65200  1.0000
  H   H20       1.0  0.47500  0.15000  0.74100  1.0000
  H   H21       1.0  0.52400  0.60200  0.74300  1.0000
  H   H22       1.0  0.09660  0.95500  0.77600  1.0000
  H   H23       1.0  0.23300  0.71500  0.77900  1.0000
  H   H24       1.0  0.08460  0.47100  0.79300  1.0000
  H   H25       1.0  0.70600  0.25400  0.81100  1.0000
  H   H26       1.0  0.35200  0.88200  0.92000  1.0000
  H   H27       1.0  0.69800  0.02520  0.94900  1.0000
  H   H28       1.0  0.96500  0.69300  0.99800  1.0000
  Mg  Mg1       1.0  0.70300  0.38900  0.04050  1.0000
  Mg  Mg2       1.0  0.24100  0.36800  0.39200  1.0000
  Mg  Mg3       1.0  0.95900  0.73100  0.70100  1.0000
  Mg  Mg4       1.0  0.56100  0.89500  0.75800  1.0000
