data_image0
_chemical_formula_structural       Mo3Ti
_chemical_formula_sum              "Mo3 Ti1"
_cell_length_a       3.16654
_cell_length_b       4.4339
_cell_length_c       5.24076
_cell_angle_alpha    115.025
_cell_angle_beta     107.584
_cell_angle_gamma    90

_space_group_name_H-M_alt    "P 1"
_space_group_IT_number       1

loop_
  _space_group_symop_operation_xyz
  'x, y, z'

loop_
  _atom_site_type_symbol
  _atom_site_label
  _atom_site_symmetry_multiplicity
  _atom_site_fract_x
  _atom_site_fract_y
  _atom_site_fract_z
  _atom_site_occupancy
  Mo  Mo1       1.0  0.50000  0.00000  0.00000  1.0000
  Mo  Mo2       1.0  0.24400  0.24400  0.48800  1.0000
  Mo  Mo3       1.0  0.75600  0.75600  0.51200  1.0000
  Ti  Ti1       1.0  0.00000  0.50000  0.00000  1.0000
