data_image0
_chemical_formula_structural       Al6La2
_chemical_formula_sum              "Al6 La2"
_cell_length_a       6.70395
_cell_length_b       6.70439
_cell_length_c       4.58732
_cell_angle_alpha    90
_cell_angle_beta     90
_cell_angle_gamma    119.998

_space_group_name_H-M_alt    "P 1"
_space_group_IT_number       1

loop_
  _space_group_symop_operation_xyz
  'x, y, z'

loop_
  _atom_site_type_symbol
  _atom_site_label
  _atom_site_symmetry_multiplicity
  _atom_site_fract_x
  _atom_site_fract_y
  _atom_site_fract_z
  _atom_site_occupancy
  Al  Al1       1.0  0.27700  0.13800  0.25000  1.0000
  Al  Al2       1.0  0.86200  0.13800  0.25000  1.0000
  Al  Al3       1.0  0.86200  0.72300  0.25000  1.0000
  Al  Al4       1.0  0.13800  0.27700  0.75000  1.0000
  Al  Al5       1.0  0.13800  0.86200  0.75000  1.0000
  Al  Al6       1.0  0.72300  0.86200  0.75000  1.0000
  La  La1       1.0  0.33300  0.66700  0.25000  1.0000
  La  La2       1.0  0.66700  0.33300  0.75000  1.0000
