data_image0
_chemical_formula_structural       Hf3Ni9
_chemical_formula_sum              "Hf3 Ni9"
_cell_length_a       5.27011
_cell_length_b       5.27011
_cell_length_c       7.09273
_cell_angle_alpha    68.1909
_cell_angle_beta     111.809
_cell_angle_gamma    120

_space_group_name_H-M_alt    "P 1"
_space_group_IT_number       1

loop_
  _space_group_symop_operation_xyz
  'x, y, z'

loop_
  _atom_site_type_symbol
  _atom_site_label
  _atom_site_symmetry_multiplicity
  _atom_site_fract_x
  _atom_site_fract_y
  _atom_site_fract_z
  _atom_site_occupancy
  Hf  Hf1       1.0  0.00000  0.00000  0.00000  1.0000
  Hf  Hf2       1.0  0.78100  0.21900  0.34400  1.0000
  Hf  Hf3       1.0  0.21900  0.78100  0.65600  1.0000
  Ni  Ni1       1.0  0.50000  0.00000  0.00000  1.0000
  Ni  Ni2       1.0  0.00000  0.50000  0.00000  1.0000
  Ni  Ni3       1.0  0.50000  0.50000  0.00000  1.0000
  Ni  Ni4       1.0  0.28800  0.24600  0.33000  1.0000
  Ni  Ni5       1.0  0.28800  0.71200  0.33000  1.0000
  Ni  Ni6       1.0  0.75400  0.71200  0.33000  1.0000
  Ni  Ni7       1.0  0.24600  0.28800  0.67000  1.0000
  Ni  Ni8       1.0  0.71200  0.28800  0.67000  1.0000
  Ni  Ni9       1.0  0.71200  0.75400  0.67000  1.0000
