data_image0
_chemical_formula_structural       Fe8Li12O48W12
_chemical_formula_sum              "Fe8 Li12 O48 W12"
_cell_length_a       9.91371
_cell_length_b       9.91371
_cell_length_c       9.91371
_cell_angle_alpha    109.471
_cell_angle_beta     109.471
_cell_angle_gamma    109.471

_space_group_name_H-M_alt    "P 1"
_space_group_IT_number       1

loop_
  _space_group_symop_operation_xyz
  'x, y, z'

loop_
  _atom_site_type_symbol
  _atom_site_label
  _atom_site_symmetry_multiplicity
  _atom_site_fract_x
  _atom_site_fract_y
  _atom_site_fract_z
  _atom_site_occupancy
  Fe  Fe1       1.0  0.00000  0.00000  0.00000  1.0000
  Fe  Fe2       1.0  0.50000  0.00000  0.00000  1.0000
  Fe  Fe3       1.0  0.00000  0.50000  0.00000  1.0000
  Fe  Fe4       1.0  0.50000  0.50000  0.00000  1.0000
  Fe  Fe5       1.0  0.00000  0.00000  0.50000  1.0000
  Fe  Fe6       1.0  0.50000  0.50000  0.50000  1.0000
  Fe  Fe7       1.0  0.50000  0.00000  0.50000  1.0000
  Fe  Fe8       1.0  1.00000  0.50000  0.50000  1.0000
  Li  Li1       1.0  0.75000  0.37500  0.12500  1.0000
  Li  Li2       1.0  0.87500  0.75000  0.12500  1.0000
  Li  Li3       1.0  0.12500  0.37500  0.25000  1.0000
  Li  Li4       1.0  0.62500  0.87500  0.25000  1.0000
  Li  Li5       1.0  0.25000  0.12500  0.37500  1.0000
  Li  Li6       1.0  0.62500  0.25000  0.37500  1.0000
  Li  Li7       1.0  0.75000  0.87500  0.62500  1.0000
  Li  Li8       1.0  0.37500  0.75000  0.62500  1.0000
  Li  Li9       1.0  0.37500  0.12500  0.75000  1.0000
  Li  Li10      1.0  0.87500  0.62500  0.75000  1.0000
  Li  Li11      1.0  0.25000  0.62500  0.87500  1.0000
  Li  Li12      1.0  0.12500  0.25000  0.87500  1.0000
  O   O1        1.0  0.22700  0.63200  0.04790  1.0000
  O   O2        1.0  0.32100  0.41600  0.04790  1.0000
  O   O3        1.0  0.95200  0.17900  0.08450  1.0000
  O   O4        1.0  0.63200  0.90500  0.08450  1.0000
  O   O5        1.0  0.86800  0.91600  0.09470  1.0000
  O   O6        1.0  0.72700  0.17900  0.09470  1.0000
  O   O7        1.0  0.58400  0.40500  0.13200  1.0000
  O   O8        1.0  0.04790  0.72700  0.13200  1.0000
  O   O9        1.0  0.45200  0.08450  0.17900  1.0000
  O   O10       1.0  0.22700  0.09470  0.17900  1.0000
  O   O11       1.0  0.13200  0.54800  0.22700  1.0000
  O   O12       1.0  0.59500  0.67900  0.22700  1.0000
  O   O13       1.0  0.45200  0.86800  0.27300  1.0000
  O   O14       1.0  0.32100  0.40500  0.27300  1.0000
  O   O15       1.0  0.91600  0.54800  0.32100  1.0000
  O   O16       1.0  0.90500  0.77300  0.32100  1.0000
  O   O17       1.0  0.27300  0.95200  0.36800  1.0000
  O   O18       1.0  0.59500  0.41600  0.36800  1.0000
  O   O19       1.0  0.08450  0.13200  0.40500  1.0000
  O   O20       1.0  0.82100  0.27300  0.40500  1.0000
  O   O21       1.0  0.09470  0.36800  0.41600  1.0000
  O   O22       1.0  0.82100  0.04790  0.41600  1.0000
  O   O23       1.0  0.36800  0.77300  0.45200  1.0000
  O   O24       1.0  0.58400  0.67900  0.45200  1.0000
  O   O25       1.0  0.63200  0.22700  0.54800  1.0000
  O   O26       1.0  0.41600  0.32100  0.54800  1.0000
  O   O27       1.0  0.17900  0.95200  0.58400  1.0000
  O   O28       1.0  0.90500  0.63200  0.58400  1.0000
  O   O29       1.0  0.17900  0.72700  0.59500  1.0000
  O   O30       1.0  0.91600  0.86800  0.59500  1.0000
  O   O31       1.0  0.72700  0.04790  0.63200  1.0000
  O   O32       1.0  0.40500  0.58400  0.63200  1.0000
  O   O33       1.0  0.09470  0.22700  0.67900  1.0000
  O   O34       1.0  0.08450  0.45200  0.67900  1.0000
  O   O35       1.0  0.54800  0.13200  0.72700  1.0000
  O   O36       1.0  0.67900  0.59500  0.72700  1.0000
  O   O37       1.0  0.40500  0.32100  0.77300  1.0000
  O   O38       1.0  0.86800  0.45200  0.77300  1.0000
  O   O39       1.0  0.77300  0.90500  0.82100  1.0000
  O   O40       1.0  0.54800  0.91600  0.82100  1.0000
  O   O41       1.0  0.41600  0.59500  0.86800  1.0000
  O   O42       1.0  0.95200  0.27300  0.86800  1.0000
  O   O43       1.0  0.13200  0.08450  0.90500  1.0000
  O   O44       1.0  0.27300  0.82100  0.90500  1.0000
  O   O45       1.0  0.04790  0.82100  0.91600  1.0000
  O   O46       1.0  0.36800  0.09470  0.91600  1.0000
  O   O47       1.0  0.77300  0.36800  0.95200  1.0000
  O   O48       1.0  0.67900  0.58400  0.95200  1.0000
  W   W1        1.0  0.37500  0.25000  0.12500  1.0000
  W   W2        1.0  0.25000  0.87500  0.12500  1.0000
  W   W3        1.0  0.37500  0.62500  0.25000  1.0000
  W   W4        1.0  0.87500  0.12500  0.25000  1.0000
  W   W5        1.0  0.75000  0.62500  0.37500  1.0000
  W   W6        1.0  0.12500  0.75000  0.37500  1.0000
  W   W7        1.0  0.87500  0.25000  0.62500  1.0000
  W   W8        1.0  0.25000  0.37500  0.62500  1.0000
  W   W9        1.0  0.12500  0.87500  0.75000  1.0000
  W   W10       1.0  0.62500  0.37500  0.75000  1.0000
  W   W11       1.0  0.75000  0.12500  0.87500  1.0000
  W   W12       1.0  0.62500  0.75000  0.87500  1.0000
