data_image0
_chemical_formula_structural       Re2Ti6
_chemical_formula_sum              "Re2 Ti6"
_cell_length_a       5.67744
_cell_length_b       5.67744
_cell_length_c       4.63391
_cell_angle_alpha    90
_cell_angle_beta     90
_cell_angle_gamma    120

_space_group_name_H-M_alt    "P 1"
_space_group_IT_number       1

loop_
  _space_group_symop_operation_xyz
  'x, y, z'

loop_
  _atom_site_type_symbol
  _atom_site_label
  _atom_site_symmetry_multiplicity
  _atom_site_fract_x
  _atom_site_fract_y
  _atom_site_fract_z
  _atom_site_occupancy
  Re  Re1       1.0  0.66700  0.33300  0.25000  1.0000
  Re  Re2       1.0  0.33300  0.66700  0.75000  1.0000
  Ti  Ti1       1.0  0.17100  0.34300  0.25000  1.0000
  Ti  Ti2       1.0  0.17100  0.82900  0.25000  1.0000
  Ti  Ti3       1.0  0.65700  0.82900  0.25000  1.0000
  Ti  Ti4       1.0  0.34300  0.17100  0.75000  1.0000
  Ti  Ti5       1.0  0.82900  0.17100  0.75000  1.0000
  Ti  Ti6       1.0  0.82900  0.65700  0.75000  1.0000
