data_image0
_chemical_formula_structural       Mo2Ni6
_chemical_formula_sum              "Mo2 Ni6"
_cell_length_a       5.0253
_cell_length_b       4.22113
_cell_length_c       4.45011
_cell_angle_alpha    90
_cell_angle_beta     90
_cell_angle_gamma    90

_space_group_name_H-M_alt    "P 1"
_space_group_IT_number       1

loop_
  _space_group_symop_operation_xyz
  'x, y, z'

loop_
  _atom_site_type_symbol
  _atom_site_label
  _atom_site_symmetry_multiplicity
  _atom_site_fract_x
  _atom_site_fract_y
  _atom_site_fract_z
  _atom_site_occupancy
  Mo  Mo1       1.0  0.75000  0.75000  0.34400  1.0000
  Mo  Mo2       1.0  0.25000  0.25000  0.65600  1.0000
  Ni  Ni1       1.0  0.99900  0.25000  0.15900  1.0000
  Ni  Ni2       1.0  0.50100  0.25000  0.15900  1.0000
  Ni  Ni3       1.0  0.25000  0.75000  0.33500  1.0000
  Ni  Ni4       1.0  0.75000  0.25000  0.66500  1.0000
  Ni  Ni5       1.0  0.00124  0.75000  0.84100  1.0000
  Ni  Ni6       1.0  0.49900  0.75000  0.84100  1.0000
