data_image0
_chemical_formula_structural       Al9Tb3
_chemical_formula_sum              "Al9 Tb3"
_cell_length_a       6.20926
_cell_length_b       6.20926
_cell_length_c       7.9153
_cell_angle_alpha    113.093
_cell_angle_beta     66.9066
_cell_angle_gamma    120

_space_group_name_H-M_alt    "P 1"
_space_group_IT_number       1

loop_
  _space_group_symop_operation_xyz
  'x, y, z'

loop_
  _atom_site_type_symbol
  _atom_site_label
  _atom_site_symmetry_multiplicity
  _atom_site_fract_x
  _atom_site_fract_y
  _atom_site_fract_z
  _atom_site_occupancy
  Al  Al1       1.0  0.50000  0.00000  0.00000  1.0000
  Al  Al2       1.0  0.00000  0.50000  0.00000  1.0000
  Al  Al3       1.0  0.50000  0.50000  0.00000  1.0000
  Al  Al4       1.0  0.26300  0.29700  0.33100  1.0000
  Al  Al5       1.0  0.70300  0.29700  0.33100  1.0000
  Al  Al6       1.0  0.70300  0.73700  0.33100  1.0000
  Al  Al7       1.0  0.29700  0.26300  0.66900  1.0000
  Al  Al8       1.0  0.29700  0.70300  0.66900  1.0000
  Al  Al9       1.0  0.73700  0.70300  0.66900  1.0000
  Tb  Tb1       1.0  0.00000  0.00000  0.00000  1.0000
  Tb  Tb2       1.0  0.21800  0.78200  0.34600  1.0000
  Tb  Tb3       1.0  0.78200  0.21800  0.65400  1.0000
