data_image0
_chemical_formula_structural       Nb2Ni6
_chemical_formula_sum              "Nb2 Ni6"
_cell_length_a       5.11513
_cell_length_b       4.24383
_cell_length_c       4.54104
_cell_angle_alpha    90
_cell_angle_beta     90
_cell_angle_gamma    90

_space_group_name_H-M_alt    "P 1"
_space_group_IT_number       1

loop_
  _space_group_symop_operation_xyz
  'x, y, z'

loop_
  _atom_site_type_symbol
  _atom_site_label
  _atom_site_symmetry_multiplicity
  _atom_site_fract_x
  _atom_site_fract_y
  _atom_site_fract_z
  _atom_site_occupancy
  Nb  Nb1       1.0  0.75000  0.75000  0.34900  1.0000
  Nb  Nb2       1.0  0.25000  0.25000  0.65100  1.0000
  Ni  Ni1       1.0  0.00084  0.25000  0.15900  1.0000
  Ni  Ni2       1.0  0.49900  0.25000  0.15900  1.0000
  Ni  Ni3       1.0  0.25000  0.75000  0.31800  1.0000
  Ni  Ni4       1.0  0.75000  0.25000  0.68200  1.0000
  Ni  Ni5       1.0  0.50100  0.75000  0.84100  1.0000
  Ni  Ni6       1.0  0.99900  0.75000  0.84100  1.0000
