data_image0
_chemical_formula_structural       Cu2O6Ta2
_chemical_formula_sum              "Cu2 O6 Ta2"
_cell_length_a       5.21947
_cell_length_b       5.21947
_cell_length_c       5.54977
_cell_angle_alpha    61.95
_cell_angle_beta     118.05
_cell_angle_gamma    120

_space_group_name_H-M_alt    "P 1"
_space_group_IT_number       1

loop_
  _space_group_symop_operation_xyz
  'x, y, z'

loop_
  _atom_site_type_symbol
  _atom_site_label
  _atom_site_symmetry_multiplicity
  _atom_site_fract_x
  _atom_site_fract_y
  _atom_site_fract_z
  _atom_site_occupancy
  Cu  Cu1       1.0  0.75700  0.24300  0.27000  1.0000
  Cu  Cu2       1.0  0.25700  0.74300  0.77000  1.0000
  O   O1        1.0  0.36900  0.86200  0.26100  1.0000
  O   O2        1.0  0.75400  0.63100  0.26100  1.0000
  O   O3        1.0  0.13800  0.24600  0.26100  1.0000
  O   O4        1.0  0.86900  0.74600  0.76100  1.0000
  O   O5        1.0  0.25400  0.36200  0.76100  1.0000
  O   O6        1.0  0.63800  0.13100  0.76100  1.0000
  Ta  Ta1       1.0  0.00314  0.99700  0.00941  1.0000
  Ta  Ta2       1.0  0.50300  0.49700  0.50900  1.0000
