data_image0
_chemical_formula_structural       FeTa3
_chemical_formula_sum              "Fe1 Ta3"
_cell_length_a       5.2691
_cell_length_b       5.2691
_cell_length_c       5.2691
_cell_angle_alpha    137.182
_cell_angle_beta     137.182
_cell_angle_gamma    62.1585

_space_group_name_H-M_alt    "P 1"
_space_group_IT_number       1

loop_
  _space_group_symop_operation_xyz
  'x, y, z'

loop_
  _atom_site_type_symbol
  _atom_site_label
  _atom_site_symmetry_multiplicity
  _atom_site_fract_x
  _atom_site_fract_y
  _atom_site_fract_z
  _atom_site_occupancy
  Fe  Fe1       1.0  0.00000  0.00000  0.00000  1.0000
  Ta  Ta1       1.0  0.50000  0.50000  0.00000  1.0000
  Ta  Ta2       1.0  0.75000  0.25000  0.50000  1.0000
  Ta  Ta3       1.0  0.25000  0.75000  0.50000  1.0000
