data_image0
_chemical_formula_structural       Ag2Bi2O6
_chemical_formula_sum              "Ag2 Bi2 O6"
_cell_length_a       5.69819
_cell_length_b       5.69819
_cell_length_c       6.18164
_cell_angle_alpha    117.445
_cell_angle_beta     62.555
_cell_angle_gamma    120

_space_group_name_H-M_alt    "P 1"
_space_group_IT_number       1

loop_
  _space_group_symop_operation_xyz
  'x, y, z'

loop_
  _atom_site_type_symbol
  _atom_site_label
  _atom_site_symmetry_multiplicity
  _atom_site_fract_x
  _atom_site_fract_y
  _atom_site_fract_z
  _atom_site_occupancy
  Ag  Ag1       1.0  0.86800  0.13200  0.39700  1.0000
  Ag  Ag2       1.0  0.13200  0.86800  0.60300  1.0000
  Bi  Bi1       1.0  0.65600  0.34400  0.03200  1.0000
  Bi  Bi2       1.0  0.34400  0.65600  0.96800  1.0000
  O   O1        1.0  0.94100  0.70900  0.23100  1.0000
  O   O2        1.0  0.53700  0.05910  0.23100  1.0000
  O   O3        1.0  0.29100  0.46300  0.23100  1.0000
  O   O4        1.0  0.70900  0.53700  0.76900  1.0000
  O   O5        1.0  0.46300  0.94100  0.76900  1.0000
  O   O6        1.0  0.05910  0.29100  0.76900  1.0000
