data_image0
_chemical_formula_structural       Al9Gd3
_chemical_formula_sum              "Al9 Gd3"
_cell_length_a       6.24404
_cell_length_b       6.24404
_cell_length_c       7.92762
_cell_angle_alpha    90
_cell_angle_beta     113.192
_cell_angle_gamma    120

_space_group_name_H-M_alt    "P 1"
_space_group_IT_number       1

loop_
  _space_group_symop_operation_xyz
  'x, y, z'

loop_
  _atom_site_type_symbol
  _atom_site_label
  _atom_site_symmetry_multiplicity
  _atom_site_fract_x
  _atom_site_fract_y
  _atom_site_fract_z
  _atom_site_occupancy
  Al  Al1       1.0  0.50000  0.00000  0.00000  1.0000
  Al  Al2       1.0  0.50000  0.50000  0.00000  1.0000
  Al  Al3       1.0  0.00000  0.50000  0.00000  1.0000
  Al  Al4       1.0  0.03230  0.29800  0.33000  1.0000
  Al  Al5       1.0  0.59600  0.29800  0.33000  1.0000
  Al  Al6       1.0  0.03230  0.73500  0.33000  1.0000
  Al  Al7       1.0  0.96800  0.26500  0.67000  1.0000
  Al  Al8       1.0  0.40400  0.70200  0.67000  1.0000
  Al  Al9       1.0  0.96800  0.70200  0.67000  1.0000
  Gd  Gd1       1.0  0.00000  0.00000  0.00000  1.0000
  Gd  Gd2       1.0  0.56500  0.78300  0.34800  1.0000
  Gd  Gd3       1.0  0.43500  0.21700  0.65200  1.0000
