data_image0
_chemical_formula_structural       Cl6La2
_chemical_formula_sum              "Cl6 La2"
_cell_length_a       7.52596
_cell_length_b       7.52576
_cell_length_c       4.35364
_cell_angle_alpha    90
_cell_angle_beta     90
_cell_angle_gamma    120

_space_group_name_H-M_alt    "P 1"
_space_group_IT_number       1

loop_
  _space_group_symop_operation_xyz
  'x, y, z'

loop_
  _atom_site_type_symbol
  _atom_site_label
  _atom_site_symmetry_multiplicity
  _atom_site_fract_x
  _atom_site_fract_y
  _atom_site_fract_z
  _atom_site_occupancy
  Cl  Cl1       1.0  0.69800  0.08630  0.25000  1.0000
  Cl  Cl2       1.0  0.38800  0.30200  0.25000  1.0000
  Cl  Cl3       1.0  0.91400  0.61200  0.25000  1.0000
  Cl  Cl4       1.0  0.08630  0.38800  0.75000  1.0000
  Cl  Cl5       1.0  0.61200  0.69800  0.75000  1.0000
  Cl  Cl6       1.0  0.30200  0.91400  0.75000  1.0000
  La  La1       1.0  0.33300  0.66700  0.25000  1.0000
  La  La2       1.0  0.66700  0.33300  0.75000  1.0000
