data_image0
_chemical_formula_structural       Ac6Al2
_chemical_formula_sum              "Ac6 Al2"
_cell_length_a       7.63354
_cell_length_b       7.63354
_cell_length_c       5.80384
_cell_angle_alpha    90
_cell_angle_beta     90
_cell_angle_gamma    120

_space_group_name_H-M_alt    "P 1"
_space_group_IT_number       1

loop_
  _space_group_symop_operation_xyz
  'x, y, z'

loop_
  _atom_site_type_symbol
  _atom_site_label
  _atom_site_symmetry_multiplicity
  _atom_site_fract_x
  _atom_site_fract_y
  _atom_site_fract_z
  _atom_site_occupancy
  Ac  Ac1       1.0  0.17800  0.35500  0.25000  1.0000
  Ac  Ac2       1.0  0.17800  0.82200  0.25000  1.0000
  Ac  Ac3       1.0  0.64500  0.82200  0.25000  1.0000
  Ac  Ac4       1.0  0.35500  0.17800  0.75000  1.0000
  Ac  Ac5       1.0  0.82200  0.17800  0.75000  1.0000
  Ac  Ac6       1.0  0.82200  0.64500  0.75000  1.0000
  Al  Al1       1.0  0.66700  0.33300  0.25000  1.0000
  Al  Al2       1.0  0.33300  0.66700  0.75000  1.0000
