data_image0
_chemical_formula_structural       Gd10In8Pt4
_chemical_formula_sum              "Gd10 In8 Pt4"
_cell_length_a       18.335
_cell_length_b       8.10501
_cell_length_c       3.69663
_cell_angle_alpha    90
_cell_angle_beta     90
_cell_angle_gamma    90

_space_group_name_H-M_alt    "P 1"
_space_group_IT_number       1

loop_
  _space_group_symop_operation_xyz
  'x, y, z'

loop_
  _atom_site_type_symbol
  _atom_site_label
  _atom_site_symmetry_multiplicity
  _atom_site_fract_x
  _atom_site_fract_y
  _atom_site_fract_z
  _atom_site_occupancy
  Gd  Gd1       1.0  0.00000  0.00000  0.00000  1.0000
  Gd  Gd2       1.0  0.41600  0.11600  0.00000  1.0000
  Gd  Gd3       1.0  0.22100  0.24200  0.00000  1.0000
  Gd  Gd4       1.0  0.72100  0.25800  0.00000  1.0000
  Gd  Gd5       1.0  0.91600  0.38400  0.00000  1.0000
  Gd  Gd6       1.0  0.50000  0.50000  0.00000  1.0000
  Gd  Gd7       1.0  0.08410  0.61600  0.00000  1.0000
  Gd  Gd8       1.0  0.27900  0.74200  0.00000  1.0000
  Gd  Gd9       1.0  0.77900  0.75800  0.00000  1.0000
  Gd  Gd10      1.0  0.58400  0.88400  0.00000  1.0000
  In  In1       1.0  0.85200  0.07440  0.50000  1.0000
  In  In2       1.0  0.56800  0.21100  0.50000  1.0000
  In  In3       1.0  0.06810  0.28900  0.50000  1.0000
  In  In4       1.0  0.35200  0.42600  0.50000  1.0000
  In  In5       1.0  0.64800  0.57400  0.50000  1.0000
  In  In6       1.0  0.93200  0.71100  0.50000  1.0000
  In  In7       1.0  0.43200  0.78900  0.50000  1.0000
  In  In8       1.0  0.14800  0.92600  0.50000  1.0000
  Pt  Pt1       1.0  0.30400  0.02410  0.50000  1.0000
  Pt  Pt2       1.0  0.80400  0.47600  0.50000  1.0000
  Pt  Pt3       1.0  0.19600  0.52400  0.50000  1.0000
  Pt  Pt4       1.0  0.69600  0.97600  0.50000  1.0000
