data_image0
_chemical_formula_structural       Cl18Nb2Te2
_chemical_formula_sum              "Cl18 Nb2 Te2"
_cell_length_a       11.3366
_cell_length_b       9.3218
_cell_length_c       6.4373
_cell_angle_alpha    90.9843
_cell_angle_beta     106.934
_cell_angle_gamma    105.538

_space_group_name_H-M_alt    "P 1"
_space_group_IT_number       1

loop_
  _space_group_symop_operation_xyz
  'x, y, z'

loop_
  _atom_site_type_symbol
  _atom_site_label
  _atom_site_symmetry_multiplicity
  _atom_site_fract_x
  _atom_site_fract_y
  _atom_site_fract_z
  _atom_site_occupancy
  Cl  Cl1       1.0  0.27700  0.96000  0.00659  1.0000
  Cl  Cl2       1.0  0.93900  0.80200  0.04970  1.0000
  Cl  Cl3       1.0  0.17000  0.60400  0.09440  1.0000
  Cl  Cl4       1.0  0.48300  0.74900  0.13500  1.0000
  Cl  Cl5       1.0  0.70300  0.50800  0.27000  1.0000
  Cl  Cl6       1.0  0.37200  0.36200  0.27700  1.0000
  Cl  Cl7       1.0  0.60700  0.14800  0.38400  1.0000
  Cl  Cl8       1.0  0.91400  0.30300  0.41100  1.0000
  Cl  Cl9       1.0  0.16300  0.11300  0.47700  1.0000
  Cl  Cl10      1.0  0.83700  0.88700  0.52300  1.0000
  Cl  Cl11      1.0  0.08610  0.69700  0.58900  1.0000
  Cl  Cl12      1.0  0.39300  0.85200  0.61600  1.0000
  Cl  Cl13      1.0  0.62800  0.63800  0.72300  1.0000
  Cl  Cl14      1.0  0.29700  0.49200  0.73000  1.0000
  Cl  Cl15      1.0  0.51700  0.25100  0.86500  1.0000
  Cl  Cl16      1.0  0.83000  0.39600  0.90600  1.0000
  Cl  Cl17      1.0  0.06100  0.19800  0.95000  1.0000
  Cl  Cl18      1.0  0.72300  0.03970  0.99300  1.0000
  Nb  Nb1       1.0  0.70400  0.25700  0.13500  1.0000
  Nb  Nb2       1.0  0.29600  0.74300  0.86500  1.0000
  Te  Te1       1.0  0.16400  0.33200  0.29700  1.0000
  Te  Te2       1.0  0.83600  0.66800  0.70300  1.0000
