data_image0
_chemical_formula_structural       B12Ce4Re6
_chemical_formula_sum              "B12 Ce4 Re6"
_cell_length_a       6.35897
_cell_length_b       6.35897
_cell_length_c       7.65783
_cell_angle_alpha    90.4855
_cell_angle_beta     90.4855
_cell_angle_gamma    115.117

_space_group_name_H-M_alt    "P 1"
_space_group_IT_number       1

loop_
  _space_group_symop_operation_xyz
  'x, y, z'

loop_
  _atom_site_type_symbol
  _atom_site_label
  _atom_site_symmetry_multiplicity
  _atom_site_fract_x
  _atom_site_fract_y
  _atom_site_fract_z
  _atom_site_occupancy
  B   B1        1.0  0.41500  0.84200  0.01970  1.0000
  B   B2        1.0  0.44100  0.35000  0.03270  1.0000
  B   B3        1.0  0.15300  0.24100  0.13300  1.0000
  B   B4        1.0  0.75900  0.84700  0.36700  1.0000
  B   B5        1.0  0.65000  0.55900  0.46700  1.0000
  B   B6        1.0  0.15800  0.58500  0.48000  1.0000
  B   B7        1.0  0.84200  0.41500  0.52000  1.0000
  B   B8        1.0  0.35000  0.44100  0.53300  1.0000
  B   B9        1.0  0.24100  0.15300  0.63300  1.0000
  B   B10       1.0  0.84700  0.75900  0.86700  1.0000
  B   B11       1.0  0.55900  0.65000  0.96700  1.0000
  B   B12       1.0  0.58500  0.15800  0.98000  1.0000
  Ce  Ce1       1.0  0.91000  0.56000  0.17300  1.0000
  Ce  Ce2       1.0  0.44000  0.09030  0.32700  1.0000
  Ce  Ce3       1.0  0.56000  0.91000  0.67300  1.0000
  Ce  Ce4       1.0  0.09030  0.44000  0.82700  1.0000
  Re  Re1       1.0  0.80400  0.98900  0.08750  1.0000
  Re  Re2       1.0  0.41700  0.58300  0.25000  1.0000
  Re  Re3       1.0  0.01110  0.19600  0.41200  1.0000
  Re  Re4       1.0  0.98900  0.80400  0.58800  1.0000
  Re  Re5       1.0  0.58300  0.41700  0.75000  1.0000
  Re  Re6       1.0  0.19600  0.01110  0.91200  1.0000
