data_image0
_chemical_formula_structural       B14Ho6Mn2
_chemical_formula_sum              "B14 Ho6 Mn2"
_cell_length_a       3.41604
_cell_length_b       7.99964
_cell_length_c       9.25693
_cell_angle_alpha    90
_cell_angle_beta     90
_cell_angle_gamma    77.6718

_space_group_name_H-M_alt    "P 1"
_space_group_IT_number       1

loop_
  _space_group_symop_operation_xyz
  'x, y, z'

loop_
  _atom_site_type_symbol
  _atom_site_label
  _atom_site_symmetry_multiplicity
  _atom_site_fract_x
  _atom_site_fract_y
  _atom_site_fract_z
  _atom_site_occupancy
  B   B1        1.0  0.27300  0.45500  0.03270  1.0000
  B   B2        1.0  0.47900  0.04270  0.09790  1.0000
  B   B3        1.0  0.37000  0.26000  0.15300  1.0000
  B   B4        1.0  0.54100  0.91800  0.25000  1.0000
  B   B5        1.0  0.37000  0.26000  0.34700  1.0000
  B   B6        1.0  0.47900  0.04270  0.40200  1.0000
  B   B7        1.0  0.27300  0.45500  0.46700  1.0000
  B   B8        1.0  0.72700  0.54500  0.53300  1.0000
  B   B9        1.0  0.52100  0.95700  0.59800  1.0000
  B   B10       1.0  0.63000  0.74000  0.65300  1.0000
  B   B11       1.0  0.45900  0.08200  0.75000  1.0000
  B   B12       1.0  0.63000  0.74000  0.84700  1.0000
  B   B13       1.0  0.52100  0.95700  0.90200  1.0000
  B   B14       1.0  0.72700  0.54500  0.96700  1.0000
  Ho  Ho1       1.0  0.10400  0.79100  0.05990  1.0000
  Ho  Ho2       1.0  0.75900  0.48200  0.25000  1.0000
  Ho  Ho3       1.0  0.10400  0.79100  0.44000  1.0000
  Ho  Ho4       1.0  0.89600  0.20900  0.56000  1.0000
  Ho  Ho5       1.0  0.24100  0.51800  0.75000  1.0000
  Ho  Ho6       1.0  0.89600  0.20900  0.94000  1.0000
  Mn  Mn1       1.0  0.94600  0.10700  0.25000  1.0000
  Mn  Mn2       1.0  0.05370  0.89300  0.75000  1.0000
