data_image0
_chemical_formula_structural       B14Mn2Tb6
_chemical_formula_sum              "B14 Mn2 Tb6"
_cell_length_a       3.44974
_cell_length_b       8.09292
_cell_length_c       9.32081
_cell_angle_alpha    90
_cell_angle_beta     90
_cell_angle_gamma    77.694

_space_group_name_H-M_alt    "P 1"
_space_group_IT_number       1

loop_
  _space_group_symop_operation_xyz
  'x, y, z'

loop_
  _atom_site_type_symbol
  _atom_site_label
  _atom_site_symmetry_multiplicity
  _atom_site_fract_x
  _atom_site_fract_y
  _atom_site_fract_z
  _atom_site_occupancy
  B   B1        1.0  0.27300  0.45400  0.03210  1.0000
  B   B2        1.0  0.47800  0.04440  0.09870  1.0000
  B   B3        1.0  0.37000  0.26000  0.15300  1.0000
  B   B4        1.0  0.53800  0.92300  0.25000  1.0000
  B   B5        1.0  0.37000  0.26000  0.34700  1.0000
  B   B6        1.0  0.47800  0.04440  0.40100  1.0000
  B   B7        1.0  0.27300  0.45400  0.46800  1.0000
  B   B8        1.0  0.72700  0.54600  0.53200  1.0000
  B   B9        1.0  0.52200  0.95600  0.59900  1.0000
  B   B10       1.0  0.63000  0.74000  0.65300  1.0000
  B   B11       1.0  0.46200  0.07670  0.75000  1.0000
  B   B12       1.0  0.63000  0.74000  0.84700  1.0000
  B   B13       1.0  0.52200  0.95600  0.90100  1.0000
  B   B14       1.0  0.72700  0.54600  0.96800  1.0000
  Mn  Mn1       1.0  0.94600  0.10800  0.25000  1.0000
  Mn  Mn2       1.0  0.05400  0.89200  0.75000  1.0000
  Tb  Tb1       1.0  0.10400  0.79200  0.06070  1.0000
  Tb  Tb2       1.0  0.76000  0.48000  0.25000  1.0000
  Tb  Tb3       1.0  0.10400  0.79200  0.43900  1.0000
  Tb  Tb4       1.0  0.89600  0.20800  0.56100  1.0000
  Tb  Tb5       1.0  0.24000  0.52000  0.75000  1.0000
  Tb  Tb6       1.0  0.89600  0.20800  0.93900  1.0000
