data_image0
_chemical_formula_structural       Fe4In4Se10
_chemical_formula_sum              "Fe4 In4 Se10"
_cell_length_a       4.00635
_cell_length_b       3.99894
_cell_length_c       33.5492
_cell_angle_alpha    90.0771
_cell_angle_beta     89.9461
_cell_angle_gamma    120.286

_space_group_name_H-M_alt    "P 1"
_space_group_IT_number       1

loop_
  _space_group_symop_operation_xyz
  'x, y, z'

loop_
  _atom_site_type_symbol
  _atom_site_label
  _atom_site_symmetry_multiplicity
  _atom_site_fract_x
  _atom_site_fract_y
  _atom_site_fract_z
  _atom_site_occupancy
  Fe  Fe1       1.0  0.33400  0.66900  0.19000  1.0000
  Fe  Fe2       1.0  0.66800  0.33800  0.29600  1.0000
  Fe  Fe3       1.0  0.33800  0.66300  0.70300  1.0000
  Fe  Fe4       1.0  0.66800  0.33300  0.81000  1.0000
  In  In1       1.0  0.99800  0.99600  0.08700  1.0000
  In  In2       1.0  0.00000  0.00052  0.41100  1.0000
  In  In3       1.0  0.99700  0.00102  0.58900  1.0000
  In  In4       1.0  0.99900  0.00098  0.91300  1.0000
  Se  Se1       1.0  0.33100  0.66400  0.04800  1.0000
  Se  Se2       1.0  0.00126  0.00070  0.16500  1.0000
  Se  Se3       1.0  0.33400  0.66700  0.26000  1.0000
  Se  Se4       1.0  0.99900  0.99900  0.33500  1.0000
  Se  Se5       1.0  0.33300  0.66800  0.45000  1.0000
  Se  Se6       1.0  0.66400  0.33300  0.55000  1.0000
  Se  Se7       1.0  0.00143  0.99900  0.66600  1.0000
  Se  Se8       1.0  0.66700  0.33400  0.74000  1.0000
  Se  Se9       1.0  0.00037  0.00134  0.83400  1.0000
  Se  Se10      1.0  0.66600  0.33300  0.95100  1.0000
