data_image0
_chemical_formula_structural       Ce6Ni12Si4
_chemical_formula_sum              "Ce6 Ni12 Si4"
_cell_length_a       7.79558
_cell_length_b       7.79558
_cell_length_c       7.79558
_cell_angle_alpha    109.471
_cell_angle_beta     109.471
_cell_angle_gamma    109.471

_space_group_name_H-M_alt    "P 1"
_space_group_IT_number       1

loop_
  _space_group_symop_operation_xyz
  'x, y, z'

loop_
  _atom_site_type_symbol
  _atom_site_label
  _atom_site_symmetry_multiplicity
  _atom_site_fract_x
  _atom_site_fract_y
  _atom_site_fract_z
  _atom_site_occupancy
  Ce  Ce1       1.0  0.28500  0.28500  0.00000  1.0000
  Ce  Ce2       1.0  0.71500  0.71500  0.00000  1.0000
  Ce  Ce3       1.0  0.28500  0.00000  0.28500  1.0000
  Ce  Ce4       1.0  0.00000  0.28500  0.28500  1.0000
  Ce  Ce5       1.0  0.71500  0.00000  0.71500  1.0000
  Ce  Ce6       1.0  0.00000  0.71500  0.71500  1.0000
  Ni  Ni1       1.0  0.67000  0.33000  0.00000  1.0000
  Ni  Ni2       1.0  0.33000  0.67000  0.00000  1.0000
  Ni  Ni3       1.0  0.67000  0.00000  0.33000  1.0000
  Ni  Ni4       1.0  0.66100  0.33000  0.33000  1.0000
  Ni  Ni5       1.0  0.33000  0.66100  0.33000  1.0000
  Ni  Ni6       1.0  0.00000  0.67000  0.33000  1.0000
  Ni  Ni7       1.0  0.67000  0.67000  0.33900  1.0000
  Ni  Ni8       1.0  0.33000  0.33000  0.66100  1.0000
  Ni  Ni9       1.0  0.33000  0.00000  0.67000  1.0000
  Ni  Ni10      1.0  0.00000  0.33000  0.67000  1.0000
  Ni  Ni11      1.0  0.67000  0.33900  0.67000  1.0000
  Ni  Ni12      1.0  0.33900  0.67000  0.67000  1.0000
  Si  Si1       1.0  0.50000  0.00000  0.00000  1.0000
  Si  Si2       1.0  0.00000  0.50000  0.00000  1.0000
  Si  Si3       1.0  0.00000  0.00000  0.50000  1.0000
  Si  Si4       1.0  0.50000  0.50000  0.50000  1.0000
