data_image0
_chemical_formula_structural       Cl18Ta2Te2
_chemical_formula_sum              "Cl18 Ta2 Te2"
_cell_length_a       11.362
_cell_length_b       9.38619
_cell_length_c       6.45229
_cell_angle_alpha    90.73
_cell_angle_beta     106.619
_cell_angle_gamma    105.68

_space_group_name_H-M_alt    "P 1"
_space_group_IT_number       1

loop_
  _space_group_symop_operation_xyz
  'x, y, z'

loop_
  _atom_site_type_symbol
  _atom_site_label
  _atom_site_symmetry_multiplicity
  _atom_site_fract_x
  _atom_site_fract_y
  _atom_site_fract_z
  _atom_site_occupancy
  Cl  Cl1       1.0  0.27500  0.95600  0.00677  1.0000
  Cl  Cl2       1.0  0.93700  0.80100  0.04620  1.0000
  Cl  Cl3       1.0  0.16900  0.60500  0.09800  1.0000
  Cl  Cl4       1.0  0.48100  0.74700  0.12800  1.0000
  Cl  Cl5       1.0  0.70800  0.50700  0.26900  1.0000
  Cl  Cl6       1.0  0.37200  0.36200  0.27700  1.0000
  Cl  Cl7       1.0  0.61300  0.14900  0.38400  1.0000
  Cl  Cl8       1.0  0.91600  0.30500  0.40400  1.0000
  Cl  Cl9       1.0  0.16300  0.11600  0.48000  1.0000
  Cl  Cl10      1.0  0.83700  0.88400  0.52000  1.0000
  Cl  Cl11      1.0  0.08380  0.69500  0.59600  1.0000
  Cl  Cl12      1.0  0.38700  0.85100  0.61600  1.0000
  Cl  Cl13      1.0  0.62800  0.63800  0.72300  1.0000
  Cl  Cl14      1.0  0.29200  0.49300  0.73100  1.0000
  Cl  Cl15      1.0  0.51900  0.25300  0.87200  1.0000
  Cl  Cl16      1.0  0.83100  0.39500  0.90200  1.0000
  Cl  Cl17      1.0  0.06250  0.19900  0.95400  1.0000
  Cl  Cl18      1.0  0.72500  0.04410  0.99300  1.0000
  Ta  Ta1       1.0  0.70700  0.26000  0.13400  1.0000
  Ta  Ta2       1.0  0.29300  0.74000  0.86600  1.0000
  Te  Te1       1.0  0.16500  0.33200  0.29800  1.0000
  Te  Te2       1.0  0.83500  0.66800  0.70200  1.0000
