data_image0
_chemical_formula_structural       Cr4O14Tl4
_chemical_formula_sum              "Cr4 O14 Tl4"
_cell_length_a       7.22456
_cell_length_b       7.30708
_cell_length_c       7.5791
_cell_angle_alpha    110.261
_cell_angle_beta     90.6433
_cell_angle_gamma    107.663

_space_group_name_H-M_alt    "P 1"
_space_group_IT_number       1

loop_
  _space_group_symop_operation_xyz
  'x, y, z'

loop_
  _atom_site_type_symbol
  _atom_site_label
  _atom_site_symmetry_multiplicity
  _atom_site_fract_x
  _atom_site_fract_y
  _atom_site_fract_z
  _atom_site_occupancy
  Cr  Cr1       1.0  0.58500  0.88900  0.22800  1.0000
  Cr  Cr2       1.0  0.19900  0.52500  0.25200  1.0000
  Cr  Cr3       1.0  0.80100  0.47500  0.74800  1.0000
  Cr  Cr4       1.0  0.41500  0.11100  0.77200  1.0000
  O   O1        1.0  0.68200  0.92900  0.04600  1.0000
  O   O2        1.0  0.03190  0.33100  0.09150  1.0000
  O   O3        1.0  0.36700  0.66800  0.13700  1.0000
  O   O4        1.0  0.52800  0.09140  0.35200  1.0000
  O   O5        1.0  0.74500  0.85000  0.35400  1.0000
  O   O6        1.0  0.31400  0.43100  0.36900  1.0000
  O   O7        1.0  0.08680  0.66600  0.39700  1.0000
  O   O8        1.0  0.91300  0.33400  0.60300  1.0000
  O   O9        1.0  0.68600  0.56900  0.63100  1.0000
  O   O10       1.0  0.25500  0.15000  0.64600  1.0000
  O   O11       1.0  0.47200  0.90900  0.64800  1.0000
  O   O12       1.0  0.63300  0.33200  0.86300  1.0000
  O   O13       1.0  0.96800  0.66900  0.90800  1.0000
  O   O14       1.0  0.31800  0.07100  0.95400  1.0000
  Tl  Tl1       1.0  0.69300  0.41900  0.25400  1.0000
  Tl  Tl2       1.0  0.11800  0.01350  0.25500  1.0000
  Tl  Tl3       1.0  0.88200  0.98600  0.74500  1.0000
  Tl  Tl4       1.0  0.30700  0.58100  0.74600  1.0000
