data_image0
_chemical_formula_structural       B14Er6Re2
_chemical_formula_sum              "B14 Er6 Re2"
_cell_length_a       3.50812
_cell_length_b       8.0135
_cell_length_c       9.28387
_cell_angle_alpha    90
_cell_angle_beta     90
_cell_angle_gamma    77.3563

_space_group_name_H-M_alt    "P 1"
_space_group_IT_number       1

loop_
  _space_group_symop_operation_xyz
  'x, y, z'

loop_
  _atom_site_type_symbol
  _atom_site_label
  _atom_site_symmetry_multiplicity
  _atom_site_fract_x
  _atom_site_fract_y
  _atom_site_fract_z
  _atom_site_occupancy
  B   B1        1.0  0.27300  0.45400  0.03340  1.0000
  B   B2        1.0  0.48000  0.04020  0.09460  1.0000
  B   B3        1.0  0.36800  0.26500  0.15000  1.0000
  B   B4        1.0  0.54500  0.91100  0.25000  1.0000
  B   B5        1.0  0.36800  0.26500  0.35000  1.0000
  B   B6        1.0  0.48000  0.04020  0.40500  1.0000
  B   B7        1.0  0.27300  0.45400  0.46700  1.0000
  B   B8        1.0  0.72700  0.54600  0.53300  1.0000
  B   B9        1.0  0.52000  0.96000  0.59500  1.0000
  B   B10       1.0  0.63200  0.73500  0.65000  1.0000
  B   B11       1.0  0.45500  0.08900  0.75000  1.0000
  B   B12       1.0  0.63200  0.73500  0.85000  1.0000
  B   B13       1.0  0.52000  0.96000  0.90500  1.0000
  B   B14       1.0  0.72700  0.54600  0.96700  1.0000
  Er  Er1       1.0  0.10500  0.78900  0.05980  1.0000
  Er  Er2       1.0  0.75700  0.48500  0.25000  1.0000
  Er  Er3       1.0  0.10500  0.78900  0.44000  1.0000
  Er  Er4       1.0  0.89500  0.21100  0.56000  1.0000
  Er  Er5       1.0  0.24300  0.51500  0.75000  1.0000
  Er  Er6       1.0  0.89500  0.21100  0.94000  1.0000
  Re  Re1       1.0  0.94700  0.10600  0.25000  1.0000
  Re  Re2       1.0  0.05280  0.89400  0.75000  1.0000
