data_image0
_chemical_formula_structural       B14Re2Tm6
_chemical_formula_sum              "B14 Re2 Tm6"
_cell_length_a       3.49336
_cell_length_b       7.97741
_cell_length_c       9.2548
_cell_angle_alpha    90
_cell_angle_beta     90
_cell_angle_gamma    77.3524

_space_group_name_H-M_alt    "P 1"
_space_group_IT_number       1

loop_
  _space_group_symop_operation_xyz
  'x, y, z'

loop_
  _atom_site_type_symbol
  _atom_site_label
  _atom_site_symmetry_multiplicity
  _atom_site_fract_x
  _atom_site_fract_y
  _atom_site_fract_z
  _atom_site_occupancy
  B   B1        1.0  0.27300  0.45500  0.03360  1.0000
  B   B2        1.0  0.48000  0.03970  0.09420  1.0000
  B   B3        1.0  0.36700  0.26500  0.15000  1.0000
  B   B4        1.0  0.54500  0.90900  0.25000  1.0000
  B   B5        1.0  0.36700  0.26500  0.35000  1.0000
  B   B6        1.0  0.48000  0.03970  0.40600  1.0000
  B   B7        1.0  0.27300  0.45500  0.46600  1.0000
  B   B8        1.0  0.72700  0.54500  0.53400  1.0000
  B   B9        1.0  0.52000  0.96000  0.59400  1.0000
  B   B10       1.0  0.63300  0.73500  0.65000  1.0000
  B   B11       1.0  0.45500  0.09090  0.75000  1.0000
  B   B12       1.0  0.63300  0.73500  0.85000  1.0000
  B   B13       1.0  0.52000  0.96000  0.90600  1.0000
  B   B14       1.0  0.72700  0.54500  0.96600  1.0000
  Re  Re1       1.0  0.94700  0.10600  0.25000  1.0000
  Re  Re2       1.0  0.05280  0.89400  0.75000  1.0000
  Tm  Tm1       1.0  0.10600  0.78900  0.05980  1.0000
  Tm  Tm2       1.0  0.75700  0.48600  0.25000  1.0000
  Tm  Tm3       1.0  0.10600  0.78900  0.44000  1.0000
  Tm  Tm4       1.0  0.89400  0.21100  0.56000  1.0000
  Tm  Tm5       1.0  0.24300  0.51400  0.75000  1.0000
  Tm  Tm6       1.0  0.89400  0.21100  0.94000  1.0000
