data_image0
_chemical_formula_structural       Hg2O14P4Pd2
_chemical_formula_sum              "Hg2 O14 P4 Pd2"
_cell_length_a       4.82049
_cell_length_b       7.48486
_cell_length_c       8.82183
_cell_angle_alpha    99.4087
_cell_angle_beta     90
_cell_angle_gamma    108.785

_space_group_name_H-M_alt    "P 1"
_space_group_IT_number       1

loop_
  _space_group_symop_operation_xyz
  'x, y, z'

loop_
  _atom_site_type_symbol
  _atom_site_label
  _atom_site_symmetry_multiplicity
  _atom_site_fract_x
  _atom_site_fract_y
  _atom_site_fract_z
  _atom_site_occupancy
  Hg  Hg1       1.0  0.50000  0.50000  0.00000  1.0000
  Hg  Hg2       1.0  0.00000  0.50000  0.50000  1.0000
  O   O1        1.0  0.07410  0.78100  0.08580  1.0000
  O   O2        1.0  0.33000  0.21100  0.11900  1.0000
  O   O3        1.0  0.41300  0.63900  0.21300  1.0000
  O   O4        1.0  0.53100  0.00000  0.25000  1.0000
  O   O5        1.0  0.77400  0.36100  0.28700  1.0000
  O   O6        1.0  0.11900  0.78900  0.38100  1.0000
  O   O7        1.0  0.29300  0.21900  0.41400  1.0000
  O   O8        1.0  0.70700  0.78100  0.58600  1.0000
  O   O9        1.0  0.88100  0.21100  0.61900  1.0000
  O   O10       1.0  0.22600  0.63900  0.71300  1.0000
  O   O11       1.0  0.46900  0.00000  0.75000  1.0000
  O   O12       1.0  0.58700  0.36100  0.78700  1.0000
  O   O13       1.0  0.67000  0.78900  0.88100  1.0000
  O   O14       1.0  0.92600  0.21900  0.91400  1.0000
  P   P1        1.0  0.27000  0.79500  0.22700  1.0000
  P   P2        1.0  0.47500  0.20500  0.27300  1.0000
  P   P3        1.0  0.52500  0.79500  0.72700  1.0000
  P   P4        1.0  0.73000  0.20500  0.77300  1.0000
  Pd  Pd1       1.0  0.00000  0.00000  0.00000  1.0000
  Pd  Pd2       1.0  0.00000  0.00000  0.50000  1.0000
