data_image0
_chemical_formula_structural       B14Er6Fe2
_chemical_formula_sum              "B14 Er6 Fe2"
_cell_length_a       3.38673
_cell_length_b       7.94413
_cell_length_c       9.23203
_cell_angle_alpha    90
_cell_angle_beta     90
_cell_angle_gamma    77.6924

_space_group_name_H-M_alt    "P 1"
_space_group_IT_number       1

loop_
  _space_group_symop_operation_xyz
  'x, y, z'

loop_
  _atom_site_type_symbol
  _atom_site_label
  _atom_site_symmetry_multiplicity
  _atom_site_fract_x
  _atom_site_fract_y
  _atom_site_fract_z
  _atom_site_occupancy
  B   B1        1.0  0.27200  0.45500  0.03350  1.0000
  B   B2        1.0  0.47900  0.04220  0.09820  1.0000
  B   B3        1.0  0.37000  0.26000  0.15300  1.0000
  B   B4        1.0  0.54200  0.91600  0.25000  1.0000
  B   B5        1.0  0.37000  0.26000  0.34700  1.0000
  B   B6        1.0  0.47900  0.04220  0.40200  1.0000
  B   B7        1.0  0.27200  0.45500  0.46700  1.0000
  B   B8        1.0  0.72800  0.54500  0.53300  1.0000
  B   B9        1.0  0.52100  0.95800  0.59800  1.0000
  B   B10       1.0  0.63000  0.74000  0.65300  1.0000
  B   B11       1.0  0.45800  0.08390  0.75000  1.0000
  B   B12       1.0  0.63000  0.74000  0.84700  1.0000
  B   B13       1.0  0.52100  0.95800  0.90200  1.0000
  B   B14       1.0  0.72800  0.54500  0.96700  1.0000
  Er  Er1       1.0  0.10500  0.79000  0.05990  1.0000
  Er  Er2       1.0  0.75700  0.48700  0.25000  1.0000
  Er  Er3       1.0  0.10500  0.79000  0.44000  1.0000
  Er  Er4       1.0  0.89500  0.21000  0.56000  1.0000
  Er  Er5       1.0  0.24300  0.51300  0.75000  1.0000
  Er  Er6       1.0  0.89500  0.21000  0.94000  1.0000
  Fe  Fe1       1.0  0.94600  0.10700  0.25000  1.0000
  Fe  Fe2       1.0  0.05360  0.89300  0.75000  1.0000
