data_image0
_chemical_formula_structural       Cl16Ga4Ni2
_chemical_formula_sum              "Cl16 Ga4 Ni2"
_cell_length_a       7.62199
_cell_length_b       9.30259
_cell_length_c       9.54885
_cell_angle_alpha    104.165
_cell_angle_beta     66.4778
_cell_angle_gamma    114.184

_space_group_name_H-M_alt    "P 1"
_space_group_IT_number       1

loop_
  _space_group_symop_operation_xyz
  'x, y, z'

loop_
  _atom_site_type_symbol
  _atom_site_label
  _atom_site_symmetry_multiplicity
  _atom_site_fract_x
  _atom_site_fract_y
  _atom_site_fract_z
  _atom_site_occupancy
  Cl  Cl1       1.0  0.85500  0.71100  0.01760  1.0000
  Cl  Cl2       1.0  0.32600  0.73000  0.05580  1.0000
  Cl  Cl3       1.0  0.70900  0.05050  0.19500  1.0000
  Cl  Cl4       1.0  0.15300  0.05390  0.22600  1.0000
  Cl  Cl5       1.0  0.32500  0.44600  0.27400  1.0000
  Cl  Cl6       1.0  0.85400  0.45000  0.30500  1.0000
  Cl  Cl7       1.0  0.65200  0.77000  0.44400  1.0000
  Cl  Cl8       1.0  0.16200  0.78900  0.48200  1.0000
  Cl  Cl9       1.0  0.83800  0.21100  0.51800  1.0000
  Cl  Cl10      1.0  0.34800  0.23000  0.55600  1.0000
  Cl  Cl11      1.0  0.14600  0.55000  0.69500  1.0000
  Cl  Cl12      1.0  0.67500  0.55400  0.72600  1.0000
  Cl  Cl13      1.0  0.84700  0.94600  0.77400  1.0000
  Cl  Cl14      1.0  0.29100  0.95000  0.80500  1.0000
  Cl  Cl15      1.0  0.67400  0.27000  0.94400  1.0000
  Cl  Cl16      1.0  0.14500  0.28900  0.98200  1.0000
  Ga  Ga1       1.0  0.16400  0.86100  0.03560  1.0000
  Ga  Ga2       1.0  0.33900  0.63900  0.46400  1.0000
  Ga  Ga3       1.0  0.66100  0.36100  0.53600  1.0000
  Ga  Ga4       1.0  0.83600  0.13900  0.96400  1.0000
  Ni  Ni1       1.0  0.00286  0.25000  0.25000  1.0000
  Ni  Ni2       1.0  0.99700  0.75000  0.75000  1.0000
