data_image0
_chemical_formula_structural       B14Gd6Re2
_chemical_formula_sum              "B14 Gd6 Re2"
_cell_length_a       3.56214
_cell_length_b       8.16815
_cell_length_c       9.40577
_cell_angle_alpha    90
_cell_angle_beta     90
_cell_angle_gamma    77.4054

_space_group_name_H-M_alt    "P 1"
_space_group_IT_number       1

loop_
  _space_group_symop_operation_xyz
  'x, y, z'

loop_
  _atom_site_type_symbol
  _atom_site_label
  _atom_site_symmetry_multiplicity
  _atom_site_fract_x
  _atom_site_fract_y
  _atom_site_fract_z
  _atom_site_occupancy
  B   B1        1.0  0.27300  0.45300  0.03310  1.0000
  B   B2        1.0  0.47900  0.04260  0.09610  1.0000
  B   B3        1.0  0.36800  0.26400  0.15100  1.0000
  B   B4        1.0  0.54100  0.91900  0.25000  1.0000
  B   B5        1.0  0.36800  0.26400  0.34900  1.0000
  B   B6        1.0  0.47900  0.04260  0.40400  1.0000
  B   B7        1.0  0.27300  0.45300  0.46700  1.0000
  B   B8        1.0  0.72700  0.54700  0.53300  1.0000
  B   B9        1.0  0.52100  0.95700  0.59600  1.0000
  B   B10       1.0  0.63200  0.73600  0.65100  1.0000
  B   B11       1.0  0.45900  0.08110  0.75000  1.0000
  B   B12       1.0  0.63200  0.73600  0.84900  1.0000
  B   B13       1.0  0.52100  0.95700  0.90400  1.0000
  B   B14       1.0  0.72700  0.54700  0.96700  1.0000
  Gd  Gd1       1.0  0.10500  0.79000  0.06050  1.0000
  Gd  Gd2       1.0  0.75800  0.48400  0.25000  1.0000
  Gd  Gd3       1.0  0.10500  0.79000  0.43900  1.0000
  Gd  Gd4       1.0  0.89500  0.21000  0.56100  1.0000
  Gd  Gd5       1.0  0.24200  0.51600  0.75000  1.0000
  Gd  Gd6       1.0  0.89500  0.21000  0.93900  1.0000
  Re  Re1       1.0  0.94600  0.10700  0.25000  1.0000
  Re  Re2       1.0  0.05360  0.89300  0.75000  1.0000
