data_image0
_chemical_formula_structural       B14Gd6Mn2
_chemical_formula_sum              "B14 Gd6 Mn2"
_cell_length_a       3.46097
_cell_length_b       8.13515
_cell_length_c       9.36568
_cell_angle_alpha    90
_cell_angle_beta     90
_cell_angle_gamma    77.7184

_space_group_name_H-M_alt    "P 1"
_space_group_IT_number       1

loop_
  _space_group_symop_operation_xyz
  'x, y, z'

loop_
  _atom_site_type_symbol
  _atom_site_label
  _atom_site_symmetry_multiplicity
  _atom_site_fract_x
  _atom_site_fract_y
  _atom_site_fract_z
  _atom_site_occupancy
  B   B1        1.0  0.27300  0.45400  0.03190  1.0000
  B   B2        1.0  0.47700  0.04520  0.09920  1.0000
  B   B3        1.0  0.37000  0.26000  0.15300  1.0000
  B   B4        1.0  0.53800  0.92500  0.25000  1.0000
  B   B5        1.0  0.37000  0.26000  0.34700  1.0000
  B   B6        1.0  0.47700  0.04520  0.40100  1.0000
  B   B7        1.0  0.27300  0.45400  0.46800  1.0000
  B   B8        1.0  0.72700  0.54600  0.53200  1.0000
  B   B9        1.0  0.52300  0.95500  0.59900  1.0000
  B   B10       1.0  0.63000  0.74000  0.65300  1.0000
  B   B11       1.0  0.46200  0.07500  0.75000  1.0000
  B   B12       1.0  0.63000  0.74000  0.84700  1.0000
  B   B13       1.0  0.52300  0.95500  0.90100  1.0000
  B   B14       1.0  0.72700  0.54600  0.96800  1.0000
  Gd  Gd1       1.0  0.10400  0.79200  0.06100  1.0000
  Gd  Gd2       1.0  0.75900  0.48100  0.25000  1.0000
  Gd  Gd3       1.0  0.10400  0.79200  0.43900  1.0000
  Gd  Gd4       1.0  0.89600  0.20800  0.56100  1.0000
  Gd  Gd5       1.0  0.24100  0.51900  0.75000  1.0000
  Gd  Gd6       1.0  0.89600  0.20800  0.93900  1.0000
  Mn  Mn1       1.0  0.94600  0.10900  0.25000  1.0000
  Mn  Mn2       1.0  0.05450  0.89100  0.75000  1.0000
