data_image0
_chemical_formula_structural       B14Mn2Y6
_chemical_formula_sum              "B14 Mn2 Y6"
_cell_length_a       3.43482
_cell_length_b       8.05442
_cell_length_c       9.29742
_cell_angle_alpha    90
_cell_angle_beta     90
_cell_angle_gamma    77.6885

_space_group_name_H-M_alt    "P 1"
_space_group_IT_number       1

loop_
  _space_group_symop_operation_xyz
  'x, y, z'

loop_
  _atom_site_type_symbol
  _atom_site_label
  _atom_site_symmetry_multiplicity
  _atom_site_fract_x
  _atom_site_fract_y
  _atom_site_fract_z
  _atom_site_occupancy
  B   B1        1.0  0.27200  0.45500  0.03270  1.0000
  B   B2        1.0  0.47800  0.04330  0.09800  1.0000
  B   B3        1.0  0.37000  0.26000  0.15300  1.0000
  B   B4        1.0  0.54000  0.92100  0.25000  1.0000
  B   B5        1.0  0.37000  0.26000  0.34700  1.0000
  B   B6        1.0  0.47800  0.04330  0.40200  1.0000
  B   B7        1.0  0.27200  0.45500  0.46700  1.0000
  B   B8        1.0  0.72800  0.54500  0.53300  1.0000
  B   B9        1.0  0.52200  0.95700  0.59800  1.0000
  B   B10       1.0  0.63000  0.74000  0.65300  1.0000
  B   B11       1.0  0.46000  0.07920  0.75000  1.0000
  B   B12       1.0  0.63000  0.74000  0.84700  1.0000
  B   B13       1.0  0.52200  0.95700  0.90200  1.0000
  B   B14       1.0  0.72800  0.54500  0.96700  1.0000
  Mn  Mn1       1.0  0.94700  0.10700  0.25000  1.0000
  Mn  Mn2       1.0  0.05350  0.89300  0.75000  1.0000
  Y   Y1        1.0  0.10400  0.79100  0.06070  1.0000
  Y   Y2        1.0  0.75900  0.48100  0.25000  1.0000
  Y   Y3        1.0  0.10400  0.79100  0.43900  1.0000
  Y   Y4        1.0  0.89600  0.20900  0.56100  1.0000
  Y   Y5        1.0  0.24100  0.51900  0.75000  1.0000
  Y   Y6        1.0  0.89600  0.20900  0.93900  1.0000
