data_image0
_chemical_formula_structural       La4Mo4O14
_chemical_formula_sum              "La4 Mo4 O14"
_cell_length_a       6.04007
_cell_length_b       12.1085
_cell_length_c       3.89799
_cell_angle_alpha    90
_cell_angle_beta     90
_cell_angle_gamma    90

_space_group_name_H-M_alt    "P 1"
_space_group_IT_number       1

loop_
  _space_group_symop_operation_xyz
  'x, y, z'

loop_
  _atom_site_type_symbol
  _atom_site_label
  _atom_site_symmetry_multiplicity
  _atom_site_fract_x
  _atom_site_fract_y
  _atom_site_fract_z
  _atom_site_occupancy
  La  La1       1.0  0.40900  0.34200  0.00000  1.0000
  La  La2       1.0  0.59100  0.65800  0.00000  1.0000
  La  La3       1.0  0.90900  0.15800  0.50000  1.0000
  La  La4       1.0  0.09140  0.84200  0.50000  1.0000
  Mo  Mo1       1.0  0.31800  0.04820  0.00000  1.0000
  Mo  Mo2       1.0  0.68200  0.95200  0.00000  1.0000
  Mo  Mo3       1.0  0.81800  0.45200  0.50000  1.0000
  Mo  Mo4       1.0  0.18200  0.54800  0.50000  1.0000
  O   O1        1.0  0.00000  0.00000  0.00000  1.0000
  O   O2        1.0  0.62500  0.12000  0.00000  1.0000
  O   O3        1.0  0.15500  0.20100  0.00000  1.0000
  O   O4        1.0  0.79600  0.45000  0.00000  1.0000
  O   O5        1.0  0.20400  0.55000  0.00000  1.0000
  O   O6        1.0  0.84500  0.79900  0.00000  1.0000
  O   O7        1.0  0.37500  0.88000  0.00000  1.0000
  O   O8        1.0  0.29600  0.04990  0.50000  1.0000
  O   O9        1.0  0.65500  0.29900  0.50000  1.0000
  O   O10       1.0  0.12500  0.38000  0.50000  1.0000
  O   O11       1.0  0.50000  0.50000  0.50000  1.0000
  O   O12       1.0  0.87500  0.62000  0.50000  1.0000
  O   O13       1.0  0.34500  0.70100  0.50000  1.0000
  O   O14       1.0  0.70400  0.95000  0.50000  1.0000
