data_image0
_chemical_formula_structural       C3Fe17Pr2
_chemical_formula_sum              "C3 Fe17 Pr2"
_cell_length_a       6.54766
_cell_length_b       6.54766
_cell_length_c       6.54766
_cell_angle_alpha    84.0291
_cell_angle_beta     95.9709
_cell_angle_gamma    95.9709

_space_group_name_H-M_alt    "P 1"
_space_group_IT_number       1

loop_
  _space_group_symop_operation_xyz
  'x, y, z'

loop_
  _atom_site_type_symbol
  _atom_site_label
  _atom_site_symmetry_multiplicity
  _atom_site_fract_x
  _atom_site_fract_y
  _atom_site_fract_z
  _atom_site_occupancy
  C   C1        1.0  0.50000  0.50000  0.00000  1.0000
  C   C2        1.0  0.00000  0.50000  0.50000  1.0000
  C   C3        1.0  0.50000  0.00000  0.50000  1.0000
  Fe  Fe1       1.0  0.50000  0.00000  0.00000  1.0000
  Fe  Fe2       1.0  0.28400  0.28400  0.00000  1.0000
  Fe  Fe3       1.0  0.00000  0.50000  0.00000  1.0000
  Fe  Fe4       1.0  0.71600  0.71600  0.00000  1.0000
  Fe  Fe5       1.0  0.90600  0.09440  0.09440  1.0000
  Fe  Fe6       1.0  0.33900  0.66100  0.13900  1.0000
  Fe  Fe7       1.0  0.00000  0.71600  0.28400  1.0000
  Fe  Fe8       1.0  0.28400  0.00000  0.28400  1.0000
  Fe  Fe9       1.0  0.13900  0.33900  0.33900  1.0000
  Fe  Fe10      1.0  0.66100  0.86100  0.33900  1.0000
  Fe  Fe11      1.0  0.00000  0.00000  0.50000  1.0000
  Fe  Fe12      1.0  0.33900  0.13900  0.66100  1.0000
  Fe  Fe13      1.0  0.86100  0.66100  0.66100  1.0000
  Fe  Fe14      1.0  0.00000  0.28400  0.71600  1.0000
  Fe  Fe15      1.0  0.71600  0.00000  0.71600  1.0000
  Fe  Fe16      1.0  0.66100  0.33900  0.86100  1.0000
  Fe  Fe17      1.0  0.09440  0.90600  0.90600  1.0000
  Pr  Pr1       1.0  0.65200  0.34800  0.34800  1.0000
  Pr  Pr2       1.0  0.34800  0.65200  0.65200  1.0000
