data_image0
_chemical_formula_structural       Ba6Ir2Na2O12
_chemical_formula_sum              "Ba6 Ir2 Na2 O12"
_cell_length_a       7.07028
_cell_length_b       7.07028
_cell_length_c       7.07028
_cell_angle_alpha    91.5671
_cell_angle_beta     91.5671
_cell_angle_gamma    91.5671

_space_group_name_H-M_alt    "P 1"
_space_group_IT_number       1

loop_
  _space_group_symop_operation_xyz
  'x, y, z'

loop_
  _atom_site_type_symbol
  _atom_site_label
  _atom_site_symmetry_multiplicity
  _atom_site_fract_x
  _atom_site_fract_y
  _atom_site_fract_z
  _atom_site_occupancy
  Ba  Ba1       1.0  0.75000  0.39400  0.10600  1.0000
  Ba  Ba2       1.0  0.60600  0.89400  0.25000  1.0000
  Ba  Ba3       1.0  0.10600  0.75000  0.39400  1.0000
  Ba  Ba4       1.0  0.89400  0.25000  0.60600  1.0000
  Ba  Ba5       1.0  0.39400  0.10600  0.75000  1.0000
  Ba  Ba6       1.0  0.25000  0.60600  0.89400  1.0000
  Ir  Ir1       1.0  0.00000  0.00000  0.00000  1.0000
  Ir  Ir2       1.0  0.50000  0.50000  0.50000  1.0000
  Na  Na1       1.0  0.25000  0.25000  0.25000  1.0000
  Na  Na2       1.0  0.75000  0.75000  0.75000  1.0000
  O   O1        1.0  0.91700  0.73200  0.05040  1.0000
  O   O2        1.0  0.26800  0.95000  0.08330  1.0000
  O   O3        1.0  0.41700  0.55000  0.23200  1.0000
  O   O4        1.0  0.95000  0.08330  0.26800  1.0000
  O   O5        1.0  0.55000  0.23200  0.41700  1.0000
  O   O6        1.0  0.76800  0.58300  0.45000  1.0000
  O   O7        1.0  0.23200  0.41700  0.55000  1.0000
  O   O8        1.0  0.45000  0.76800  0.58300  1.0000
  O   O9        1.0  0.05040  0.91700  0.73200  1.0000
  O   O10       1.0  0.58300  0.45000  0.76800  1.0000
  O   O11       1.0  0.73200  0.05040  0.91700  1.0000
  O   O12       1.0  0.08330  0.26800  0.95000  1.0000
