data_image0
_chemical_formula_structural       K4O14S4
_chemical_formula_sum              "K4 O14 S4"
_cell_length_a       7.08747
_cell_length_b       7.08747
_cell_length_c       7.1919
_cell_angle_alpha    92.5004
_cell_angle_beta     92.5004
_cell_angle_gamma    61.0187

_space_group_name_H-M_alt    "P 1"
_space_group_IT_number       1

loop_
  _space_group_symop_operation_xyz
  'x, y, z'

loop_
  _atom_site_type_symbol
  _atom_site_label
  _atom_site_symmetry_multiplicity
  _atom_site_fract_x
  _atom_site_fract_y
  _atom_site_fract_z
  _atom_site_occupancy
  K   K1        1.0  0.70300  0.00379  0.14700  1.0000
  K   K2        1.0  0.99600  0.29700  0.35300  1.0000
  K   K3        1.0  0.00379  0.70300  0.64700  1.0000
  K   K4        1.0  0.29700  0.99600  0.85300  1.0000
  O   O1        1.0  0.84700  0.26500  0.00797  1.0000
  O   O2        1.0  0.30100  0.35600  0.07660  1.0000
  O   O3        1.0  0.35300  0.95100  0.22100  1.0000
  O   O4        1.0  0.42900  0.57100  0.25000  1.0000
  O   O5        1.0  0.04870  0.64700  0.27900  1.0000
  O   O6        1.0  0.64400  0.69900  0.42300  1.0000
  O   O7        1.0  0.73500  0.15300  0.49200  1.0000
  O   O8        1.0  0.26500  0.84700  0.50800  1.0000
  O   O9        1.0  0.35600  0.30100  0.57700  1.0000
  O   O10       1.0  0.95100  0.35300  0.72100  1.0000
  O   O11       1.0  0.57100  0.42900  0.75000  1.0000
  O   O12       1.0  0.64700  0.04870  0.77900  1.0000
  O   O13       1.0  0.69900  0.64400  0.92300  1.0000
  O   O14       1.0  0.15300  0.73500  0.99200  1.0000
  S   S1        1.0  0.21400  0.57900  0.13900  1.0000
  S   S2        1.0  0.42100  0.78600  0.36100  1.0000
  S   S3        1.0  0.57900  0.21400  0.63900  1.0000
  S   S4        1.0  0.78600  0.42100  0.86100  1.0000
