data_image0
_chemical_formula_structural       B4Cu2O12Sr4
_chemical_formula_sum              "B4 Cu2 O12 Sr4"
_cell_length_a       5.68817
_cell_length_b       8.82518
_cell_length_c       5.97236
_cell_angle_alpha    90
_cell_angle_beta     116.672
_cell_angle_gamma    90

_space_group_name_H-M_alt    "P 1"
_space_group_IT_number       1

loop_
  _space_group_symop_operation_xyz
  'x, y, z'

loop_
  _atom_site_type_symbol
  _atom_site_label
  _atom_site_symmetry_multiplicity
  _atom_site_fract_x
  _atom_site_fract_y
  _atom_site_fract_z
  _atom_site_occupancy
  B   B1        1.0  0.80400  0.24800  0.16000  1.0000
  B   B2        1.0  0.19600  0.74800  0.34000  1.0000
  B   B3        1.0  0.80400  0.25200  0.66000  1.0000
  B   B4        1.0  0.19600  0.75200  0.84000  1.0000
  Cu  Cu1       1.0  0.00000  0.00000  0.00000  1.0000
  Cu  Cu2       1.0  0.00000  0.50000  0.50000  1.0000
  O   O1        1.0  0.58900  0.16200  0.11600  1.0000
  O   O2        1.0  0.79100  0.40600  0.17700  1.0000
  O   O3        1.0  0.04050  0.18800  0.18800  1.0000
  O   O4        1.0  0.95900  0.68800  0.31200  1.0000
  O   O5        1.0  0.20900  0.90600  0.32300  1.0000
  O   O6        1.0  0.41100  0.66200  0.38400  1.0000
  O   O7        1.0  0.58900  0.33800  0.61600  1.0000
  O   O8        1.0  0.79100  0.09400  0.67700  1.0000
  O   O9        1.0  0.04050  0.31200  0.68800  1.0000
  O   O10       1.0  0.95900  0.81200  0.81200  1.0000
  O   O11       1.0  0.20900  0.59400  0.82300  1.0000
  O   O12       1.0  0.41100  0.83800  0.88400  1.0000
  Sr  Sr1       1.0  0.33000  0.39600  0.16200  1.0000
  Sr  Sr2       1.0  0.67000  0.89600  0.33800  1.0000
  Sr  Sr3       1.0  0.33000  0.10400  0.66200  1.0000
  Sr  Sr4       1.0  0.67000  0.60400  0.83800  1.0000
