data_image0
_chemical_formula_structural       K4O14W4
_chemical_formula_sum              "K4 O14 W4"
_cell_length_a       3.89173
_cell_length_b       13.4867
_cell_length_c       5.9906
_cell_angle_alpha    90
_cell_angle_beta     90.3303
_cell_angle_gamma    90

_space_group_name_H-M_alt    "P 1"
_space_group_IT_number       1

loop_
  _space_group_symop_operation_xyz
  'x, y, z'

loop_
  _atom_site_type_symbol
  _atom_site_label
  _atom_site_symmetry_multiplicity
  _atom_site_fract_x
  _atom_site_fract_y
  _atom_site_fract_z
  _atom_site_occupancy
  K   K1        1.0  0.98900  0.83000  0.17000  1.0000
  K   K2        1.0  0.01100  0.33000  0.33000  1.0000
  K   K3        1.0  0.98900  0.67000  0.67000  1.0000
  K   K4        1.0  0.01100  0.17000  0.83000  1.0000
  O   O1        1.0  0.50000  0.00000  0.00000  1.0000
  O   O2        1.0  0.50300  0.41600  0.09190  1.0000
  O   O3        1.0  0.50600  0.19300  0.18500  1.0000
  O   O4        1.0  0.98700  0.55800  0.22400  1.0000
  O   O5        1.0  0.01270  0.05830  0.27600  1.0000
  O   O6        1.0  0.49400  0.69300  0.31500  1.0000
  O   O7        1.0  0.49700  0.91600  0.40800  1.0000
  O   O8        1.0  0.50000  0.50000  0.50000  1.0000
  O   O9        1.0  0.50300  0.08420  0.59200  1.0000
  O   O10       1.0  0.50600  0.30700  0.68500  1.0000
  O   O11       1.0  0.98700  0.94200  0.72400  1.0000
  O   O12       1.0  0.01270  0.44200  0.77600  1.0000
  O   O13       1.0  0.49400  0.80700  0.81500  1.0000
  O   O14       1.0  0.49700  0.58400  0.90800  1.0000
  W   W1        1.0  0.45600  0.56900  0.21600  1.0000
  W   W2        1.0  0.54400  0.06900  0.28400  1.0000
  W   W3        1.0  0.45600  0.93100  0.71600  1.0000
  W   W4        1.0  0.54400  0.43100  0.78400  1.0000
