data_image0
_chemical_formula_structural       Br2In10Se10
_chemical_formula_sum              "Br2 In10 Se10"
_cell_length_a       4.15043
_cell_length_b       9.44412
_cell_length_c       15.4226
_cell_angle_alpha    90
_cell_angle_beta     90
_cell_angle_gamma    90

_space_group_name_H-M_alt    "P 1"
_space_group_IT_number       1

loop_
  _space_group_symop_operation_xyz
  'x, y, z'

loop_
  _atom_site_type_symbol
  _atom_site_label
  _atom_site_symmetry_multiplicity
  _atom_site_fract_x
  _atom_site_fract_y
  _atom_site_fract_z
  _atom_site_occupancy
  Br  Br1       1.0  0.00000  0.40800  0.45600  1.0000
  Br  Br2       1.0  0.50000  0.59200  0.95600  1.0000
  In  In1       1.0  0.00000  0.39500  0.02340  1.0000
  In  In2       1.0  0.50000  0.85400  0.11100  1.0000
  In  In3       1.0  0.50000  0.47700  0.25400  1.0000
  In  In4       1.0  0.50000  0.19300  0.30400  1.0000
  In  In5       1.0  0.00000  0.89400  0.40500  1.0000
  In  In6       1.0  0.50000  0.60500  0.52300  1.0000
  In  In7       1.0  0.00000  0.14600  0.61100  1.0000
  In  In8       1.0  0.00000  0.52300  0.75400  1.0000
  In  In9       1.0  0.00000  0.80700  0.80400  1.0000
  In  In10      1.0  0.50000  0.10600  0.90500  1.0000
  Se  Se1       1.0  0.50000  0.22500  0.06920  1.0000
  Se  Se2       1.0  0.00000  0.57600  0.15900  1.0000
  Se  Se3       1.0  0.00000  0.03260  0.24800  1.0000
  Se  Se4       1.0  0.50000  0.70700  0.35800  1.0000
  Se  Se5       1.0  0.50000  0.07140  0.46100  1.0000
  Se  Se6       1.0  0.00000  0.77500  0.56900  1.0000
  Se  Se7       1.0  0.50000  0.42400  0.65900  1.0000
  Se  Se8       1.0  0.50000  0.96700  0.74800  1.0000
  Se  Se9       1.0  0.00000  0.29300  0.85800  1.0000
  Se  Se10      1.0  0.00000  0.92900  0.96100  1.0000
