data_image0
_chemical_formula_structural       Eu6Nb2O14
_chemical_formula_sum              "Eu6 Nb2 O14"
_cell_length_a       6.49338
_cell_length_b       6.49338
_cell_length_c       7.7604
_cell_angle_alpha    90
_cell_angle_beta     90
_cell_angle_gamma    70.7408

_space_group_name_H-M_alt    "P 1"
_space_group_IT_number       1

loop_
  _space_group_symop_operation_xyz
  'x, y, z'

loop_
  _atom_site_type_symbol
  _atom_site_label
  _atom_site_symmetry_multiplicity
  _atom_site_fract_x
  _atom_site_fract_y
  _atom_site_fract_z
  _atom_site_occupancy
  Eu  Eu1       1.0  0.45800  0.99300  0.00076  1.0000
  Eu  Eu2       1.0  0.51700  0.48300  0.25000  1.0000
  Eu  Eu3       1.0  0.00738  0.54200  0.49900  1.0000
  Eu  Eu4       1.0  0.54200  0.00738  0.50100  1.0000
  Eu  Eu5       1.0  0.48300  0.51700  0.75000  1.0000
  Eu  Eu6       1.0  0.99300  0.45800  0.99900  1.0000
  Nb  Nb1       1.0  0.98000  0.01960  0.25000  1.0000
  Nb  Nb2       1.0  0.01960  0.98000  0.75000  1.0000
  O   O1        1.0  0.05760  0.05760  0.00000  1.0000
  O   O2        1.0  0.36700  0.36700  0.00000  1.0000
  O   O3        1.0  0.62600  0.62600  0.00000  1.0000
  O   O4        1.0  0.11000  0.67800  0.21800  1.0000
  O   O5        1.0  0.68200  0.05790  0.21900  1.0000
  O   O6        1.0  0.94200  0.31800  0.28100  1.0000
  O   O7        1.0  0.32200  0.89000  0.28200  1.0000
  O   O8        1.0  0.37400  0.37400  0.50000  1.0000
  O   O9        1.0  0.63300  0.63300  0.50000  1.0000
  O   O10       1.0  0.94200  0.94200  0.50000  1.0000
  O   O11       1.0  0.89000  0.32200  0.71800  1.0000
  O   O12       1.0  0.31800  0.94200  0.71900  1.0000
  O   O13       1.0  0.05790  0.68200  0.78100  1.0000
  O   O14       1.0  0.67800  0.11000  0.78200  1.0000
