data_image0
_chemical_formula_structural       C3Fe17Tb2
_chemical_formula_sum              "C3 Fe17 Tb2"
_cell_length_a       6.49292
_cell_length_b       6.49292
_cell_length_c       6.49292
_cell_angle_alpha    83.2846
_cell_angle_beta     96.7154
_cell_angle_gamma    96.7154

_space_group_name_H-M_alt    "P 1"
_space_group_IT_number       1

loop_
  _space_group_symop_operation_xyz
  'x, y, z'

loop_
  _atom_site_type_symbol
  _atom_site_label
  _atom_site_symmetry_multiplicity
  _atom_site_fract_x
  _atom_site_fract_y
  _atom_site_fract_z
  _atom_site_occupancy
  C   C1        1.0  0.50000  0.50000  0.00000  1.0000
  C   C2        1.0  0.00000  0.50000  0.50000  1.0000
  C   C3        1.0  0.50000  0.00000  0.50000  1.0000
  Fe  Fe1       1.0  0.50000  0.00000  0.00000  1.0000
  Fe  Fe2       1.0  0.28400  0.28400  0.00000  1.0000
  Fe  Fe3       1.0  0.00000  0.50000  0.00000  1.0000
  Fe  Fe4       1.0  0.71600  0.71600  0.00000  1.0000
  Fe  Fe5       1.0  0.90500  0.09520  0.09520  1.0000
  Fe  Fe6       1.0  0.34300  0.65700  0.14500  1.0000
  Fe  Fe7       1.0  0.00000  0.71600  0.28400  1.0000
  Fe  Fe8       1.0  0.28400  0.00000  0.28400  1.0000
  Fe  Fe9       1.0  0.14500  0.34300  0.34300  1.0000
  Fe  Fe10      1.0  0.65700  0.85500  0.34300  1.0000
  Fe  Fe11      1.0  0.00000  0.00000  0.50000  1.0000
  Fe  Fe12      1.0  0.34300  0.14500  0.65700  1.0000
  Fe  Fe13      1.0  0.85500  0.65700  0.65700  1.0000
  Fe  Fe14      1.0  1.00000  0.28400  0.71600  1.0000
  Fe  Fe15      1.0  0.71600  0.00000  0.71600  1.0000
  Fe  Fe16      1.0  0.65700  0.34300  0.85500  1.0000
  Fe  Fe17      1.0  0.09520  0.90500  0.90500  1.0000
  Tb  Tb1       1.0  0.65700  0.34300  0.34300  1.0000
  Tb  Tb2       1.0  0.34300  0.65700  0.65700  1.0000
