data_image0
_chemical_formula_structural       B4K4S14
_chemical_formula_sum              "B4 K4 S14"
_cell_length_a       6.93886
_cell_length_b       8.25129
_cell_length_c       10.5831
_cell_angle_alpha    102.776
_cell_angle_beta     109.137
_cell_angle_gamma    65.1356

_space_group_name_H-M_alt    "P 1"
_space_group_IT_number       1

loop_
  _space_group_symop_operation_xyz
  'x, y, z'

loop_
  _atom_site_type_symbol
  _atom_site_label
  _atom_site_symmetry_multiplicity
  _atom_site_fract_x
  _atom_site_fract_y
  _atom_site_fract_z
  _atom_site_occupancy
  B   B1        1.0  0.60900  0.38100  0.14800  1.0000
  B   B2        1.0  0.84200  0.11900  0.35200  1.0000
  B   B3        1.0  0.15800  0.88100  0.64800  1.0000
  B   B4        1.0  0.39100  0.61900  0.85200  1.0000
  K   K1        1.0  0.87000  0.81700  0.02340  1.0000
  K   K2        1.0  0.66300  0.68300  0.47700  1.0000
  K   K3        1.0  0.33700  0.31700  0.52300  1.0000
  K   K4        1.0  0.13000  0.18300  0.97700  1.0000
  S   S1        1.0  0.43100  0.75200  0.02390  1.0000
  S   S2        1.0  0.39400  0.62000  0.15800  1.0000
  S   S3        1.0  0.90000  0.38400  0.22800  1.0000
  S   S4        1.0  0.54800  0.25000  0.25000  1.0000
  S   S5        1.0  0.05560  0.11600  0.27200  1.0000
  S   S6        1.0  0.85600  0.88000  0.34200  1.0000
  S   S7        1.0  0.15900  0.74800  0.47600  1.0000
  S   S8        1.0  0.84100  0.25200  0.52400  1.0000
  S   S9        1.0  0.14400  0.12000  0.65800  1.0000
  S   S10       1.0  0.94400  0.88400  0.72800  1.0000
  S   S11       1.0  0.45200  0.75000  0.75000  1.0000
  S   S12       1.0  0.09990  0.61600  0.77200  1.0000
  S   S13       1.0  0.60600  0.38000  0.84200  1.0000
  S   S14       1.0  0.56900  0.24800  0.97600  1.0000
