data_image0
_chemical_formula_structural       Ba2Cr2O14P4
_chemical_formula_sum              "Ba2 Cr2 O14 P4"
_cell_length_a       5.38011
_cell_length_b       7.20372
_cell_length_c       7.56653
_cell_angle_alpha    103.025
_cell_angle_beta     89.9973
_cell_angle_gamma    93.5731

_space_group_name_H-M_alt    "P 1"
_space_group_IT_number       1

loop_
  _space_group_symop_operation_xyz
  'x, y, z'

loop_
  _atom_site_type_symbol
  _atom_site_label
  _atom_site_symmetry_multiplicity
  _atom_site_fract_x
  _atom_site_fract_y
  _atom_site_fract_z
  _atom_site_occupancy
  Ba  Ba1       1.0  0.77200  0.73300  0.07320  1.0000
  Ba  Ba2       1.0  0.22800  0.26700  0.92700  1.0000
  Cr  Cr1       1.0  0.21100  0.14800  0.39900  1.0000
  Cr  Cr2       1.0  0.78900  0.85200  0.60100  1.0000
  O   O1        1.0  0.72900  0.34900  0.05990  1.0000
  O   O2        1.0  0.94400  0.11000  0.19500  1.0000
  O   O3        1.0  0.47500  0.10900  0.19800  1.0000
  O   O4        1.0  0.23600  0.48800  0.26400  1.0000
  O   O5        1.0  0.52800  0.78100  0.39600  1.0000
  O   O6        1.0  0.73700  0.38500  0.40100  1.0000
  O   O7        1.0  0.06400  0.81100  0.40300  1.0000
  O   O8        1.0  0.93600  0.18900  0.59700  1.0000
  O   O9        1.0  0.26300  0.61500  0.59900  1.0000
  O   O10       1.0  0.47200  0.21900  0.60400  1.0000
  O   O11       1.0  0.76400  0.51200  0.73600  1.0000
  O   O12       1.0  0.52500  0.89100  0.80200  1.0000
  O   O13       1.0  0.05610  0.89000  0.80500  1.0000
  O   O14       1.0  0.27100  0.65100  0.94000  1.0000
  P   P1        1.0  0.71800  0.23500  0.20600  1.0000
  P   P2        1.0  0.27400  0.67300  0.40200  1.0000
  P   P3        1.0  0.72600  0.32700  0.59800  1.0000
  P   P4        1.0  0.28200  0.76500  0.79400  1.0000
