data_image0
_chemical_formula_structural       As8Hf14
_chemical_formula_sum              "As8 Hf14"
_cell_length_a       3.59745
_cell_length_b       8.30225
_cell_length_c       15.006
_cell_angle_alpha    103.885
_cell_angle_beta     90
_cell_angle_gamma    102.513

_space_group_name_H-M_alt    "P 1"
_space_group_IT_number       1

loop_
  _space_group_symop_operation_xyz
  'x, y, z'

loop_
  _atom_site_type_symbol
  _atom_site_label
  _atom_site_symmetry_multiplicity
  _atom_site_fract_x
  _atom_site_fract_y
  _atom_site_fract_z
  _atom_site_occupancy
  As  As1       1.0  0.17700  0.35400  0.10900  1.0000
  As  As2       1.0  0.93700  0.87500  0.15000  1.0000
  As  As3       1.0  0.37200  0.74400  0.33800  1.0000
  As  As4       1.0  0.62600  0.25300  0.40000  1.0000
  As  As5       1.0  0.37400  0.74700  0.60000  1.0000
  As  As6       1.0  0.62800  0.25600  0.66200  1.0000
  As  As7       1.0  0.06270  0.12500  0.85000  1.0000
  As  As8       1.0  0.82300  0.64600  0.89100  1.0000
  Hf  Hf1       1.0  0.00000  0.00000  0.00000  1.0000
  Hf  Hf2       1.0  0.33700  0.67300  0.03170  1.0000
  Hf  Hf3       1.0  0.57100  0.14100  0.17000  1.0000
  Hf  Hf4       1.0  0.79400  0.58700  0.20300  1.0000
  Hf  Hf5       1.0  0.19800  0.39600  0.30900  1.0000
  Hf  Hf6       1.0  0.99900  0.99700  0.33300  1.0000
  Hf  Hf7       1.0  0.82100  0.64100  0.45700  1.0000
  Hf  Hf8       1.0  0.50000  0.00000  0.50000  1.0000
  Hf  Hf9       1.0  0.17900  0.35900  0.54300  1.0000
  Hf  Hf10      1.0  0.00135  0.00269  0.66700  1.0000
  Hf  Hf11      1.0  0.80200  0.60400  0.69100  1.0000
  Hf  Hf12      1.0  0.20600  0.41300  0.79700  1.0000
  Hf  Hf13      1.0  0.42900  0.85900  0.83000  1.0000
  Hf  Hf14      1.0  0.66300  0.32700  0.96800  1.0000
