data_image0
_chemical_formula_structural       Ce8Cl6N2S6
_chemical_formula_sum              "Ce8 Cl6 N2 S6"
_cell_length_a       9.49611
_cell_length_b       9.49614
_cell_length_c       6.99431
_cell_angle_alpha    90
_cell_angle_beta     90
_cell_angle_gamma    120

_space_group_name_H-M_alt    "P 1"
_space_group_IT_number       1

loop_
  _space_group_symop_operation_xyz
  'x, y, z'

loop_
  _atom_site_type_symbol
  _atom_site_label
  _atom_site_symmetry_multiplicity
  _atom_site_fract_x
  _atom_site_fract_y
  _atom_site_fract_z
  _atom_site_occupancy
  Ce  Ce1       1.0  0.20100  0.79900  0.25200  1.0000
  Ce  Ce2       1.0  0.59700  0.79900  0.25200  1.0000
  Ce  Ce3       1.0  0.20100  0.40300  0.25200  1.0000
  Ce  Ce4       1.0  0.66700  0.33300  0.28700  1.0000
  Ce  Ce5       1.0  0.40300  0.20100  0.75200  1.0000
  Ce  Ce6       1.0  0.79900  0.20100  0.75200  1.0000
  Ce  Ce7       1.0  0.79900  0.59700  0.75200  1.0000
  Ce  Ce8       1.0  0.33300  0.66700  0.78700  1.0000
  Cl  Cl1       1.0  0.86800  0.73600  0.36100  1.0000
  Cl  Cl2       1.0  0.26400  0.13200  0.36100  1.0000
  Cl  Cl3       1.0  0.86800  0.13200  0.36100  1.0000
  Cl  Cl4       1.0  0.13200  0.26400  0.86100  1.0000
  Cl  Cl5       1.0  0.13200  0.86800  0.86100  1.0000
  Cl  Cl6       1.0  0.73600  0.86800  0.86100  1.0000
  N   N1        1.0  0.33300  0.66700  0.13200  1.0000
  N   N2        1.0  0.66700  0.33300  0.63200  1.0000
  S   S1        1.0  0.53200  0.46800  0.02970  1.0000
  S   S2        1.0  0.93600  0.46800  0.02970  1.0000
  S   S3        1.0  0.53200  0.06370  0.02970  1.0000
  S   S4        1.0  0.06370  0.53200  0.53000  1.0000
  S   S5        1.0  0.46800  0.53200  0.53000  1.0000
  S   S6        1.0  0.46800  0.93600  0.53000  1.0000
