data_image0
_chemical_formula_structural       Si10V12
_chemical_formula_sum              "Si10 V12"
_cell_length_a       4.81712
_cell_length_b       7.46978
_cell_length_c       9.10943
_cell_angle_alpha    65.795
_cell_angle_beta     105.331
_cell_angle_gamma    90

_space_group_name_H-M_alt    "P 1"
_space_group_IT_number       1

loop_
  _space_group_symop_operation_xyz
  'x, y, z'

loop_
  _atom_site_type_symbol
  _atom_site_label
  _atom_site_symmetry_multiplicity
  _atom_site_fract_x
  _atom_site_fract_y
  _atom_site_fract_z
  _atom_site_occupancy
  Si  Si1       1.0  0.25000  0.00000  0.00000  1.0000
  Si  Si2       1.0  0.75000  0.00000  0.00000  1.0000
  Si  Si3       1.0  0.06390  0.34600  0.12800  1.0000
  Si  Si4       1.0  0.56400  0.52700  0.12800  1.0000
  Si  Si5       1.0  0.21400  0.58400  0.42800  1.0000
  Si  Si6       1.0  0.71400  0.98800  0.42800  1.0000
  Si  Si7       1.0  0.28600  0.01160  0.57200  1.0000
  Si  Si8       1.0  0.78600  0.41600  0.57200  1.0000
  Si  Si9       1.0  0.43600  0.47300  0.87200  1.0000
  Si  Si10      1.0  0.93600  0.65400  0.87200  1.0000
  V   V1        1.0  0.56500  0.18800  0.13100  1.0000
  V   V2        1.0  0.06540  0.68100  0.13100  1.0000
  V   V3        1.0  0.64300  0.74300  0.28700  1.0000
  V   V4        1.0  0.14300  0.97000  0.28700  1.0000
  V   V5        1.0  0.44000  0.31000  0.38000  1.0000
  V   V6        1.0  0.94000  0.31000  0.38000  1.0000
  V   V7        1.0  0.06010  0.69000  0.62000  1.0000
  V   V8        1.0  0.56000  0.69000  0.62000  1.0000
  V   V9        1.0  0.85700  0.02980  0.71300  1.0000
  V   V10       1.0  0.35700  0.25700  0.71300  1.0000
  V   V11       1.0  0.93500  0.31900  0.86900  1.0000
  V   V12       1.0  0.43500  0.81200  0.86900  1.0000
