data_image0
_chemical_formula_structural       Ca2Na8Sn12
_chemical_formula_sum              "Ca2 Na8 Sn12"
_cell_length_a       10.0521
_cell_length_b       10.0493
_cell_length_c       7.16497
_cell_angle_alpha    90
_cell_angle_beta     90
_cell_angle_gamma    120.009

_space_group_name_H-M_alt    "P 1"
_space_group_IT_number       1

loop_
  _space_group_symop_operation_xyz
  'x, y, z'

loop_
  _atom_site_type_symbol
  _atom_site_label
  _atom_site_symmetry_multiplicity
  _atom_site_fract_x
  _atom_site_fract_y
  _atom_site_fract_z
  _atom_site_occupancy
  Ca  Ca1       1.0  0.00000  0.00019  0.25000  1.0000
  Ca  Ca2       1.0  0.00000  0.00000  0.75000  1.0000
  Na  Na1       1.0  0.66700  0.33300  0.25000  1.0000
  Na  Na2       1.0  0.08280  0.54100  0.25000  1.0000
  Na  Na3       1.0  0.45900  0.54100  0.25000  1.0000
  Na  Na4       1.0  0.45900  0.91700  0.25000  1.0000
  Na  Na5       1.0  0.54100  0.08280  0.75000  1.0000
  Na  Na6       1.0  0.54100  0.45900  0.75000  1.0000
  Na  Na7       1.0  0.91700  0.45900  0.75000  1.0000
  Na  Na8       1.0  0.33300  0.66700  0.75000  1.0000
  Sn  Sn1       1.0  0.33900  0.17000  0.03860  1.0000
  Sn  Sn2       1.0  0.83000  0.17000  0.03860  1.0000
  Sn  Sn3       1.0  0.83000  0.66100  0.03860  1.0000
  Sn  Sn4       1.0  0.83000  0.66100  0.46100  1.0000
  Sn  Sn5       1.0  0.33900  0.17000  0.46100  1.0000
  Sn  Sn6       1.0  0.83000  0.17000  0.46100  1.0000
  Sn  Sn7       1.0  0.17000  0.83000  0.53900  1.0000
  Sn  Sn8       1.0  0.66100  0.83000  0.53900  1.0000
  Sn  Sn9       1.0  0.17000  0.33900  0.53900  1.0000
  Sn  Sn10      1.0  0.17000  0.33900  0.96100  1.0000
  Sn  Sn11      1.0  0.17000  0.83000  0.96100  1.0000
  Sn  Sn12      1.0  0.66100  0.83000  0.96100  1.0000
