data_image0
_chemical_formula_structural       B14Re2Tb6
_chemical_formula_sum              "B14 Re2 Tb6"
_cell_length_a       3.54927
_cell_length_b       8.12644
_cell_length_c       9.3708
_cell_angle_alpha    90
_cell_angle_beta     90
_cell_angle_gamma    77.3862

_space_group_name_H-M_alt    "P 1"
_space_group_IT_number       1

loop_
  _space_group_symop_operation_xyz
  'x, y, z'

loop_
  _atom_site_type_symbol
  _atom_site_label
  _atom_site_symmetry_multiplicity
  _atom_site_fract_x
  _atom_site_fract_y
  _atom_site_fract_z
  _atom_site_occupancy
  B   B1        1.0  0.27300  0.45400  0.03310  1.0000
  B   B2        1.0  0.47900  0.04190  0.09570  1.0000
  B   B3        1.0  0.36800  0.26400  0.15100  1.0000
  B   B4        1.0  0.54200  0.91700  0.25000  1.0000
  B   B5        1.0  0.36800  0.26400  0.34900  1.0000
  B   B6        1.0  0.47900  0.04190  0.40400  1.0000
  B   B7        1.0  0.27300  0.45400  0.46700  1.0000
  B   B8        1.0  0.72700  0.54600  0.53300  1.0000
  B   B9        1.0  0.52100  0.95800  0.59600  1.0000
  B   B10       1.0  0.63200  0.73600  0.65100  1.0000
  B   B11       1.0  0.45800  0.08340  0.75000  1.0000
  B   B12       1.0  0.63200  0.73600  0.84900  1.0000
  B   B13       1.0  0.52100  0.95800  0.90400  1.0000
  B   B14       1.0  0.72700  0.54600  0.96700  1.0000
  Re  Re1       1.0  0.94700  0.10700  0.25000  1.0000
  Re  Re2       1.0  0.05340  0.89300  0.75000  1.0000
  Tb  Tb1       1.0  0.10500  0.79000  0.06020  1.0000
  Tb  Tb2       1.0  0.75800  0.48400  0.25000  1.0000
  Tb  Tb3       1.0  0.10500  0.79000  0.44000  1.0000
  Tb  Tb4       1.0  0.89500  0.21000  0.56000  1.0000
  Tb  Tb5       1.0  0.24200  0.51600  0.75000  1.0000
  Tb  Tb6       1.0  0.89500  0.21000  0.94000  1.0000
