data_image0
_chemical_formula_structural       O14Sb4Sr4
_chemical_formula_sum              "O14 Sb4 Sr4"
_cell_length_a       7.48052
_cell_length_b       7.48052
_cell_length_c       7.48052
_cell_angle_alpha    91.8834
_cell_angle_beta     117.983
_cell_angle_gamma    119.863

_space_group_name_H-M_alt    "P 1"
_space_group_IT_number       1

loop_
  _space_group_symop_operation_xyz
  'x, y, z'

loop_
  _atom_site_type_symbol
  _atom_site_label
  _atom_site_symmetry_multiplicity
  _atom_site_fract_x
  _atom_site_fract_y
  _atom_site_fract_z
  _atom_site_occupancy
  O   O1        1.0  0.72000  0.40800  0.12800  1.0000
  O   O2        1.0  0.77200  0.82300  0.18600  1.0000
  O   O3        1.0  0.36300  0.41400  0.18600  1.0000
  O   O4        1.0  0.28000  0.90800  0.18800  1.0000
  O   O5        1.0  0.15000  0.25000  0.40000  1.0000
  O   O6        1.0  0.36300  0.67700  0.44900  1.0000
  O   O7        1.0  0.77200  0.08640  0.44900  1.0000
  O   O8        1.0  0.63700  0.32300  0.55100  1.0000
  O   O9        1.0  0.22800  0.91400  0.55100  1.0000
  O   O10       1.0  0.85000  0.75000  0.60000  1.0000
  O   O11       1.0  0.72000  0.09220  0.81200  1.0000
  O   O12       1.0  0.22800  0.17700  0.81400  1.0000
  O   O13       1.0  0.63700  0.58600  0.81400  1.0000
  O   O14       1.0  0.28000  0.59200  0.87200  1.0000
  Sb  Sb1       1.0  0.50000  0.50000  0.00000  1.0000
  Sb  Sb2       1.0  0.00000  0.00000  0.50000  1.0000
  Sb  Sb3       1.0  0.50000  0.50000  0.50000  1.0000
  Sb  Sb4       1.0  0.50000  0.00000  0.50000  1.0000
  Sr  Sr1       1.0  0.00000  0.00000  0.00000  1.0000
  Sr  Sr2       1.0  0.50000  0.00000  0.00000  1.0000
  Sr  Sr3       1.0  0.00000  0.50000  0.00000  1.0000
  Sr  Sr4       1.0  1.00000  0.50000  0.50000  1.0000
