data_image0
_chemical_formula_structural       Fe12Ge10
_chemical_formula_sum              "Fe12 Ge10"
_cell_length_a       6.31732
_cell_length_b       6.31732
_cell_length_c       7.81023
_cell_angle_alpha    105.525
_cell_angle_beta     74.4745
_cell_angle_gamma    103.277

_space_group_name_H-M_alt    "P 1"
_space_group_IT_number       1

loop_
  _space_group_symop_operation_xyz
  'x, y, z'

loop_
  _atom_site_type_symbol
  _atom_site_label
  _atom_site_symmetry_multiplicity
  _atom_site_fract_x
  _atom_site_fract_y
  _atom_site_fract_z
  _atom_site_occupancy
  Fe  Fe1       1.0  0.87500  0.12500  0.02300  1.0000
  Fe  Fe2       1.0  0.45800  0.02350  0.17500  1.0000
  Fe  Fe3       1.0  0.97700  0.54200  0.17500  1.0000
  Fe  Fe4       1.0  0.42200  0.57800  0.27800  1.0000
  Fe  Fe5       1.0  0.25000  0.25000  0.50000  1.0000
  Fe  Fe6       1.0  0.75000  0.75000  0.50000  1.0000
  Fe  Fe7       1.0  0.00000  0.50000  0.50000  1.0000
  Fe  Fe8       1.0  0.50000  0.00000  0.50000  1.0000
  Fe  Fe9       1.0  0.57800  0.42200  0.72200  1.0000
  Fe  Fe10      1.0  0.02350  0.45800  0.82500  1.0000
  Fe  Fe11      1.0  0.54200  0.97700  0.82500  1.0000
  Fe  Fe12      1.0  0.12500  0.87500  0.97700  1.0000
  Ge  Ge1       1.0  0.63600  0.36400  0.00383  1.0000
  Ge  Ge2       1.0  0.15500  0.24100  0.21200  1.0000
  Ge  Ge3       1.0  0.75900  0.84500  0.21200  1.0000
  Ge  Ge4       1.0  0.65400  0.34600  0.37400  1.0000
  Ge  Ge5       1.0  0.15100  0.84900  0.39800  1.0000
  Ge  Ge6       1.0  0.84900  0.15100  0.60200  1.0000
  Ge  Ge7       1.0  0.34600  0.65400  0.62600  1.0000
  Ge  Ge8       1.0  0.24100  0.15500  0.78800  1.0000
  Ge  Ge9       1.0  0.84500  0.75900  0.78800  1.0000
  Ge  Ge10      1.0  0.36400  0.63600  0.99600  1.0000
