data_image0
_chemical_formula_structural       Cl12N4O4V2
_chemical_formula_sum              "Cl12 N4 O4 V2"
_cell_length_a       6.54305
_cell_length_b       6.59645
_cell_length_c       10.2267
_cell_angle_alpha    90
_cell_angle_beta     92.9378
_cell_angle_gamma    90

_space_group_name_H-M_alt    "P 1"
_space_group_IT_number       1

loop_
  _space_group_symop_operation_xyz
  'x, y, z'

loop_
  _atom_site_type_symbol
  _atom_site_label
  _atom_site_symmetry_multiplicity
  _atom_site_fract_x
  _atom_site_fract_y
  _atom_site_fract_z
  _atom_site_occupancy
  Cl  Cl1       1.0  0.18700  0.30700  0.00018  1.0000
  Cl  Cl2       1.0  0.70900  0.17700  0.01570  1.0000
  Cl  Cl3       1.0  0.03890  0.98200  0.23000  1.0000
  Cl  Cl4       1.0  0.46100  0.48200  0.27000  1.0000
  Cl  Cl5       1.0  0.79100  0.67700  0.48400  1.0000
  Cl  Cl6       1.0  0.31300  0.80700  0.50000  1.0000
  Cl  Cl7       1.0  0.68700  0.19300  0.50000  1.0000
  Cl  Cl8       1.0  0.20900  0.32300  0.51600  1.0000
  Cl  Cl9       1.0  0.53900  0.51800  0.73000  1.0000
  Cl  Cl10      1.0  0.96100  0.01770  0.77000  1.0000
  Cl  Cl11      1.0  0.29100  0.82300  0.98400  1.0000
  Cl  Cl12      1.0  0.81300  0.69300  1.00000  1.0000
  N   N1        1.0  0.06130  0.52900  0.18900  1.0000
  N   N2        1.0  0.43900  0.02920  0.31100  1.0000
  N   N3        1.0  0.56100  0.97100  0.68900  1.0000
  N   N4        1.0  0.93900  0.47100  0.81100  1.0000
  O   O1        1.0  0.53500  0.94400  0.24100  1.0000
  O   O2        1.0  0.96500  0.44400  0.25900  1.0000
  O   O3        1.0  0.03530  0.55600  0.74100  1.0000
  O   O4        1.0  0.46500  0.05590  0.75900  1.0000
  V   V1        1.0  0.00000  0.00000  0.00000  1.0000
  V   V2        1.0  0.50000  0.50000  0.50000  1.0000
