data_image0
_chemical_formula_structural       Na2O12Ru2Sr6
_chemical_formula_sum              "Na2 O12 Ru2 Sr6"
_cell_length_a       6.74692
_cell_length_b       6.74692
_cell_length_c       6.74692
_cell_angle_alpha    90.7911
_cell_angle_beta     90.7911
_cell_angle_gamma    90.7911

_space_group_name_H-M_alt    "P 1"
_space_group_IT_number       1

loop_
  _space_group_symop_operation_xyz
  'x, y, z'

loop_
  _atom_site_type_symbol
  _atom_site_label
  _atom_site_symmetry_multiplicity
  _atom_site_fract_x
  _atom_site_fract_y
  _atom_site_fract_z
  _atom_site_occupancy
  Na  Na1       1.0  0.25000  0.25000  0.25000  1.0000
  Na  Na2       1.0  0.75000  0.75000  0.75000  1.0000
  O   O1        1.0  0.92300  0.72000  0.05580  1.0000
  O   O2        1.0  0.28000  0.94400  0.07730  1.0000
  O   O3        1.0  0.42300  0.55600  0.22000  1.0000
  O   O4        1.0  0.94400  0.07730  0.28000  1.0000
  O   O5        1.0  0.55600  0.22000  0.42300  1.0000
  O   O6        1.0  0.78000  0.57700  0.44400  1.0000
  O   O7        1.0  0.22000  0.42300  0.55600  1.0000
  O   O8        1.0  0.44400  0.78000  0.57700  1.0000
  O   O9        1.0  0.05580  0.92300  0.72000  1.0000
  O   O10       1.0  0.57700  0.44400  0.78000  1.0000
  O   O11       1.0  0.72000  0.05580  0.92300  1.0000
  O   O12       1.0  0.07730  0.28000  0.94400  1.0000
  Ru  Ru1       1.0  0.00000  0.00000  0.00000  1.0000
  Ru  Ru2       1.0  0.50000  0.50000  0.50000  1.0000
  Sr  Sr1       1.0  0.75000  0.39100  0.10900  1.0000
  Sr  Sr2       1.0  0.60900  0.89100  0.25000  1.0000
  Sr  Sr3       1.0  0.10900  0.75000  0.39100  1.0000
  Sr  Sr4       1.0  0.89100  0.25000  0.60900  1.0000
  Sr  Sr5       1.0  0.39100  0.10900  0.75000  1.0000
  Sr  Sr6       1.0  0.25000  0.60900  0.89100  1.0000
