data_image0
_chemical_formula_structural       Ho6O14Re2
_chemical_formula_sum              "Ho6 O14 Re2"
_cell_length_a       6.38417
_cell_length_b       6.38417
_cell_length_c       7.3483
_cell_angle_alpha    90
_cell_angle_beta     90
_cell_angle_gamma    70.913

_space_group_name_H-M_alt    "P 1"
_space_group_IT_number       1

loop_
  _space_group_symop_operation_xyz
  'x, y, z'

loop_
  _atom_site_type_symbol
  _atom_site_label
  _atom_site_symmetry_multiplicity
  _atom_site_fract_x
  _atom_site_fract_y
  _atom_site_fract_z
  _atom_site_occupancy
  Ho  Ho1       1.0  0.00032  0.53500  0.00709  1.0000
  Ho  Ho2       1.0  0.52700  0.47300  0.25000  1.0000
  Ho  Ho3       1.0  0.46500  0.00000  0.49300  1.0000
  Ho  Ho4       1.0  0.00000  0.46500  0.50700  1.0000
  Ho  Ho5       1.0  0.47300  0.52700  0.75000  1.0000
  Ho  Ho6       1.0  0.53500  0.00032  0.99300  1.0000
  O   O1        1.0  0.37000  0.37000  0.00000  1.0000
  O   O2        1.0  0.63700  0.63700  0.00000  1.0000
  O   O3        1.0  0.92700  0.92700  0.00000  1.0000
  O   O4        1.0  0.31400  0.93900  0.21200  1.0000
  O   O5        1.0  0.91800  0.32800  0.22500  1.0000
  O   O6        1.0  0.67200  0.08160  0.27500  1.0000
  O   O7        1.0  0.06130  0.68600  0.28800  1.0000
  O   O8        1.0  0.07310  0.07310  0.50000  1.0000
  O   O9        1.0  0.36300  0.36300  0.50000  1.0000
  O   O10       1.0  0.63000  0.63000  0.50000  1.0000
  O   O11       1.0  0.68600  0.06130  0.71200  1.0000
  O   O12       1.0  0.08160  0.67200  0.72500  1.0000
  O   O13       1.0  0.32800  0.91800  0.77500  1.0000
  O   O14       1.0  0.93900  0.31400  0.78800  1.0000
  Re  Re1       1.0  0.00066  0.99900  0.25000  1.0000
  Re  Re2       1.0  0.99900  0.00066  0.75000  1.0000
