data_image0
_chemical_formula_structural       Cu4Sn10Yb8
_chemical_formula_sum              "Cu4 Sn10 Yb8"
_cell_length_a       4.43221
_cell_length_b       13.8946
_cell_length_c       8.93877
_cell_angle_alpha    90
_cell_angle_beta     90
_cell_angle_gamma    90

_space_group_name_H-M_alt    "P 1"
_space_group_IT_number       1

loop_
  _space_group_symop_operation_xyz
  'x, y, z'

loop_
  _atom_site_type_symbol
  _atom_site_label
  _atom_site_symmetry_multiplicity
  _atom_site_fract_x
  _atom_site_fract_y
  _atom_site_fract_z
  _atom_site_occupancy
  Cu  Cu1       1.0  0.25000  0.10600  0.37500  1.0000
  Cu  Cu2       1.0  0.25000  0.39400  0.37500  1.0000
  Cu  Cu3       1.0  0.75000  0.60600  0.62500  1.0000
  Cu  Cu4       1.0  0.75000  0.89400  0.62500  1.0000
  Sn  Sn1       1.0  0.25000  0.14500  0.08210  1.0000
  Sn  Sn2       1.0  0.25000  0.35500  0.08210  1.0000
  Sn  Sn3       1.0  0.75000  0.75000  0.40500  1.0000
  Sn  Sn4       1.0  0.25000  0.58700  0.44500  1.0000
  Sn  Sn5       1.0  0.25000  0.91300  0.44500  1.0000
  Sn  Sn6       1.0  0.75000  0.08720  0.55500  1.0000
  Sn  Sn7       1.0  0.75000  0.41300  0.55500  1.0000
  Sn  Sn8       1.0  0.25000  0.25000  0.59500  1.0000
  Sn  Sn9       1.0  0.75000  0.64500  0.91800  1.0000
  Sn  Sn10      1.0  0.75000  0.85500  0.91800  1.0000
  Yb  Yb1       1.0  0.25000  0.75000  0.13500  1.0000
  Yb  Yb2       1.0  0.75000  0.50800  0.20600  1.0000
  Yb  Yb3       1.0  0.75000  0.99200  0.20600  1.0000
  Yb  Yb4       1.0  0.75000  0.25000  0.29600  1.0000
  Yb  Yb5       1.0  0.25000  0.75000  0.70400  1.0000
  Yb  Yb6       1.0  0.25000  0.00777  0.79400  1.0000
  Yb  Yb7       1.0  0.25000  0.49200  0.79400  1.0000
  Yb  Yb8       1.0  0.75000  0.25000  0.86500  1.0000
