data_image0
_chemical_formula_structural       B14Dy6Fe2
_chemical_formula_sum              "B14 Dy6 Fe2"
_cell_length_a       3.41188
_cell_length_b       8.02077
_cell_length_c       9.29345
_cell_angle_alpha    90
_cell_angle_beta     90
_cell_angle_gamma    77.7199

_space_group_name_H-M_alt    "P 1"
_space_group_IT_number       1

loop_
  _space_group_symop_operation_xyz
  'x, y, z'

loop_
  _atom_site_type_symbol
  _atom_site_label
  _atom_site_symmetry_multiplicity
  _atom_site_fract_x
  _atom_site_fract_y
  _atom_site_fract_z
  _atom_site_occupancy
  B   B1        1.0  0.27200  0.45500  0.03300  1.0000
  B   B2        1.0  0.47800  0.04380  0.09880  1.0000
  B   B3        1.0  0.37000  0.26000  0.15300  1.0000
  B   B4        1.0  0.54000  0.92000  0.25000  1.0000
  B   B5        1.0  0.37000  0.26000  0.34700  1.0000
  B   B6        1.0  0.47800  0.04380  0.40100  1.0000
  B   B7        1.0  0.27200  0.45500  0.46700  1.0000
  B   B8        1.0  0.72800  0.54500  0.53300  1.0000
  B   B9        1.0  0.52200  0.95600  0.59900  1.0000
  B   B10       1.0  0.63000  0.74000  0.65300  1.0000
  B   B11       1.0  0.46000  0.07960  0.75000  1.0000
  B   B12       1.0  0.63000  0.74000  0.84700  1.0000
  B   B13       1.0  0.52200  0.95600  0.90100  1.0000
  B   B14       1.0  0.72800  0.54500  0.96700  1.0000
  Dy  Dy1       1.0  0.10500  0.79100  0.06050  1.0000
  Dy  Dy2       1.0  0.75700  0.48600  0.25000  1.0000
  Dy  Dy3       1.0  0.10500  0.79100  0.44000  1.0000
  Dy  Dy4       1.0  0.89500  0.20900  0.56000  1.0000
  Dy  Dy5       1.0  0.24300  0.51400  0.75000  1.0000
  Dy  Dy6       1.0  0.89500  0.20900  0.94000  1.0000
  Fe  Fe1       1.0  0.94600  0.10900  0.25000  1.0000
  Fe  Fe2       1.0  0.05430  0.89100  0.75000  1.0000
