data_image0
_chemical_formula_structural       In8Ni4Sc10
_chemical_formula_sum              "In8 Ni4 Sc10"
_cell_length_a       17.2195
_cell_length_b       7.59249
_cell_length_c       3.3644
_cell_angle_alpha    90
_cell_angle_beta     90
_cell_angle_gamma    90

_space_group_name_H-M_alt    "P 1"
_space_group_IT_number       1

loop_
  _space_group_symop_operation_xyz
  'x, y, z'

loop_
  _atom_site_type_symbol
  _atom_site_label
  _atom_site_symmetry_multiplicity
  _atom_site_fract_x
  _atom_site_fract_y
  _atom_site_fract_z
  _atom_site_occupancy
  In  In1       1.0  0.84800  0.07240  0.50000  1.0000
  In  In2       1.0  0.56800  0.20200  0.50000  1.0000
  In  In3       1.0  0.06780  0.29800  0.50000  1.0000
  In  In4       1.0  0.34800  0.42800  0.50000  1.0000
  In  In5       1.0  0.65200  0.57200  0.50000  1.0000
  In  In6       1.0  0.93200  0.70200  0.50000  1.0000
  In  In7       1.0  0.43200  0.79800  0.50000  1.0000
  In  In8       1.0  0.15200  0.92800  0.50000  1.0000
  Ni  Ni1       1.0  0.30500  0.03780  0.50000  1.0000
  Ni  Ni2       1.0  0.80500  0.46200  0.50000  1.0000
  Ni  Ni3       1.0  0.19500  0.53800  0.50000  1.0000
  Ni  Ni4       1.0  0.69500  0.96200  0.50000  1.0000
  Sc  Sc1       1.0  0.00000  0.00000  0.00000  1.0000
  Sc  Sc2       1.0  0.41300  0.12300  0.00000  1.0000
  Sc  Sc3       1.0  0.72100  0.24800  0.00000  1.0000
  Sc  Sc4       1.0  0.22100  0.25200  0.00000  1.0000
  Sc  Sc5       1.0  0.91300  0.37700  0.00000  1.0000
  Sc  Sc6       1.0  0.50000  0.50000  0.00000  1.0000
  Sc  Sc7       1.0  0.08650  0.62300  0.00000  1.0000
  Sc  Sc8       1.0  0.77900  0.74800  0.00000  1.0000
  Sc  Sc9       1.0  0.27900  0.75200  0.00000  1.0000
  Sc  Sc10      1.0  0.58700  0.87700  0.00000  1.0000
