data_image0
_chemical_formula_structural       Br14In8
_chemical_formula_sum              "Br14 In8"
_cell_length_a       7.64959
_cell_length_b       7.64959
_cell_length_c       16.195
_cell_angle_alpha    103.661
_cell_angle_beta     103.661
_cell_angle_gamma    60

_space_group_name_H-M_alt    "P 1"
_space_group_IT_number       1

loop_
  _space_group_symop_operation_xyz
  'x, y, z'

loop_
  _atom_site_type_symbol
  _atom_site_label
  _atom_site_symmetry_multiplicity
  _atom_site_fract_x
  _atom_site_fract_y
  _atom_site_fract_z
  _atom_site_occupancy
  Br  Br1       1.0  0.34600  0.34600  0.03770  1.0000
  Br  Br2       1.0  0.90700  0.36700  0.18000  1.0000
  Br  Br3       1.0  0.36700  0.90700  0.18000  1.0000
  Br  Br4       1.0  0.90700  0.90700  0.18000  1.0000
  Br  Br5       1.0  0.63300  0.13300  0.39900  1.0000
  Br  Br6       1.0  0.13300  0.63300  0.39900  1.0000
  Br  Br7       1.0  0.63300  0.63300  0.39900  1.0000
  Br  Br8       1.0  0.36700  0.36700  0.60100  1.0000
  Br  Br9       1.0  0.86700  0.36700  0.60100  1.0000
  Br  Br10      1.0  0.36700  0.86700  0.60100  1.0000
  Br  Br11      1.0  0.09340  0.09340  0.82000  1.0000
  Br  Br12      1.0  0.63300  0.09340  0.82000  1.0000
  Br  Br13      1.0  0.09340  0.63300  0.82000  1.0000
  Br  Br14      1.0  0.65400  0.65400  0.96200  1.0000
  In  In1       1.0  0.00000  0.00000  0.00000  1.0000
  In  In2       1.0  0.70800  0.70800  0.12500  1.0000
  In  In3       1.0  0.41600  0.41600  0.24800  1.0000
  In  In4       1.0  0.14900  0.14900  0.44800  1.0000
  In  In5       1.0  0.50000  0.50000  0.50000  1.0000
  In  In6       1.0  0.85100  0.85100  0.55200  1.0000
  In  In7       1.0  0.58400  0.58400  0.75200  1.0000
  In  In8       1.0  0.29200  0.29200  0.87500  1.0000
