data_image0
_chemical_formula_structural       Cu4O14V4
_chemical_formula_sum              "Cu4 O14 V4"
_cell_length_a       5.05425
_cell_length_b       5.78953
_cell_length_c       9.33286
_cell_angle_alpha    99.5623
_cell_angle_beta     96.8122
_cell_angle_gamma    97.0828

_space_group_name_H-M_alt    "P 1"
_space_group_IT_number       1

loop_
  _space_group_symop_operation_xyz
  'x, y, z'

loop_
  _atom_site_type_symbol
  _atom_site_label
  _atom_site_symmetry_multiplicity
  _atom_site_fract_x
  _atom_site_fract_y
  _atom_site_fract_z
  _atom_site_occupancy
  Cu  Cu1       1.0  0.27900  0.14600  0.00579  1.0000
  Cu  Cu2       1.0  0.73700  0.84700  0.48400  1.0000
  Cu  Cu3       1.0  0.26300  0.15300  0.51600  1.0000
  Cu  Cu4       1.0  0.72100  0.85400  0.99400  1.0000
  O   O1        1.0  0.26900  0.45700  0.10500  1.0000
  O   O2        1.0  0.05030  0.87800  0.11900  1.0000
  O   O3        1.0  0.61700  0.12800  0.12000  1.0000
  O   O4        1.0  0.89400  0.55800  0.31300  1.0000
  O   O5        1.0  0.41900  0.83100  0.35000  1.0000
  O   O6        1.0  0.43500  0.32100  0.38400  1.0000
  O   O7        1.0  0.91200  0.10500  0.39700  1.0000
  O   O8        1.0  0.08850  0.89500  0.60300  1.0000
  O   O9        1.0  0.56500  0.67900  0.61600  1.0000
  O   O10       1.0  0.58100  0.16900  0.65000  1.0000
  O   O11       1.0  0.10600  0.44200  0.68700  1.0000
  O   O12       1.0  0.38300  0.87200  0.88000  1.0000
  O   O13       1.0  0.95000  0.12200  0.88100  1.0000
  O   O14       1.0  0.73100  0.54300  0.89500  1.0000
  V   V1        1.0  0.16600  0.67500  0.21800  1.0000
  V   V2        1.0  0.70800  0.27000  0.30300  1.0000
  V   V3        1.0  0.29200  0.73000  0.69700  1.0000
  V   V4        1.0  0.83400  0.32500  0.78200  1.0000
