data_image0
_chemical_formula_structural       Br8O2Rb12
_chemical_formula_sum              "Br8 O2 Rb12"
_cell_length_a       9.43409
_cell_length_b       9.43409
_cell_length_c       9.43409
_cell_angle_alpha    91.1075
_cell_angle_beta     88.8925
_cell_angle_gamma    91.1075

_space_group_name_H-M_alt    "P 1"
_space_group_IT_number       1

loop_
  _space_group_symop_operation_xyz
  'x, y, z'

loop_
  _atom_site_type_symbol
  _atom_site_label
  _atom_site_symmetry_multiplicity
  _atom_site_fract_x
  _atom_site_fract_y
  _atom_site_fract_z
  _atom_site_occupancy
  Br  Br1       1.0  0.75000  0.62000  0.12000  1.0000
  Br  Br2       1.0  0.62000  0.12000  0.25000  1.0000
  Br  Br3       1.0  0.25000  0.75000  0.25000  1.0000
  Br  Br4       1.0  0.12000  0.25000  0.38000  1.0000
  Br  Br5       1.0  0.88000  0.75000  0.62000  1.0000
  Br  Br6       1.0  0.38000  0.88000  0.75000  1.0000
  Br  Br7       1.0  0.75000  0.25000  0.75000  1.0000
  Br  Br8       1.0  0.25000  0.38000  0.88000  1.0000
  O   O1        1.0  0.00000  0.00000  0.00000  1.0000
  O   O2        1.0  0.50000  0.50000  0.50000  1.0000
  Rb  Rb1       1.0  0.92900  0.27700  0.05880  1.0000
  Rb  Rb2       1.0  0.27700  0.05880  0.07070  1.0000
  Rb  Rb3       1.0  0.42900  0.44100  0.22300  1.0000
  Rb  Rb4       1.0  0.94100  0.92900  0.27700  1.0000
  Rb  Rb5       1.0  0.55900  0.77700  0.42900  1.0000
  Rb  Rb6       1.0  0.77700  0.42900  0.44100  1.0000
  Rb  Rb7       1.0  0.22300  0.57100  0.55900  1.0000
  Rb  Rb8       1.0  0.44100  0.22300  0.57100  1.0000
  Rb  Rb9       1.0  0.05880  0.07070  0.72300  1.0000
  Rb  Rb10      1.0  0.57100  0.55900  0.77700  1.0000
  Rb  Rb11      1.0  0.72300  0.94100  0.92900  1.0000
  Rb  Rb12      1.0  0.07070  0.72300  0.94100  1.0000
