data_image0
_chemical_formula_structural       Dy2Fe17N3
_chemical_formula_sum              "Dy2 Fe17 N3"
_cell_length_a       6.49236
_cell_length_b       6.49236
_cell_length_c       6.49236
_cell_angle_alpha    97.0109
_cell_angle_beta     82.9891
_cell_angle_gamma    97.0109

_space_group_name_H-M_alt    "P 1"
_space_group_IT_number       1

loop_
  _space_group_symop_operation_xyz
  'x, y, z'

loop_
  _atom_site_type_symbol
  _atom_site_label
  _atom_site_symmetry_multiplicity
  _atom_site_fract_x
  _atom_site_fract_y
  _atom_site_fract_z
  _atom_site_occupancy
  Dy  Dy1       1.0  0.34200  0.65800  0.34200  1.0000
  Dy  Dy2       1.0  0.65800  0.34200  0.65800  1.0000
  Fe  Fe1       1.0  0.50000  0.00000  0.00000  1.0000
  Fe  Fe2       1.0  0.28200  0.28200  0.00000  1.0000
  Fe  Fe3       1.0  0.00000  0.50000  0.00000  1.0000
  Fe  Fe4       1.0  0.71800  0.71800  0.00000  1.0000
  Fe  Fe5       1.0  0.09460  0.90500  0.09460  1.0000
  Fe  Fe6       1.0  0.65700  0.34300  0.14400  1.0000
  Fe  Fe7       1.0  0.00000  0.28200  0.28200  1.0000
  Fe  Fe8       1.0  0.71800  0.00000  0.28200  1.0000
  Fe  Fe9       1.0  0.34300  0.14400  0.34300  1.0000
  Fe  Fe10      1.0  0.85600  0.65700  0.34300  1.0000
  Fe  Fe11      1.0  0.00000  0.00000  0.50000  1.0000
  Fe  Fe12      1.0  0.65700  0.85600  0.65700  1.0000
  Fe  Fe13      1.0  0.14400  0.34300  0.65700  1.0000
  Fe  Fe14      1.0  0.00000  0.71800  0.71800  1.0000
  Fe  Fe15      1.0  0.28200  0.00000  0.71800  1.0000
  Fe  Fe16      1.0  0.34300  0.65700  0.85600  1.0000
  Fe  Fe17      1.0  0.90500  0.09460  0.90500  1.0000
  N   N1        1.0  0.50000  0.50000  0.00000  1.0000
  N   N2        1.0  0.50000  0.00000  0.50000  1.0000
  N   N3        1.0  0.00000  0.50000  0.50000  1.0000
