data_image0
_chemical_formula_structural       C8K5N8Nb
_chemical_formula_sum              "C8 K5 N8 Nb1"
_cell_length_a       7.9044
_cell_length_b       7.9044
_cell_length_c       7.9044
_cell_angle_alpha    110.037
_cell_angle_beta     109.189
_cell_angle_gamma    109.189

_space_group_name_H-M_alt    "P 1"
_space_group_IT_number       1

loop_
  _space_group_symop_operation_xyz
  'x, y, z'

loop_
  _atom_site_type_symbol
  _atom_site_label
  _atom_site_symmetry_multiplicity
  _atom_site_fract_x
  _atom_site_fract_y
  _atom_site_fract_z
  _atom_site_occupancy
  C   C1        1.0  0.84000  0.71600  0.00636  1.0000
  C   C2        1.0  0.10100  0.33800  0.16800  1.0000
  C   C3        1.0  0.89900  0.06720  0.23700  1.0000
  C   C4        1.0  0.29000  0.12400  0.28400  1.0000
  C   C5        1.0  0.83000  0.76300  0.66200  1.0000
  C   C6        1.0  0.71000  0.99400  0.83400  1.0000
  C   C7        1.0  0.16000  0.16600  0.87600  1.0000
  C   C8        1.0  0.17000  0.83200  0.93300  1.0000
  K   K1        1.0  0.60600  0.26900  0.12800  1.0000
  K   K2        1.0  0.50000  0.75000  0.25000  1.0000
  K   K3        1.0  0.14100  0.87200  0.47800  1.0000
  K   K4        1.0  0.39400  0.52200  0.66300  1.0000
  K   K5        1.0  0.85900  0.33700  0.73100  1.0000
  N   N1        1.0  0.75400  0.57100  0.01880  1.0000
  N   N2        1.0  0.15600  0.51600  0.26500  1.0000
  N   N3        1.0  0.84400  0.10900  0.36000  1.0000
  N   N4        1.0  0.44800  0.18300  0.42900  1.0000
  N   N5        1.0  0.74900  0.64000  0.48400  1.0000
  N   N6        1.0  0.55200  0.98100  0.73500  1.0000
  N   N7        1.0  0.24600  0.26500  0.81700  1.0000
  N   N8        1.0  0.25100  0.73500  0.89100  1.0000
  Nb  Nb1       1.0  0.00000  0.00000  0.00000  1.0000
