data_image0
_chemical_formula_structural       Na4O14S4
_chemical_formula_sum              "Na4 O14 S4"
_cell_length_a       6.71166
_cell_length_b       6.74029
_cell_length_c       6.6588
_cell_angle_alpha    116.808
_cell_angle_beta     96.0567
_cell_angle_gamma    84.2651

_space_group_name_H-M_alt    "P 1"
_space_group_IT_number       1

loop_
  _space_group_symop_operation_xyz
  'x, y, z'

loop_
  _atom_site_type_symbol
  _atom_site_label
  _atom_site_symmetry_multiplicity
  _atom_site_fract_x
  _atom_site_fract_y
  _atom_site_fract_z
  _atom_site_occupancy
  Na  Na1       1.0  0.86600  0.18300  0.23100  1.0000
  Na  Na2       1.0  0.66300  0.75700  0.38400  1.0000
  Na  Na3       1.0  0.33700  0.24300  0.61600  1.0000
  Na  Na4       1.0  0.13400  0.81700  0.76900  1.0000
  O   O1        1.0  0.24100  0.50800  0.07850  1.0000
  O   O2        1.0  0.63800  0.87100  0.08850  1.0000
  O   O3        1.0  0.07930  0.85300  0.12500  1.0000
  O   O4        1.0  0.55900  0.39200  0.23700  1.0000
  O   O5        1.0  0.23900  0.28400  0.29100  1.0000
  O   O6        1.0  0.00544  0.70400  0.38200  1.0000
  O   O7        1.0  0.32700  0.85200  0.42300  1.0000
  O   O8        1.0  0.67300  0.14800  0.57700  1.0000
  O   O9        1.0  0.99500  0.29600  0.61800  1.0000
  O   O10       1.0  0.76100  0.71600  0.70900  1.0000
  O   O11       1.0  0.44100  0.60800  0.76300  1.0000
  O   O12       1.0  0.92100  0.14700  0.87500  1.0000
  O   O13       1.0  0.36200  0.12900  0.91200  1.0000
  O   O14       1.0  0.75900  0.49200  0.92200  1.0000
  S   S1        1.0  0.36200  0.30900  0.13900  1.0000
  S   S2        1.0  0.15700  0.74800  0.26800  1.0000
  S   S3        1.0  0.84300  0.25200  0.73200  1.0000
  S   S4        1.0  0.63800  0.69100  0.86100  1.0000
