data_image0
_chemical_formula_structural       C3Fe17Sm2
_chemical_formula_sum              "C3 Fe17 Sm2"
_cell_length_a       6.51254
_cell_length_b       6.51254
_cell_length_c       6.51254
_cell_angle_alpha    83.6645
_cell_angle_beta     96.3355
_cell_angle_gamma    96.3355

_space_group_name_H-M_alt    "P 1"
_space_group_IT_number       1

loop_
  _space_group_symop_operation_xyz
  'x, y, z'

loop_
  _atom_site_type_symbol
  _atom_site_label
  _atom_site_symmetry_multiplicity
  _atom_site_fract_x
  _atom_site_fract_y
  _atom_site_fract_z
  _atom_site_occupancy
  C   C1        1.0  0.50000  0.50000  0.00000  1.0000
  C   C2        1.0  0.50000  0.00000  0.50000  1.0000
  C   C3        1.0  1.00000  0.50000  0.50000  1.0000
  Fe  Fe1       1.0  0.50000  0.00000  0.00000  1.0000
  Fe  Fe2       1.0  0.28400  0.28400  0.00000  1.0000
  Fe  Fe3       1.0  0.00000  0.50000  0.00000  1.0000
  Fe  Fe4       1.0  0.71600  0.71600  0.00000  1.0000
  Fe  Fe5       1.0  0.90500  0.09450  0.09450  1.0000
  Fe  Fe6       1.0  0.34200  0.65800  0.14300  1.0000
  Fe  Fe7       1.0  0.00000  0.71600  0.28400  1.0000
  Fe  Fe8       1.0  0.28400  0.00000  0.28400  1.0000
  Fe  Fe9       1.0  0.65800  0.85700  0.34200  1.0000
  Fe  Fe10      1.0  0.14300  0.34200  0.34200  1.0000
  Fe  Fe11      1.0  0.00000  0.00000  0.50000  1.0000
  Fe  Fe12      1.0  0.34200  0.14300  0.65800  1.0000
  Fe  Fe13      1.0  0.85700  0.65800  0.65800  1.0000
  Fe  Fe14      1.0  0.71600  0.00000  0.71600  1.0000
  Fe  Fe15      1.0  0.00000  0.28400  0.71600  1.0000
  Fe  Fe16      1.0  0.65800  0.34200  0.85700  1.0000
  Fe  Fe17      1.0  0.09450  0.90500  0.90500  1.0000
  Sm  Sm1       1.0  0.65500  0.34500  0.34500  1.0000
  Sm  Sm2       1.0  0.34500  0.65500  0.65500  1.0000
