data_image0
_chemical_formula_structural       Fe2K4P4S12
_chemical_formula_sum              "Fe2 K4 P4 S12"
_cell_length_a       7.43246
_cell_length_b       12.2005
_cell_length_c       8.61517
_cell_angle_alpha    90
_cell_angle_beta     136.621
_cell_angle_gamma    90

_space_group_name_H-M_alt    "P 1"
_space_group_IT_number       1

loop_
  _space_group_symop_operation_xyz
  'x, y, z'

loop_
  _atom_site_type_symbol
  _atom_site_label
  _atom_site_symmetry_multiplicity
  _atom_site_fract_x
  _atom_site_fract_y
  _atom_site_fract_z
  _atom_site_occupancy
  Fe  Fe1       1.0  0.00000  0.50000  0.00000  1.0000
  Fe  Fe2       1.0  0.00000  0.00000  0.50000  1.0000
  K   K1        1.0  0.68700  0.68300  0.22100  1.0000
  K   K2        1.0  0.31300  0.18300  0.27900  1.0000
  K   K3        1.0  0.68700  0.81700  0.72100  1.0000
  K   K4        1.0  0.31300  0.31700  0.77900  1.0000
  P   P1        1.0  0.65500  0.03760  0.02370  1.0000
  P   P2        1.0  0.34500  0.53800  0.47600  1.0000
  P   P3        1.0  0.65500  0.46200  0.52400  1.0000
  P   P4        1.0  0.34500  0.96200  0.97600  1.0000
  S   S1        1.0  0.94500  0.92400  0.19400  1.0000
  S   S2        1.0  0.44700  0.43200  0.19600  1.0000
  S   S3        1.0  0.79100  0.16700  0.23200  1.0000
  S   S4        1.0  0.20900  0.66700  0.26800  1.0000
  S   S5        1.0  0.55300  0.93200  0.30400  1.0000
  S   S6        1.0  0.05470  0.42400  0.30600  1.0000
  S   S7        1.0  0.94500  0.57600  0.69400  1.0000
  S   S8        1.0  0.44700  0.06790  0.69600  1.0000
  S   S9        1.0  0.79100  0.33300  0.73200  1.0000
  S   S10       1.0  0.20900  0.83300  0.76800  1.0000
  S   S11       1.0  0.55300  0.56800  0.80400  1.0000
  S   S12       1.0  0.05470  0.07570  0.80600  1.0000
