data_image0
_chemical_formula_structural       Se18V4
_chemical_formula_sum              "Se18 V4"
_cell_length_a       8.2413
_cell_length_b       8.28252
_cell_length_c       8.28252
_cell_angle_alpha    99.9971
_cell_angle_beta     94.3991
_cell_angle_gamma    94.3991

_space_group_name_H-M_alt    "P 1"
_space_group_IT_number       1

loop_
  _space_group_symop_operation_xyz
  'x, y, z'

loop_
  _atom_site_type_symbol
  _atom_site_label
  _atom_site_symmetry_multiplicity
  _atom_site_fract_x
  _atom_site_fract_y
  _atom_site_fract_z
  _atom_site_occupancy
  Se  Se1       1.0  0.17400  0.32500  0.00570  1.0000
  Se  Se2       1.0  0.38500  0.70800  0.09180  1.0000
  Se  Se3       1.0  0.94300  0.32300  0.15000  1.0000
  Se  Se4       1.0  0.11500  0.90800  0.29200  1.0000
  Se  Se5       1.0  0.53800  0.59700  0.29500  1.0000
  Se  Se6       1.0  0.44300  0.15000  0.32300  1.0000
  Se  Se7       1.0  0.67400  0.00570  0.32500  1.0000
  Se  Se8       1.0  0.96200  0.70500  0.40300  1.0000
  Se  Se9       1.0  0.25000  0.58800  0.41200  1.0000
  Se  Se10      1.0  0.75000  0.41200  0.58800  1.0000
  Se  Se11      1.0  0.03790  0.29500  0.59700  1.0000
  Se  Se12      1.0  0.32600  0.99400  0.67500  1.0000
  Se  Se13      1.0  0.55700  0.85000  0.67700  1.0000
  Se  Se14      1.0  0.46200  0.40300  0.70500  1.0000
  Se  Se15      1.0  0.88500  0.09180  0.70800  1.0000
  Se  Se16      1.0  0.05650  0.67700  0.85000  1.0000
  Se  Se17      1.0  0.61500  0.29200  0.90800  1.0000
  Se  Se18      1.0  0.82600  0.67500  0.99400  1.0000
  V   V1        1.0  0.08440  0.60100  0.13600  1.0000
  V   V2        1.0  0.41600  0.86400  0.39900  1.0000
  V   V3        1.0  0.58400  0.13600  0.60100  1.0000
  V   V4        1.0  0.91600  0.39900  0.86400  1.0000
