data_image0
_chemical_formula_structural       O14P4Pd4
_chemical_formula_sum              "O14 P4 Pd4"
_cell_length_a       5.14174
_cell_length_b       7.08849
_cell_length_c       8.07779
_cell_angle_alpha    96.9489
_cell_angle_beta     90
_cell_angle_gamma    111.265

_space_group_name_H-M_alt    "P 1"
_space_group_IT_number       1

loop_
  _space_group_symop_operation_xyz
  'x, y, z'

loop_
  _atom_site_type_symbol
  _atom_site_label
  _atom_site_symmetry_multiplicity
  _atom_site_fract_x
  _atom_site_fract_y
  _atom_site_fract_z
  _atom_site_occupancy
  O   O1        1.0  0.84900  0.22100  0.08670  1.0000
  O   O2        1.0  0.69700  0.77000  0.09310  1.0000
  O   O3        1.0  0.21500  0.61900  0.21900  1.0000
  O   O4        1.0  0.47100  0.00000  0.25000  1.0000
  O   O5        1.0  0.59600  0.38100  0.28100  1.0000
  O   O6        1.0  0.92600  0.23000  0.40700  1.0000
  O   O7        1.0  0.62800  0.77900  0.41300  1.0000
  O   O8        1.0  0.37200  0.22100  0.58700  1.0000
  O   O9        1.0  0.07360  0.77000  0.59300  1.0000
  O   O10       1.0  0.40400  0.61900  0.71900  1.0000
  O   O11       1.0  0.52900  0.00000  0.75000  1.0000
  O   O12       1.0  0.78500  0.38100  0.78100  1.0000
  O   O13       1.0  0.30300  0.23000  0.90700  1.0000
  O   O14       1.0  0.15100  0.77900  0.91300  1.0000
  P   P1        1.0  0.50500  0.78100  0.23500  1.0000
  P   P2        1.0  0.72500  0.21900  0.26500  1.0000
  P   P3        1.0  0.27500  0.78100  0.73500  1.0000
  P   P4        1.0  0.49500  0.21900  0.76500  1.0000
  Pd  Pd1       1.0  0.00000  0.00000  0.00000  1.0000
  Pd  Pd2       1.0  0.00000  0.50000  0.00000  1.0000
  Pd  Pd3       1.0  0.00000  0.00000  0.50000  1.0000
  Pd  Pd4       1.0  0.50000  0.50000  0.50000  1.0000
