data_image0
_chemical_formula_structural       Cl4H12Mg2N4
_chemical_formula_sum              "Cl4 H12 Mg2 N4"
_cell_length_a       6.81047
_cell_length_b       6.81047
_cell_length_c       6.81047
_cell_angle_alpha    107.156
_cell_angle_beta     114.035
_cell_angle_gamma    107.321

_space_group_name_H-M_alt    "P 1"
_space_group_IT_number       1

loop_
  _space_group_symop_operation_xyz
  'x, y, z'

loop_
  _atom_site_type_symbol
  _atom_site_label
  _atom_site_symmetry_multiplicity
  _atom_site_fract_x
  _atom_site_fract_y
  _atom_site_fract_z
  _atom_site_occupancy
  Cl  Cl1       1.0  0.22400  0.21700  0.00715  1.0000
  Cl  Cl2       1.0  0.71000  0.21700  0.49300  1.0000
  Cl  Cl3       1.0  0.29000  0.78300  0.50700  1.0000
  Cl  Cl4       1.0  0.77600  0.78300  0.99300  1.0000
  H   H1        1.0  0.28200  0.61300  0.05030  1.0000
  H   H2        1.0  0.65100  0.22300  0.07220  1.0000
  H   H3        1.0  0.93700  0.38700  0.16900  1.0000
  H   H4        1.0  0.71800  0.76900  0.33100  1.0000
  H   H5        1.0  0.65100  0.57900  0.42800  1.0000
  H   H6        1.0  0.06260  0.23100  0.45000  1.0000
  H   H7        1.0  0.93700  0.76900  0.55000  1.0000
  H   H8        1.0  0.34900  0.42100  0.57200  1.0000
  H   H9        1.0  0.28200  0.23100  0.66900  1.0000
  H   H10       1.0  0.06260  0.61300  0.83100  1.0000
  H   H11       1.0  0.34900  0.77700  0.92800  1.0000
  H   H12       1.0  0.71800  0.38700  0.95000  1.0000
  Mg  Mg1       1.0  0.24700  0.99700  0.25000  1.0000
  Mg  Mg2       1.0  0.75300  0.00311  0.75000  1.0000
  N   N1        1.0  0.76400  0.27800  0.01390  1.0000
  N   N2        1.0  0.76400  0.75000  0.48600  1.0000
  N   N3        1.0  0.23600  0.25000  0.51400  1.0000
  N   N4        1.0  0.23600  0.72200  0.98600  1.0000
