data_image0
_chemical_formula_structural       Mo2O14Te2Zn4
_chemical_formula_sum              "Mo2 O14 Te2 Zn4"
_cell_length_a       5.16015
_cell_length_b       8.31457
_cell_length_c       7.22115
_cell_angle_alpha    90
_cell_angle_beta     99.1568
_cell_angle_gamma    90

_space_group_name_H-M_alt    "P 1"
_space_group_IT_number       1

loop_
  _space_group_symop_operation_xyz
  'x, y, z'

loop_
  _atom_site_type_symbol
  _atom_site_label
  _atom_site_symmetry_multiplicity
  _atom_site_fract_x
  _atom_site_fract_y
  _atom_site_fract_z
  _atom_site_occupancy
  Mo  Mo1       1.0  0.07430  0.53100  0.01180  1.0000
  Mo  Mo2       1.0  0.92600  0.03120  0.98800  1.0000
  O   O1        1.0  0.26000  0.71100  0.04820  1.0000
  O   O2        1.0  0.72800  0.87100  0.05130  1.0000
  O   O3        1.0  0.21800  0.06000  0.16100  1.0000
  O   O4        1.0  0.99100  0.47100  0.23200  1.0000
  O   O5        1.0  0.70700  0.05860  0.35500  1.0000
  O   O6        1.0  0.24100  0.84500  0.45300  1.0000
  O   O7        1.0  0.68900  0.71000  0.45900  1.0000
  O   O8        1.0  0.31100  0.21000  0.54100  1.0000
  O   O9        1.0  0.75900  0.34500  0.54700  1.0000
  O   O10       1.0  0.29300  0.55900  0.64500  1.0000
  O   O11       1.0  0.00918  0.97100  0.76800  1.0000
  O   O12       1.0  0.78200  0.56000  0.83900  1.0000
  O   O13       1.0  0.27200  0.37100  0.94900  1.0000
  O   O14       1.0  0.74000  0.21100  0.95200  1.0000
  Te  Te1       1.0  0.51200  0.25400  0.34600  1.0000
  Te  Te2       1.0  0.48800  0.75400  0.65400  1.0000
  Zn  Zn1       1.0  0.48100  0.85600  0.24300  1.0000
  Zn  Zn2       1.0  0.95300  0.54000  0.49000  1.0000
  Zn  Zn3       1.0  0.04710  0.04000  0.51000  1.0000
  Zn  Zn4       1.0  0.51900  0.35600  0.75700  1.0000
