data_image0
_chemical_formula_structural       Cu6K4S10U2
_chemical_formula_sum              "Cu6 K4 S10 U2"
_cell_length_a       3.92662
_cell_length_b       7.23638
_cell_length_c       17.5739
_cell_angle_alpha    90
_cell_angle_beta     90
_cell_angle_gamma    74.2577

_space_group_name_H-M_alt    "P 1"
_space_group_IT_number       1

loop_
  _space_group_symop_operation_xyz
  'x, y, z'

loop_
  _atom_site_type_symbol
  _atom_site_label
  _atom_site_symmetry_multiplicity
  _atom_site_fract_x
  _atom_site_fract_y
  _atom_site_fract_z
  _atom_site_occupancy
  Cu  Cu1       1.0  0.04340  0.91300  0.14400  1.0000
  Cu  Cu2       1.0  0.55300  0.89300  0.25000  1.0000
  Cu  Cu3       1.0  0.04340  0.91300  0.35600  1.0000
  Cu  Cu4       1.0  0.95700  0.08680  0.64400  1.0000
  Cu  Cu5       1.0  0.44700  0.10700  0.75000  1.0000
  Cu  Cu6       1.0  0.95700  0.08680  0.85600  1.0000
  K   K1        1.0  0.76400  0.47200  0.13400  1.0000
  K   K2        1.0  0.76400  0.47200  0.36600  1.0000
  K   K3        1.0  0.23600  0.52800  0.63400  1.0000
  K   K4        1.0  0.23600  0.52800  0.86600  1.0000
  S   S1        1.0  0.12600  0.74900  0.02980  1.0000
  S   S2        1.0  0.44700  0.10600  0.14200  1.0000
  S   S3        1.0  0.14700  0.70500  0.25000  1.0000
  S   S4        1.0  0.44700  0.10600  0.35800  1.0000
  S   S5        1.0  0.12600  0.74900  0.47000  1.0000
  S   S6        1.0  0.87400  0.25100  0.53000  1.0000
  S   S7        1.0  0.55300  0.89400  0.64200  1.0000
  S   S8        1.0  0.85300  0.29500  0.75000  1.0000
  S   S9        1.0  0.55300  0.89400  0.85800  1.0000
  S   S10       1.0  0.87400  0.25100  0.97000  1.0000
  U   U1        1.0  0.50000  0.00000  0.00000  1.0000
  U   U2        1.0  0.50000  0.00000  0.50000  1.0000
