data_image0
_chemical_formula_structural       Cl4Cu4O10Te4
_chemical_formula_sum              "Cl4 Cu4 O10 Te4"
_cell_length_a       7.49898
_cell_length_b       7.49898
_cell_length_c       6.35568
_cell_angle_alpha    90
_cell_angle_beta     90
_cell_angle_gamma    90

_space_group_name_H-M_alt    "P 1"
_space_group_IT_number       1

loop_
  _space_group_symop_operation_xyz
  'x, y, z'

loop_
  _atom_site_type_symbol
  _atom_site_label
  _atom_site_symmetry_multiplicity
  _atom_site_fract_x
  _atom_site_fract_y
  _atom_site_fract_z
  _atom_site_occupancy
  Cl  Cl1       1.0  0.91300  0.21300  0.19900  1.0000
  Cl  Cl2       1.0  0.08670  0.78700  0.19900  1.0000
  Cl  Cl3       1.0  0.21300  0.08670  0.80100  1.0000
  Cl  Cl4       1.0  0.78700  0.91300  0.80100  1.0000
  Cu  Cu1       1.0  0.74400  0.45400  0.15600  1.0000
  Cu  Cu2       1.0  0.25600  0.54600  0.15600  1.0000
  Cu  Cu3       1.0  0.45400  0.25600  0.84400  1.0000
  Cu  Cu4       1.0  0.54600  0.74400  0.84400  1.0000
  O   O1        1.0  0.39800  0.33100  0.13000  1.0000
  O   O2        1.0  0.60200  0.66900  0.13000  1.0000
  O   O3        1.0  0.50000  0.00000  0.21500  1.0000
  O   O4        1.0  0.22800  0.46600  0.44600  1.0000
  O   O5        1.0  0.77200  0.53400  0.44600  1.0000
  O   O6        1.0  0.53400  0.22800  0.55400  1.0000
  O   O7        1.0  0.46600  0.77200  0.55400  1.0000
  O   O8        1.0  0.00000  0.50000  0.78500  1.0000
  O   O9        1.0  0.66900  0.39800  0.87000  1.0000
  O   O10       1.0  0.33100  0.60200  0.87000  1.0000
  Te  Te1       1.0  0.34400  0.17200  0.36200  1.0000
  Te  Te2       1.0  0.65600  0.82800  0.36200  1.0000
  Te  Te3       1.0  0.82800  0.34400  0.63800  1.0000
  Te  Te4       1.0  0.17200  0.65600  0.63800  1.0000
