data_image0
_chemical_formula_structural       Ag5Cl5Hg4P8
_chemical_formula_sum              "Ag5 Cl5 Hg4 P8"
_cell_length_a       6.34442
_cell_length_b       9.17101
_cell_length_c       9.17101
_cell_angle_alpha    74.5451
_cell_angle_beta     100.773
_cell_angle_gamma    100.773

_space_group_name_H-M_alt    "P 1"
_space_group_IT_number       1

loop_
  _space_group_symop_operation_xyz
  'x, y, z'

loop_
  _atom_site_type_symbol
  _atom_site_label
  _atom_site_symmetry_multiplicity
  _atom_site_fract_x
  _atom_site_fract_y
  _atom_site_fract_z
  _atom_site_occupancy
  Ag  Ag1       1.0  0.00000  0.85400  0.14600  1.0000
  Ag  Ag2       1.0  0.94500  0.20400  0.20400  1.0000
  Ag  Ag3       1.0  0.00000  0.50000  0.50000  1.0000
  Ag  Ag4       1.0  0.05500  0.79600  0.79600  1.0000
  Ag  Ag5       1.0  0.00000  0.14600  0.85400  1.0000
  Cl  Cl1       1.0  0.97700  0.52600  0.19700  1.0000
  Cl  Cl2       1.0  0.02290  0.80300  0.47400  1.0000
  Cl  Cl3       1.0  0.50000  0.50000  0.50000  1.0000
  Cl  Cl4       1.0  0.97700  0.19700  0.52600  1.0000
  Cl  Cl5       1.0  0.02290  0.47400  0.80300  1.0000
  Hg  Hg1       1.0  0.46700  0.51800  0.17400  1.0000
  Hg  Hg2       1.0  0.53300  0.82600  0.48200  1.0000
  Hg  Hg3       1.0  0.46700  0.17400  0.51800  1.0000
  Hg  Hg4       1.0  0.53300  0.48200  0.82600  1.0000
  P   P1        1.0  0.60000  0.79600  0.09880  1.0000
  P   P2        1.0  0.55500  0.14200  0.14200  1.0000
  P   P3        1.0  0.40000  0.90100  0.20400  1.0000
  P   P4        1.0  0.34100  0.24000  0.24000  1.0000
  P   P5        1.0  0.65900  0.76000  0.76000  1.0000
  P   P6        1.0  0.60000  0.09880  0.79600  1.0000
  P   P7        1.0  0.44500  0.85800  0.85800  1.0000
  P   P8        1.0  0.40000  0.20400  0.90100  1.0000
