data_image0
_chemical_formula_structural       Eu6O14Re2
_chemical_formula_sum              "Eu6 O14 Re2"
_cell_length_a       6.51654
_cell_length_b       6.51654
_cell_length_c       7.49463
_cell_angle_alpha    90
_cell_angle_beta     90
_cell_angle_gamma    67.8803

_space_group_name_H-M_alt    "P 1"
_space_group_IT_number       1

loop_
  _space_group_symop_operation_xyz
  'x, y, z'

loop_
  _atom_site_type_symbol
  _atom_site_label
  _atom_site_symmetry_multiplicity
  _atom_site_fract_x
  _atom_site_fract_y
  _atom_site_fract_z
  _atom_site_occupancy
  Eu  Eu1       1.0  0.00000  0.00000  0.00000  1.0000
  Eu  Eu2       1.0  0.46000  0.08860  0.25000  1.0000
  Eu  Eu3       1.0  0.91100  0.54000  0.25000  1.0000
  Eu  Eu4       1.0  0.00000  0.00000  0.50000  1.0000
  Eu  Eu5       1.0  0.08860  0.46000  0.75000  1.0000
  Eu  Eu6       1.0  0.54000  0.91100  0.75000  1.0000
  O   O1        1.0  0.20300  0.55300  0.04650  1.0000
  O   O2        1.0  0.44700  0.79700  0.04650  1.0000
  O   O3        1.0  0.09360  0.16800  0.25000  1.0000
  O   O4        1.0  0.57700  0.42300  0.25000  1.0000
  O   O5        1.0  0.83200  0.90600  0.25000  1.0000
  O   O6        1.0  0.20300  0.55300  0.45300  1.0000
  O   O7        1.0  0.44700  0.79700  0.45300  1.0000
  O   O8        1.0  0.55300  0.20300  0.54700  1.0000
  O   O9        1.0  0.79700  0.44700  0.54700  1.0000
  O   O10       1.0  0.16800  0.09360  0.75000  1.0000
  O   O11       1.0  0.42300  0.57700  0.75000  1.0000
  O   O12       1.0  0.90600  0.83200  0.75000  1.0000
  O   O13       1.0  0.55300  0.20300  0.95300  1.0000
  O   O14       1.0  0.79700  0.44700  0.95300  1.0000
  Re  Re1       1.0  0.50000  0.50000  0.00000  1.0000
  Re  Re2       1.0  0.50000  0.50000  0.50000  1.0000
