data_image0
_chemical_formula_structural       Al4Cl16V2
_chemical_formula_sum              "Al4 Cl16 V2"
_cell_length_a       7.76492
_cell_length_b       9.3498
_cell_length_c       9.6677
_cell_angle_alpha    104.714
_cell_angle_beta     66.3223
_cell_angle_gamma    114.535

_space_group_name_H-M_alt    "P 1"
_space_group_IT_number       1

loop_
  _space_group_symop_operation_xyz
  'x, y, z'

loop_
  _atom_site_type_symbol
  _atom_site_label
  _atom_site_symmetry_multiplicity
  _atom_site_fract_x
  _atom_site_fract_y
  _atom_site_fract_z
  _atom_site_occupancy
  Al  Al1       1.0  0.16200  0.85800  0.03400  1.0000
  Al  Al2       1.0  0.33800  0.64200  0.46600  1.0000
  Al  Al3       1.0  0.66200  0.35800  0.53400  1.0000
  Al  Al4       1.0  0.83800  0.14200  0.96600  1.0000
  Cl  Cl1       1.0  0.86200  0.71000  0.02360  1.0000
  Cl  Cl2       1.0  0.32000  0.73100  0.05130  1.0000
  Cl  Cl3       1.0  0.70800  0.04720  0.18500  1.0000
  Cl  Cl4       1.0  0.15100  0.04710  0.22100  1.0000
  Cl  Cl5       1.0  0.32500  0.45300  0.27900  1.0000
  Cl  Cl6       1.0  0.84600  0.45300  0.31500  1.0000
  Cl  Cl7       1.0  0.64000  0.76900  0.44900  1.0000
  Cl  Cl8       1.0  0.17600  0.79000  0.47600  1.0000
  Cl  Cl9       1.0  0.82400  0.21000  0.52400  1.0000
  Cl  Cl10      1.0  0.36000  0.23100  0.55100  1.0000
  Cl  Cl11      1.0  0.15400  0.54700  0.68500  1.0000
  Cl  Cl12      1.0  0.67500  0.54700  0.72100  1.0000
  Cl  Cl13      1.0  0.84900  0.95300  0.77900  1.0000
  Cl  Cl14      1.0  0.29200  0.95300  0.81500  1.0000
  Cl  Cl15      1.0  0.68000  0.26900  0.94900  1.0000
  Cl  Cl16      1.0  0.13800  0.29000  0.97600  1.0000
  V   V1        1.0  0.00242  0.25000  0.25000  1.0000
  V   V2        1.0  0.99800  0.75000  0.75000  1.0000
