data_image0
_chemical_formula_structural       B12Re6Sm4
_chemical_formula_sum              "B12 Re6 Sm4"
_cell_length_a       6.27317
_cell_length_b       6.27317
_cell_length_c       7.55455
_cell_angle_alpha    90.5405
_cell_angle_beta     90.5405
_cell_angle_gamma    114.392

_space_group_name_H-M_alt    "P 1"
_space_group_IT_number       1

loop_
  _space_group_symop_operation_xyz
  'x, y, z'

loop_
  _atom_site_type_symbol
  _atom_site_label
  _atom_site_symmetry_multiplicity
  _atom_site_fract_x
  _atom_site_fract_y
  _atom_site_fract_z
  _atom_site_occupancy
  B   B1        1.0  0.41300  0.84000  0.02030  1.0000
  B   B2        1.0  0.44200  0.35000  0.03450  1.0000
  B   B3        1.0  0.15300  0.24600  0.13100  1.0000
  B   B4        1.0  0.75400  0.84700  0.36900  1.0000
  B   B5        1.0  0.65000  0.55800  0.46500  1.0000
  B   B6        1.0  0.16000  0.58700  0.48000  1.0000
  B   B7        1.0  0.84000  0.41300  0.52000  1.0000
  B   B8        1.0  0.35000  0.44200  0.53500  1.0000
  B   B9        1.0  0.24600  0.15300  0.63100  1.0000
  B   B10       1.0  0.84700  0.75400  0.86900  1.0000
  B   B11       1.0  0.55800  0.65000  0.96500  1.0000
  B   B12       1.0  0.58700  0.16000  0.98000  1.0000
  Re  Re1       1.0  0.80600  0.99000  0.08810  1.0000
  Re  Re2       1.0  0.41400  0.58600  0.25000  1.0000
  Re  Re3       1.0  0.00998  0.19400  0.41200  1.0000
  Re  Re4       1.0  0.99000  0.80600  0.58800  1.0000
  Re  Re5       1.0  0.58600  0.41400  0.75000  1.0000
  Re  Re6       1.0  0.19400  0.00998  0.91200  1.0000
  Sm  Sm1       1.0  0.90400  0.55800  0.17600  1.0000
  Sm  Sm2       1.0  0.44200  0.09560  0.32400  1.0000
  Sm  Sm3       1.0  0.55800  0.90400  0.67600  1.0000
  Sm  Sm4       1.0  0.09560  0.44200  0.82400  1.0000
