data_image0
_chemical_formula_structural       Au2K2P4S14
_chemical_formula_sum              "Au2 K2 P4 S14"
_cell_length_a       6.17569
_cell_length_b       6.17569
_cell_length_c       15.2632
_cell_angle_alpha    90.78
_cell_angle_beta     90.78
_cell_angle_gamma    99.8451

_space_group_name_H-M_alt    "P 1"
_space_group_IT_number       1

loop_
  _space_group_symop_operation_xyz
  'x, y, z'

loop_
  _atom_site_type_symbol
  _atom_site_label
  _atom_site_symmetry_multiplicity
  _atom_site_fract_x
  _atom_site_fract_y
  _atom_site_fract_z
  _atom_site_occupancy
  Au  Au1       1.0  0.00000  0.50000  0.00000  1.0000
  Au  Au2       1.0  0.50000  0.00000  0.50000  1.0000
  K   K1        1.0  0.24700  0.75300  0.25000  1.0000
  K   K2        1.0  0.75300  0.24700  0.75000  1.0000
  P   P1        1.0  0.65500  0.31900  0.14100  1.0000
  P   P2        1.0  0.68100  0.34500  0.35900  1.0000
  P   P3        1.0  0.31900  0.65500  0.64100  1.0000
  P   P4        1.0  0.34500  0.68100  0.85900  1.0000
  S   S1        1.0  0.77400  0.16200  0.03560  1.0000
  S   S2        1.0  0.80600  0.63900  0.11600  1.0000
  S   S3        1.0  0.33600  0.27400  0.15800  1.0000
  S   S4        1.0  0.81200  0.18800  0.25000  1.0000
  S   S5        1.0  0.72600  0.66400  0.34200  1.0000
  S   S6        1.0  0.36100  0.19400  0.38400  1.0000
  S   S7        1.0  0.83800  0.22600  0.46400  1.0000
  S   S8        1.0  0.16200  0.77400  0.53600  1.0000
  S   S9        1.0  0.63900  0.80600  0.61600  1.0000
  S   S10       1.0  0.27400  0.33600  0.65800  1.0000
  S   S11       1.0  0.18800  0.81200  0.75000  1.0000
  S   S12       1.0  0.66400  0.72600  0.84200  1.0000
  S   S13       1.0  0.19400  0.36100  0.88400  1.0000
  S   S14       1.0  0.22600  0.83800  0.96400  1.0000
