data_image0
_chemical_formula_structural       Cs2Cu6Er4Se10
_chemical_formula_sum              "Cs2 Cu6 Er4 Se10"
_cell_length_a       4.11085
_cell_length_b       7.61005
_cell_length_c       17.2535
_cell_angle_alpha    90
_cell_angle_beta     90
_cell_angle_gamma    74.3302

_space_group_name_H-M_alt    "P 1"
_space_group_IT_number       1

loop_
  _space_group_symop_operation_xyz
  'x, y, z'

loop_
  _atom_site_type_symbol
  _atom_site_label
  _atom_site_symmetry_multiplicity
  _atom_site_fract_x
  _atom_site_fract_y
  _atom_site_fract_z
  _atom_site_occupancy
  Cs  Cs1       1.0  0.93900  0.12200  0.25000  1.0000
  Cs  Cs2       1.0  0.06110  0.87800  0.75000  1.0000
  Cu  Cu1       1.0  0.41700  0.16700  0.03250  1.0000
  Cu  Cu2       1.0  0.65600  0.68800  0.25000  1.0000
  Cu  Cu3       1.0  0.41700  0.16700  0.46800  1.0000
  Cu  Cu4       1.0  0.58300  0.83300  0.53200  1.0000
  Cu  Cu5       1.0  0.34400  0.31200  0.75000  1.0000
  Cu  Cu6       1.0  0.58300  0.83300  0.96800  1.0000
  Er  Er1       1.0  0.19200  0.61500  0.09150  1.0000
  Er  Er2       1.0  0.19200  0.61500  0.40900  1.0000
  Er  Er3       1.0  0.80800  0.38500  0.59100  1.0000
  Er  Er4       1.0  0.80800  0.38500  0.90900  1.0000
  Se  Se1       1.0  0.83100  0.33800  0.07030  1.0000
  Se  Se2       1.0  0.56200  0.87600  0.11200  1.0000
  Se  Se3       1.0  0.23800  0.52300  0.25000  1.0000
  Se  Se4       1.0  0.56200  0.87600  0.38800  1.0000
  Se  Se5       1.0  0.83100  0.33800  0.43000  1.0000
  Se  Se6       1.0  0.16900  0.66200  0.57000  1.0000
  Se  Se7       1.0  0.43800  0.12400  0.61200  1.0000
  Se  Se8       1.0  0.76200  0.47700  0.75000  1.0000
  Se  Se9       1.0  0.43800  0.12400  0.88800  1.0000
  Se  Se10      1.0  0.16900  0.66200  0.93000  1.0000
