data_image0
_chemical_formula_structural       B12Nd4Re6
_chemical_formula_sum              "B12 Nd4 Re6"
_cell_length_a       6.31098
_cell_length_b       6.31098
_cell_length_c       7.59822
_cell_angle_alpha    90.5189
_cell_angle_beta     90.5189
_cell_angle_gamma    114.745

_space_group_name_H-M_alt    "P 1"
_space_group_IT_number       1

loop_
  _space_group_symop_operation_xyz
  'x, y, z'

loop_
  _atom_site_type_symbol
  _atom_site_label
  _atom_site_symmetry_multiplicity
  _atom_site_fract_x
  _atom_site_fract_y
  _atom_site_fract_z
  _atom_site_occupancy
  B   B1        1.0  0.41400  0.84100  0.02000  1.0000
  B   B2        1.0  0.44200  0.35000  0.03380  1.0000
  B   B3        1.0  0.15300  0.24300  0.13200  1.0000
  B   B4        1.0  0.75700  0.84700  0.36800  1.0000
  B   B5        1.0  0.65000  0.55800  0.46600  1.0000
  B   B6        1.0  0.15900  0.58600  0.48000  1.0000
  B   B7        1.0  0.84100  0.41400  0.52000  1.0000
  B   B8        1.0  0.35000  0.44200  0.53400  1.0000
  B   B9        1.0  0.24300  0.15300  0.63200  1.0000
  B   B10       1.0  0.84700  0.75700  0.86800  1.0000
  B   B11       1.0  0.55800  0.65000  0.96600  1.0000
  B   B12       1.0  0.58600  0.15900  0.98000  1.0000
  Nd  Nd1       1.0  0.90700  0.55900  0.17400  1.0000
  Nd  Nd2       1.0  0.44100  0.09290  0.32600  1.0000
  Nd  Nd3       1.0  0.55900  0.90700  0.67400  1.0000
  Nd  Nd4       1.0  0.09290  0.44100  0.82600  1.0000
  Re  Re1       1.0  0.80500  0.98900  0.08770  1.0000
  Re  Re2       1.0  0.41600  0.58400  0.25000  1.0000
  Re  Re3       1.0  0.01050  0.19500  0.41200  1.0000
  Re  Re4       1.0  0.98900  0.80500  0.58800  1.0000
  Re  Re5       1.0  0.58400  0.41600  0.75000  1.0000
  Re  Re6       1.0  0.19500  0.01050  0.91200  1.0000
