data_image0
_chemical_formula_structural       As8Ga2Na6Sr6
_chemical_formula_sum              "As8 Ga2 Na6 Sr6"
_cell_length_a       9.66424
_cell_length_b       9.66396
_cell_length_c       7.5762
_cell_angle_alpha    90
_cell_angle_beta     90
_cell_angle_gamma    120.001

_space_group_name_H-M_alt    "P 1"
_space_group_IT_number       1

loop_
  _space_group_symop_operation_xyz
  'x, y, z'

loop_
  _atom_site_type_symbol
  _atom_site_label
  _atom_site_symmetry_multiplicity
  _atom_site_fract_x
  _atom_site_fract_y
  _atom_site_fract_z
  _atom_site_occupancy
  As  As1       1.0  0.33300  0.66700  0.21800  1.0000
  As  As2       1.0  0.81100  0.62300  0.27800  1.0000
  As  As3       1.0  0.37700  0.18900  0.27800  1.0000
  As  As4       1.0  0.81100  0.18900  0.27800  1.0000
  As  As5       1.0  0.66700  0.33300  0.71800  1.0000
  As  As6       1.0  0.18900  0.37700  0.77800  1.0000
  As  As7       1.0  0.18900  0.81100  0.77800  1.0000
  As  As8       1.0  0.62300  0.81100  0.77800  1.0000
  Ga  Ga1       1.0  0.66700  0.33300  0.37200  1.0000
  Ga  Ga2       1.0  0.33300  0.66700  0.87200  1.0000
  Na  Na1       1.0  0.13500  0.86400  0.17000  1.0000
  Na  Na2       1.0  0.72900  0.86400  0.17000  1.0000
  Na  Na3       1.0  0.13600  0.27100  0.17000  1.0000
  Na  Na4       1.0  0.27100  0.13600  0.67000  1.0000
  Na  Na5       1.0  0.86400  0.13600  0.67000  1.0000
  Na  Na6       1.0  0.86400  0.72900  0.67000  1.0000
  Sr  Sr1       1.0  0.47800  0.95600  0.49900  1.0000
  Sr  Sr2       1.0  0.04380  0.52200  0.49900  1.0000
  Sr  Sr3       1.0  0.47800  0.52200  0.49900  1.0000
  Sr  Sr4       1.0  0.52200  0.04380  0.99900  1.0000
  Sr  Sr5       1.0  0.52200  0.47800  0.99900  1.0000
  Sr  Sr6       1.0  0.95600  0.47800  0.99900  1.0000
