data_image0
_chemical_formula_structural       Ag4O14Te4
_chemical_formula_sum              "Ag4 O14 Te4"
_cell_length_a       7.32928
_cell_length_b       7.34615
_cell_length_c       7.34615
_cell_angle_alpha    91.7123
_cell_angle_beta     60.0759
_cell_angle_gamma    119.924

_space_group_name_H-M_alt    "P 1"
_space_group_IT_number       1

loop_
  _space_group_symop_operation_xyz
  'x, y, z'

loop_
  _atom_site_type_symbol
  _atom_site_label
  _atom_site_symmetry_multiplicity
  _atom_site_fract_x
  _atom_site_fract_y
  _atom_site_fract_z
  _atom_site_occupancy
  Ag  Ag1       1.0  0.50000  0.00000  0.00000  1.0000
  Ag  Ag2       1.0  0.50000  0.50000  0.50000  1.0000
  Ag  Ag3       1.0  0.00000  0.00000  0.50000  1.0000
  Ag  Ag4       1.0  0.50000  0.00000  0.50000  1.0000
  O   O1        1.0  0.27600  0.19000  0.04820  1.0000
  O   O2        1.0  0.86600  0.19000  0.04820  1.0000
  O   O3        1.0  0.65800  0.40800  0.09180  1.0000
  O   O4        1.0  0.77800  0.86600  0.30900  1.0000
  O   O5        1.0  0.27600  0.45200  0.31000  1.0000
  O   O6        1.0  0.86600  0.45200  0.31000  1.0000
  O   O7        1.0  0.22200  0.80900  0.36600  1.0000
  O   O8        1.0  0.77800  0.19100  0.63400  1.0000
  O   O9        1.0  0.13400  0.54800  0.69000  1.0000
  O   O10       1.0  0.72400  0.54800  0.69000  1.0000
  O   O11       1.0  0.22200  0.13400  0.69100  1.0000
  O   O12       1.0  0.34200  0.59200  0.90800  1.0000
  O   O13       1.0  0.13400  0.81000  0.95200  1.0000
  O   O14       1.0  0.72400  0.81000  0.95200  1.0000
  Te  Te1       1.0  0.00000  0.00000  0.00000  1.0000
  Te  Te2       1.0  0.00000  0.50000  0.00000  1.0000
  Te  Te3       1.0  0.50000  0.50000  0.00000  1.0000
  Te  Te4       1.0  0.00000  0.50000  0.50000  1.0000
