data_image0
_chemical_formula_structural       Cl8Cs12O2
_chemical_formula_sum              "Cl8 Cs12 O2"
_cell_length_a       9.56742
_cell_length_b       9.56742
_cell_length_c       9.56742
_cell_angle_alpha    90.8369
_cell_angle_beta     89.1631
_cell_angle_gamma    90.8369

_space_group_name_H-M_alt    "P 1"
_space_group_IT_number       1

loop_
  _space_group_symop_operation_xyz
  'x, y, z'

loop_
  _atom_site_type_symbol
  _atom_site_label
  _atom_site_symmetry_multiplicity
  _atom_site_fract_x
  _atom_site_fract_y
  _atom_site_fract_z
  _atom_site_occupancy
  Cl  Cl1       1.0  0.75000  0.63200  0.13200  1.0000
  Cl  Cl2       1.0  0.25000  0.75000  0.25000  1.0000
  Cl  Cl3       1.0  0.63200  0.13200  0.25000  1.0000
  Cl  Cl4       1.0  0.13200  0.25000  0.36800  1.0000
  Cl  Cl5       1.0  0.86800  0.75000  0.63200  1.0000
  Cl  Cl6       1.0  0.36800  0.86800  0.75000  1.0000
  Cl  Cl7       1.0  0.75000  0.25000  0.75000  1.0000
  Cl  Cl8       1.0  0.25000  0.36800  0.86800  1.0000
  Cs  Cs1       1.0  0.93300  0.28800  0.05600  1.0000
  Cs  Cs2       1.0  0.28800  0.05600  0.06660  1.0000
  Cs  Cs3       1.0  0.43300  0.44400  0.21200  1.0000
  Cs  Cs4       1.0  0.94400  0.93300  0.28800  1.0000
  Cs  Cs5       1.0  0.55600  0.78800  0.43300  1.0000
  Cs  Cs6       1.0  0.78800  0.43300  0.44400  1.0000
  Cs  Cs7       1.0  0.21200  0.56700  0.55600  1.0000
  Cs  Cs8       1.0  0.44400  0.21200  0.56700  1.0000
  Cs  Cs9       1.0  0.05600  0.06660  0.71200  1.0000
  Cs  Cs10      1.0  0.56700  0.55600  0.78800  1.0000
  Cs  Cs11      1.0  0.71200  0.94400  0.93300  1.0000
  Cs  Cs12      1.0  0.06660  0.71200  0.94400  1.0000
  O   O1        1.0  0.00000  0.00000  0.00000  1.0000
  O   O2        1.0  0.50000  0.50000  0.50000  1.0000
