data_image0
_chemical_formula_structural       B4Na4Se14
_chemical_formula_sum              "B4 Na4 Se14"
_cell_length_a       6.84005
_cell_length_b       8.26915
_cell_length_c       11.1561
_cell_angle_alpha    90.564
_cell_angle_beta     107.852
_cell_angle_gamma    114.43

_space_group_name_H-M_alt    "P 1"
_space_group_IT_number       1

loop_
  _space_group_symop_operation_xyz
  'x, y, z'

loop_
  _atom_site_type_symbol
  _atom_site_label
  _atom_site_symmetry_multiplicity
  _atom_site_fract_x
  _atom_site_fract_y
  _atom_site_fract_z
  _atom_site_occupancy
  B   B1        1.0  0.55000  0.38700  0.15100  1.0000
  B   B2        1.0  0.51200  0.11300  0.34900  1.0000
  B   B3        1.0  0.48800  0.88700  0.65100  1.0000
  B   B4        1.0  0.45000  0.61300  0.84900  1.0000
  Na  Na1       1.0  0.14600  0.82000  0.03600  1.0000
  Na  Na2       1.0  0.79000  0.68000  0.46400  1.0000
  Na  Na3       1.0  0.21000  0.32000  0.53600  1.0000
  Na  Na4       1.0  0.85400  0.18000  0.96400  1.0000
  Se  Se1       1.0  0.58000  0.77700  0.02010  1.0000
  Se  Se2       1.0  0.79300  0.64500  0.16900  1.0000
  Se  Se3       1.0  0.31600  0.40000  0.22500  1.0000
  Se  Se4       1.0  0.72800  0.25000  0.25000  1.0000
  Se  Se5       1.0  0.19100  0.10000  0.27500  1.0000
  Se  Se6       1.0  0.47900  0.85500  0.33100  1.0000
  Se  Se7       1.0  0.28300  0.72300  0.48000  1.0000
  Se  Se8       1.0  0.71700  0.27700  0.52000  1.0000
  Se  Se9       1.0  0.52100  0.14500  0.66900  1.0000
  Se  Se10      1.0  0.80900  0.90000  0.72500  1.0000
  Se  Se11      1.0  0.27200  0.75000  0.75000  1.0000
  Se  Se12      1.0  0.68400  0.60000  0.77500  1.0000
  Se  Se13      1.0  0.20700  0.35500  0.83100  1.0000
  Se  Se14      1.0  0.42000  0.22300  0.98000  1.0000
