data_image0
_chemical_formula_structural       Cl8O2Rb12
_chemical_formula_sum              "Cl8 O2 Rb12"
_cell_length_a       9.09156
_cell_length_b       9.09156
_cell_length_c       9.09156
_cell_angle_alpha    89.1925
_cell_angle_beta     90.8075
_cell_angle_gamma    90.8075

_space_group_name_H-M_alt    "P 1"
_space_group_IT_number       1

loop_
  _space_group_symop_operation_xyz
  'x, y, z'

loop_
  _atom_site_type_symbol
  _atom_site_label
  _atom_site_symmetry_multiplicity
  _atom_site_fract_x
  _atom_site_fract_y
  _atom_site_fract_z
  _atom_site_occupancy
  Cl  Cl1       1.0  0.62400  0.75000  0.12400  1.0000
  Cl  Cl2       1.0  0.75000  0.25000  0.25000  1.0000
  Cl  Cl3       1.0  0.12400  0.62400  0.25000  1.0000
  Cl  Cl4       1.0  0.25000  0.12400  0.37600  1.0000
  Cl  Cl5       1.0  0.75000  0.87600  0.62400  1.0000
  Cl  Cl6       1.0  0.25000  0.75000  0.75000  1.0000
  Cl  Cl7       1.0  0.87600  0.37600  0.75000  1.0000
  Cl  Cl8       1.0  0.37600  0.25000  0.87600  1.0000
  O   O1        1.0  0.00000  0.00000  0.00000  1.0000
  O   O2        1.0  0.50000  0.50000  0.50000  1.0000
  Rb  Rb1       1.0  0.28400  0.92900  0.05740  1.0000
  Rb  Rb2       1.0  0.05740  0.28400  0.07070  1.0000
  Rb  Rb3       1.0  0.44300  0.42900  0.21600  1.0000
  Rb  Rb4       1.0  0.92900  0.94300  0.28400  1.0000
  Rb  Rb5       1.0  0.78400  0.55700  0.42900  1.0000
  Rb  Rb6       1.0  0.42900  0.78400  0.44300  1.0000
  Rb  Rb7       1.0  0.57100  0.21600  0.55700  1.0000
  Rb  Rb8       1.0  0.21600  0.44300  0.57100  1.0000
  Rb  Rb9       1.0  0.07070  0.05740  0.71600  1.0000
  Rb  Rb10      1.0  0.55700  0.57100  0.78400  1.0000
  Rb  Rb11      1.0  0.94300  0.71600  0.92900  1.0000
  Rb  Rb12      1.0  0.71600  0.07070  0.94300  1.0000
