data_image0
_chemical_formula_structural       Na4O12Si4Zn2
_chemical_formula_sum              "Na4 O12 Si4 Zn2"
_cell_length_a       5.11635
_cell_length_b       5.11635
_cell_length_c       11.248
_cell_angle_alpha    102.621
_cell_angle_beta     102.621
_cell_angle_gamma    92.2498

_space_group_name_H-M_alt    "P 1"
_space_group_IT_number       1

loop_
  _space_group_symop_operation_xyz
  'x, y, z'

loop_
  _atom_site_type_symbol
  _atom_site_label
  _atom_site_symmetry_multiplicity
  _atom_site_fract_x
  _atom_site_fract_y
  _atom_site_fract_z
  _atom_site_occupancy
  Na  Na1       1.0  0.62300  0.07550  0.15600  1.0000
  Na  Na2       1.0  0.71700  0.67000  0.34400  1.0000
  Na  Na3       1.0  0.33000  0.28300  0.65600  1.0000
  Na  Na4       1.0  0.92400  0.37700  0.84400  1.0000
  O   O1        1.0  0.88400  0.60500  0.03260  1.0000
  O   O2        1.0  0.40800  0.66700  0.15900  1.0000
  O   O3        1.0  0.02100  0.41300  0.23700  1.0000
  O   O4        1.0  0.03400  0.92500  0.26300  1.0000
  O   O5        1.0  0.49900  0.25900  0.34100  1.0000
  O   O6        1.0  0.10200  0.32300  0.46700  1.0000
  O   O7        1.0  0.67700  0.89800  0.53300  1.0000
  O   O8        1.0  0.74100  0.50100  0.65900  1.0000
  O   O9        1.0  0.07450  0.96600  0.73700  1.0000
  O   O10       1.0  0.58700  0.97900  0.76300  1.0000
  O   O11       1.0  0.33300  0.59200  0.84100  1.0000
  O   O12       1.0  0.39500  0.11600  0.96700  1.0000
  Si  Si1       1.0  0.09570  0.65000  0.16600  1.0000
  Si  Si2       1.0  0.18000  0.23500  0.33400  1.0000
  Si  Si3       1.0  0.76500  0.82000  0.66600  1.0000
  Si  Si4       1.0  0.35000  0.90400  0.83400  1.0000
  Zn  Zn1       1.0  0.50000  0.50000  0.00000  1.0000
  Zn  Zn2       1.0  0.75000  0.25000  0.50000  1.0000
