data_image0
_chemical_formula_structural       Ba3N4O9Si6
_chemical_formula_sum              "Ba3 N4 O9 Si6"
_cell_length_a       7.25043
_cell_length_b       7.25042
_cell_length_c       6.76278
_cell_angle_alpha    90.0001
_cell_angle_beta     90
_cell_angle_gamma    120

_space_group_name_H-M_alt    "P 1"
_space_group_IT_number       1

loop_
  _space_group_symop_operation_xyz
  'x, y, z'

loop_
  _atom_site_type_symbol
  _atom_site_label
  _atom_site_symmetry_multiplicity
  _atom_site_fract_x
  _atom_site_fract_y
  _atom_site_fract_z
  _atom_site_occupancy
  Ba  Ba1       1.0  0.00000  0.00000  0.55700  1.0000
  Ba  Ba2       1.0  0.33300  0.66700  0.68800  1.0000
  Ba  Ba3       1.0  0.66700  0.33300  0.75000  1.0000
  N   N1        1.0  0.00000  0.00000  0.09500  1.0000
  N   N2        1.0  0.42500  0.29400  0.19300  1.0000
  N   N3        1.0  0.86900  0.57500  0.19300  1.0000
  N   N4        1.0  0.70600  0.13100  0.19300  1.0000
  O   O1        1.0  0.29400  0.87900  0.10300  1.0000
  O   O2        1.0  0.58600  0.70600  0.10300  1.0000
  O   O3        1.0  0.12100  0.41400  0.10300  1.0000
  O   O4        1.0  0.62400  0.60900  0.48600  1.0000
  O   O5        1.0  0.39100  0.01450  0.48600  1.0000
  O   O6        1.0  0.98600  0.37600  0.48600  1.0000
  O   O7        1.0  0.00817  0.72000  0.81300  1.0000
  O   O8        1.0  0.28000  0.28800  0.81300  1.0000
  O   O9        1.0  0.71200  0.99200  0.81300  1.0000
  Si  Si1       1.0  0.04020  0.78600  0.04300  1.0000
  Si  Si2       1.0  0.21400  0.25400  0.04300  1.0000
  Si  Si3       1.0  0.74600  0.96000  0.04300  1.0000
  Si  Si4       1.0  0.62200  0.54900  0.25800  1.0000
  Si  Si5       1.0  0.45100  0.07300  0.25800  1.0000
  Si  Si6       1.0  0.92700  0.37800  0.25800  1.0000
