data_image0
_chemical_formula_structural       Ba2Cu2O14Te4
_chemical_formula_sum              "Ba2 Cu2 O14 Te4"
_cell_length_a       5.50767
_cell_length_b       7.21453
_cell_length_c       8.48856
_cell_angle_alpha    64.8521
_cell_angle_beta     90
_cell_angle_gamma    90

_space_group_name_H-M_alt    "P 1"
_space_group_IT_number       1

loop_
  _space_group_symop_operation_xyz
  'x, y, z'

loop_
  _atom_site_type_symbol
  _atom_site_label
  _atom_site_symmetry_multiplicity
  _atom_site_fract_x
  _atom_site_fract_y
  _atom_site_fract_z
  _atom_site_occupancy
  Ba  Ba1       1.0  0.75000  0.78300  0.41600  1.0000
  Ba  Ba2       1.0  0.25000  0.19900  0.58400  1.0000
  Cu  Cu1       1.0  0.75000  0.36700  0.26800  1.0000
  Cu  Cu2       1.0  0.25000  0.63500  0.73200  1.0000
  O   O1        1.0  0.00000  0.86700  0.00000  1.0000
  O   O2        1.0  0.50000  0.86700  0.00000  1.0000
  O   O3        1.0  0.25000  0.50300  0.03280  1.0000
  O   O4        1.0  0.25000  0.85800  0.27400  1.0000
  O   O5        1.0  0.50800  0.15900  0.29200  1.0000
  O   O6        1.0  0.99200  0.15900  0.29200  1.0000
  O   O7        1.0  0.00206  0.52000  0.31800  1.0000
  O   O8        1.0  0.49800  0.52000  0.31800  1.0000
  O   O9        1.0  0.50200  0.83800  0.68200  1.0000
  O   O10       1.0  0.99800  0.83800  0.68200  1.0000
  O   O11       1.0  0.00805  0.45000  0.70800  1.0000
  O   O12       1.0  0.49200  0.45000  0.70800  1.0000
  O   O13       1.0  0.75000  0.13200  0.72600  1.0000
  O   O14       1.0  0.75000  0.53500  0.96700  1.0000
  Te  Te1       1.0  0.25000  0.17800  0.13900  1.0000
  Te  Te2       1.0  0.25000  0.67400  0.15700  1.0000
  Te  Te3       1.0  0.75000  0.83100  0.84300  1.0000
  Te  Te4       1.0  0.75000  0.31700  0.86100  1.0000
