data_image0
_chemical_formula_structural       B14Re2Y6
_chemical_formula_sum              "B14 Re2 Y6"
_cell_length_a       3.53853
_cell_length_b       8.09677
_cell_length_c       9.35562
_cell_angle_alpha    90
_cell_angle_beta     90
_cell_angle_gamma    77.3782

_space_group_name_H-M_alt    "P 1"
_space_group_IT_number       1

loop_
  _space_group_symop_operation_xyz
  'x, y, z'

loop_
  _atom_site_type_symbol
  _atom_site_label
  _atom_site_symmetry_multiplicity
  _atom_site_fract_x
  _atom_site_fract_y
  _atom_site_fract_z
  _atom_site_occupancy
  B   B1        1.0  0.27300  0.45400  0.03360  1.0000
  B   B2        1.0  0.47900  0.04120  0.09530  1.0000
  B   B3        1.0  0.36800  0.26400  0.15000  1.0000
  B   B4        1.0  0.54300  0.91500  0.25000  1.0000
  B   B5        1.0  0.36800  0.26400  0.35000  1.0000
  B   B6        1.0  0.47900  0.04120  0.40500  1.0000
  B   B7        1.0  0.27300  0.45400  0.46600  1.0000
  B   B8        1.0  0.72700  0.54600  0.53400  1.0000
  B   B9        1.0  0.52100  0.95900  0.59500  1.0000
  B   B10       1.0  0.63200  0.73600  0.65000  1.0000
  B   B11       1.0  0.45700  0.08520  0.75000  1.0000
  B   B12       1.0  0.63200  0.73600  0.85000  1.0000
  B   B13       1.0  0.52100  0.95900  0.90500  1.0000
  B   B14       1.0  0.72700  0.54600  0.96600  1.0000
  Re  Re1       1.0  0.94700  0.10600  0.25000  1.0000
  Re  Re2       1.0  0.05310  0.89400  0.75000  1.0000
  Y   Y1        1.0  0.10500  0.79000  0.06010  1.0000
  Y   Y2        1.0  0.75800  0.48400  0.25000  1.0000
  Y   Y3        1.0  0.10500  0.79000  0.44000  1.0000
  Y   Y4        1.0  0.89500  0.21000  0.56000  1.0000
  Y   Y5        1.0  0.24200  0.51600  0.75000  1.0000
  Y   Y6        1.0  0.89500  0.21000  0.94000  1.0000
