data_image0
_chemical_formula_structural       B4Ba8N8O2
_chemical_formula_sum              "B4 Ba8 N8 O2"
_cell_length_a       7.29717
_cell_length_b       7.32866
_cell_length_c       8.68475
_cell_angle_alpha    90
_cell_angle_beta     114.842
_cell_angle_gamma    90

_space_group_name_H-M_alt    "P 1"
_space_group_IT_number       1

loop_
  _space_group_symop_operation_xyz
  'x, y, z'

loop_
  _atom_site_type_symbol
  _atom_site_label
  _atom_site_symmetry_multiplicity
  _atom_site_fract_x
  _atom_site_fract_y
  _atom_site_fract_z
  _atom_site_occupancy
  B   B1        1.0  0.63800  0.00000  0.27700  1.0000
  B   B2        1.0  0.13800  0.50000  0.27700  1.0000
  B   B3        1.0  0.36200  0.00000  0.72300  1.0000
  B   B4        1.0  0.86200  0.50000  0.72300  1.0000
  Ba  Ba1       1.0  0.69100  0.19100  0.00000  1.0000
  Ba  Ba2       1.0  0.19100  0.30900  0.00000  1.0000
  Ba  Ba3       1.0  0.80900  0.69100  0.00000  1.0000
  Ba  Ba4       1.0  0.30900  0.80900  0.00000  1.0000
  Ba  Ba5       1.0  0.17600  0.00000  0.35100  1.0000
  Ba  Ba6       1.0  0.67600  0.50000  0.35100  1.0000
  Ba  Ba7       1.0  0.82400  0.00000  0.64900  1.0000
  Ba  Ba8       1.0  0.32400  0.50000  0.64900  1.0000
  N   N1        1.0  0.50500  0.13000  0.27100  1.0000
  N   N2        1.0  0.00486  0.37000  0.27100  1.0000
  N   N3        1.0  0.26600  0.63000  0.27100  1.0000
  N   N4        1.0  0.76600  0.87000  0.27100  1.0000
  N   N5        1.0  0.23400  0.13000  0.72900  1.0000
  N   N6        1.0  0.73400  0.37000  0.72900  1.0000
  N   N7        1.0  0.99500  0.63000  0.72900  1.0000
  N   N8        1.0  0.49500  0.87000  0.72900  1.0000
  O   O1        1.0  0.00000  0.00000  0.00000  1.0000
  O   O2        1.0  0.50000  0.50000  0.00000  1.0000
