data_image0
_chemical_formula_structural       Cs2N18Sr2
_chemical_formula_sum              "Cs2 N18 Sr2"
_cell_length_a       6.78344
_cell_length_b       6.78344
_cell_length_c       8.85643
_cell_angle_alpha    109.408
_cell_angle_beta     109.408
_cell_angle_gamma    97.4912

_space_group_name_H-M_alt    "P 1"
_space_group_IT_number       1

loop_
  _space_group_symop_operation_xyz
  'x, y, z'

loop_
  _atom_site_type_symbol
  _atom_site_label
  _atom_site_symmetry_multiplicity
  _atom_site_fract_x
  _atom_site_fract_y
  _atom_site_fract_z
  _atom_site_occupancy
  Cs  Cs1       1.0  0.79600  0.20400  0.25000  1.0000
  Cs  Cs2       1.0  0.20400  0.79600  0.75000  1.0000
  N   N1        1.0  0.50000  0.50000  0.00000  1.0000
  N   N2        1.0  0.45600  0.66800  0.04560  1.0000
  N   N3        1.0  0.10100  0.33300  0.05190  1.0000
  N   N4        1.0  0.18600  0.21100  0.10300  1.0000
  N   N5        1.0  0.26800  0.09060  0.15400  1.0000
  N   N6        1.0  0.90900  0.73200  0.34600  1.0000
  N   N7        1.0  0.78900  0.81400  0.39700  1.0000
  N   N8        1.0  0.66700  0.89900  0.44800  1.0000
  N   N9        1.0  0.33200  0.54400  0.45400  1.0000
  N   N10       1.0  0.50000  0.50000  0.50000  1.0000
  N   N11       1.0  0.66800  0.45600  0.54600  1.0000
  N   N12       1.0  0.33300  0.10100  0.55200  1.0000
  N   N13       1.0  0.21100  0.18600  0.60300  1.0000
  N   N14       1.0  0.09060  0.26800  0.65400  1.0000
  N   N15       1.0  0.73200  0.90900  0.84600  1.0000
  N   N16       1.0  0.81400  0.78900  0.89700  1.0000
  N   N17       1.0  0.89900  0.66700  0.94800  1.0000
  N   N18       1.0  0.54400  0.33200  0.95400  1.0000
  Sr  Sr1       1.0  0.23900  0.76100  0.25000  1.0000
  Sr  Sr2       1.0  0.76100  0.23900  0.75000  1.0000
