data_image0
_chemical_formula_structural       Al2As8Ca6Na6
_chemical_formula_sum              "Al2 As8 Ca6 Na6"
_cell_length_a       9.4147
_cell_length_b       9.41466
_cell_length_c       7.19343
_cell_angle_alpha    90
_cell_angle_beta     90
_cell_angle_gamma    120

_space_group_name_H-M_alt    "P 1"
_space_group_IT_number       1

loop_
  _space_group_symop_operation_xyz
  'x, y, z'

loop_
  _atom_site_type_symbol
  _atom_site_label
  _atom_site_symmetry_multiplicity
  _atom_site_fract_x
  _atom_site_fract_y
  _atom_site_fract_z
  _atom_site_occupancy
  Al  Al1       1.0  0.66700  0.33300  0.37800  1.0000
  Al  Al2       1.0  0.33300  0.66700  0.87800  1.0000
  As  As1       1.0  0.33300  0.66700  0.22800  1.0000
  As  As2       1.0  0.81000  0.62100  0.27200  1.0000
  As  As3       1.0  0.37900  0.19000  0.27200  1.0000
  As  As4       1.0  0.81000  0.19000  0.27200  1.0000
  As  As5       1.0  0.66700  0.33300  0.72800  1.0000
  As  As6       1.0  0.19000  0.37900  0.77200  1.0000
  As  As7       1.0  0.19000  0.81000  0.77200  1.0000
  As  As8       1.0  0.62100  0.81000  0.77200  1.0000
  Ca  Ca1       1.0  0.52500  0.04960  0.00012  1.0000
  Ca  Ca2       1.0  0.52500  0.47500  0.00012  1.0000
  Ca  Ca3       1.0  0.95000  0.47500  0.00012  1.0000
  Ca  Ca4       1.0  0.47500  0.95000  0.50000  1.0000
  Ca  Ca5       1.0  0.04960  0.52500  0.50000  1.0000
  Ca  Ca6       1.0  0.47500  0.52500  0.50000  1.0000
  Na  Na1       1.0  0.13600  0.27300  0.17300  1.0000
  Na  Na2       1.0  0.13600  0.86400  0.17300  1.0000
  Na  Na3       1.0  0.72700  0.86400  0.17300  1.0000
  Na  Na4       1.0  0.27300  0.13600  0.67300  1.0000
  Na  Na5       1.0  0.86400  0.13600  0.67300  1.0000
  Na  Na6       1.0  0.86400  0.72700  0.67300  1.0000
