data_image0
_chemical_formula_structural       Dy2O12Rh2Sr6
_chemical_formula_sum              "Dy2 O12 Rh2 Sr6"
_cell_length_a       6.78431
_cell_length_b       6.78431
_cell_length_c       6.78431
_cell_angle_alpha    91.9679
_cell_angle_beta     91.9679
_cell_angle_gamma    91.9679

_space_group_name_H-M_alt    "P 1"
_space_group_IT_number       1

loop_
  _space_group_symop_operation_xyz
  'x, y, z'

loop_
  _atom_site_type_symbol
  _atom_site_label
  _atom_site_symmetry_multiplicity
  _atom_site_fract_x
  _atom_site_fract_y
  _atom_site_fract_z
  _atom_site_occupancy
  Dy  Dy1       1.0  0.25000  0.25000  0.25000  1.0000
  Dy  Dy2       1.0  0.75000  0.75000  0.75000  1.0000
  O   O1        1.0  0.91100  0.70600  0.04410  1.0000
  O   O2        1.0  0.29400  0.95600  0.08920  1.0000
  O   O3        1.0  0.41100  0.54400  0.20600  1.0000
  O   O4        1.0  0.95600  0.08920  0.29400  1.0000
  O   O5        1.0  0.54400  0.20600  0.41100  1.0000
  O   O6        1.0  0.79400  0.58900  0.45600  1.0000
  O   O7        1.0  0.20600  0.41100  0.54400  1.0000
  O   O8        1.0  0.45600  0.79400  0.58900  1.0000
  O   O9        1.0  0.04410  0.91100  0.70600  1.0000
  O   O10       1.0  0.58900  0.45600  0.79400  1.0000
  O   O11       1.0  0.70600  0.04410  0.91100  1.0000
  O   O12       1.0  0.08920  0.29400  0.95600  1.0000
  Rh  Rh1       1.0  0.00000  0.00000  0.00000  1.0000
  Rh  Rh2       1.0  0.50000  0.50000  0.50000  1.0000
  Sr  Sr1       1.0  0.75000  0.38000  0.12000  1.0000
  Sr  Sr2       1.0  0.62000  0.88000  0.25000  1.0000
  Sr  Sr3       1.0  0.12000  0.75000  0.38000  1.0000
  Sr  Sr4       1.0  0.88000  0.25000  0.62000  1.0000
  Sr  Sr5       1.0  0.38000  0.12000  0.75000  1.0000
  Sr  Sr6       1.0  0.25000  0.62000  0.88000  1.0000
