data_image0
_chemical_formula_structural       C4Cu2K4O12
_chemical_formula_sum              "C4 Cu2 K4 O12"
_cell_length_a       6.0207
_cell_length_b       6.3749
_cell_length_c       9.4
_cell_angle_alpha    98.6981
_cell_angle_beta     71.3219
_cell_angle_gamma    118.178

_space_group_name_H-M_alt    "P 1"
_space_group_IT_number       1

loop_
  _space_group_symop_operation_xyz
  'x, y, z'

loop_
  _atom_site_type_symbol
  _atom_site_label
  _atom_site_symmetry_multiplicity
  _atom_site_fract_x
  _atom_site_fract_y
  _atom_site_fract_z
  _atom_site_occupancy
  C   C1        1.0  0.09050  0.33900  0.24700  1.0000
  C   C2        1.0  0.58700  0.83900  0.25300  1.0000
  C   C3        1.0  0.00106  0.16100  0.74700  1.0000
  C   C4        1.0  0.99800  0.66100  0.75300  1.0000
  Cu  Cu1       1.0  0.00026  0.00000  0.00000  1.0000
  Cu  Cu2       1.0  0.25000  0.50000  0.50000  1.0000
  K   K1        1.0  0.67300  0.33900  0.09790  1.0000
  K   K2        1.0  0.02080  0.83900  0.40200  1.0000
  K   K3        1.0  0.58400  0.16100  0.59800  1.0000
  K   K4        1.0  0.43200  0.66100  0.90200  1.0000
  O   O1        1.0  0.14600  0.30700  0.10100  1.0000
  O   O2        1.0  0.46800  0.87700  0.17800  1.0000
  O   O3        1.0  0.81500  0.83800  0.19000  1.0000
  O   O4        1.0  0.25500  0.33800  0.31000  1.0000
  O   O5        1.0  0.89600  0.37700  0.32200  1.0000
  O   O6        1.0  0.49700  0.80700  0.39900  1.0000
  O   O7        1.0  0.08950  0.19300  0.60100  1.0000
  O   O8        1.0  0.84100  0.62300  0.67800  1.0000
  O   O9        1.0  0.22700  0.66200  0.69000  1.0000
  O   O10       1.0  0.16800  0.16200  0.81000  1.0000
  O   O11       1.0  0.77000  0.12300  0.82200  1.0000
  O   O12       1.0  0.94000  0.69300  0.89900  1.0000
