data_image0
_chemical_formula_structural       O14Rb4U4
_chemical_formula_sum              "O14 Rb4 U4"
_cell_length_a       7.21885
_cell_length_b       8.07247
_cell_length_c       7.02185
_cell_angle_alpha    90
_cell_angle_beta     109.195
_cell_angle_gamma    90

_space_group_name_H-M_alt    "P 1"
_space_group_IT_number       1

loop_
  _space_group_symop_operation_xyz
  'x, y, z'

loop_
  _atom_site_type_symbol
  _atom_site_label
  _atom_site_symmetry_multiplicity
  _atom_site_fract_x
  _atom_site_fract_y
  _atom_site_fract_z
  _atom_site_occupancy
  O   O1        1.0  0.00000  0.00000  0.00000  1.0000
  O   O2        1.0  0.01560  0.36100  0.11000  1.0000
  O   O3        1.0  0.72000  0.62000  0.13100  1.0000
  O   O4        1.0  0.73300  0.13700  0.18900  1.0000
  O   O5        1.0  0.26700  0.63700  0.31100  1.0000
  O   O6        1.0  0.28000  0.12000  0.36900  1.0000
  O   O7        1.0  0.98400  0.86100  0.39000  1.0000
  O   O8        1.0  0.00000  0.50000  0.50000  1.0000
  O   O9        1.0  0.01560  0.13900  0.61000  1.0000
  O   O10       1.0  0.72000  0.88000  0.63100  1.0000
  O   O11       1.0  0.73300  0.36300  0.68900  1.0000
  O   O12       1.0  0.26700  0.86300  0.81100  1.0000
  O   O13       1.0  0.28000  0.38000  0.86900  1.0000
  O   O14       1.0  0.98400  0.63900  0.89000  1.0000
  Rb  Rb1       1.0  0.49200  0.88100  0.22700  1.0000
  Rb  Rb2       1.0  0.50800  0.38100  0.27300  1.0000
  Rb  Rb3       1.0  0.49200  0.61900  0.72700  1.0000
  Rb  Rb4       1.0  0.50800  0.11900  0.77300  1.0000
  U   U1        1.0  0.99300  0.62400  0.22100  1.0000
  U   U2        1.0  0.00688  0.12400  0.27900  1.0000
  U   U3        1.0  0.99300  0.87600  0.72100  1.0000
  U   U4        1.0  0.00688  0.37600  0.77900  1.0000
