data_image0
_chemical_formula_structural       Al18Fe4
_chemical_formula_sum              "Al18 Fe4"
_cell_length_a       8.65938
_cell_length_b       6.3548
_cell_length_c       6.13946
_cell_angle_alpha    90
_cell_angle_beta     95.125
_cell_angle_gamma    90

_space_group_name_H-M_alt    "P 1"
_space_group_IT_number       1

loop_
  _space_group_symop_operation_xyz
  'x, y, z'

loop_
  _atom_site_type_symbol
  _atom_site_label
  _atom_site_symmetry_multiplicity
  _atom_site_fract_x
  _atom_site_fract_y
  _atom_site_fract_z
  _atom_site_occupancy
  Al  Al1       1.0  0.00000  0.00000  0.00000  1.0000
  Al  Al2       1.0  0.50000  0.50000  0.00000  1.0000
  Al  Al3       1.0  0.22600  0.30400  0.07730  1.0000
  Al  Al4       1.0  0.72600  0.19600  0.07730  1.0000
  Al  Al5       1.0  0.04570  0.61900  0.22000  1.0000
  Al  Al6       1.0  0.54600  0.88100  0.22000  1.0000
  Al  Al7       1.0  0.49500  0.31200  0.39100  1.0000
  Al  Al8       1.0  0.99500  0.18800  0.39100  1.0000
  Al  Al9       1.0  0.27000  0.95400  0.41600  1.0000
  Al  Al10      1.0  0.77000  0.54600  0.41600  1.0000
  Al  Al11      1.0  0.23000  0.45400  0.58400  1.0000
  Al  Al12      1.0  0.73000  0.04560  0.58400  1.0000
  Al  Al13      1.0  0.00486  0.81200  0.60900  1.0000
  Al  Al14      1.0  0.50500  0.68800  0.60900  1.0000
  Al  Al15      1.0  0.45400  0.11900  0.78000  1.0000
  Al  Al16      1.0  0.95400  0.38100  0.78000  1.0000
  Al  Al17      1.0  0.27400  0.80400  0.92300  1.0000
  Al  Al18      1.0  0.77400  0.69600  0.92300  1.0000
  Fe  Fe1       1.0  0.33500  0.61800  0.26300  1.0000
  Fe  Fe2       1.0  0.83500  0.88200  0.26300  1.0000
  Fe  Fe3       1.0  0.16500  0.11800  0.73700  1.0000
  Fe  Fe4       1.0  0.66500  0.38200  0.73700  1.0000
