data_image0
_chemical_formula_structural       Cd4O14P4
_chemical_formula_sum              "Cd4 O14 P4"
_cell_length_a       6.62411
_cell_length_b       6.62619
_cell_length_c       6.78245
_cell_angle_alpha    95.4569
_cell_angle_beta     115.216
_cell_angle_gamma    82.5297

_space_group_name_H-M_alt    "P 1"
_space_group_IT_number       1

loop_
  _space_group_symop_operation_xyz
  'x, y, z'

loop_
  _atom_site_type_symbol
  _atom_site_label
  _atom_site_symmetry_multiplicity
  _atom_site_fract_x
  _atom_site_fract_y
  _atom_site_fract_z
  _atom_site_occupancy
  Cd  Cd1       1.0  0.88100  0.83800  0.25000  1.0000
  Cd  Cd2       1.0  0.27100  0.36200  0.33400  1.0000
  Cd  Cd3       1.0  0.72900  0.63800  0.66600  1.0000
  Cd  Cd4       1.0  0.11900  0.16200  0.75000  1.0000
  O   O1        1.0  0.59100  0.25100  0.01200  1.0000
  O   O2        1.0  0.25500  0.07980  0.11300  1.0000
  O   O3        1.0  0.89600  0.49500  0.20800  1.0000
  O   O4        1.0  0.21200  0.73800  0.23500  1.0000
  O   O5        1.0  0.60700  0.43400  0.34900  1.0000
  O   O6        1.0  0.93000  0.16500  0.36400  1.0000
  O   O7        1.0  0.60100  0.86600  0.37200  1.0000
  O   O8        1.0  0.39900  0.13400  0.62800  1.0000
  O   O9        1.0  0.07030  0.83500  0.63600  1.0000
  O   O10       1.0  0.39300  0.56600  0.65100  1.0000
  O   O11       1.0  0.78800  0.26200  0.76500  1.0000
  O   O12       1.0  0.10400  0.50500  0.79200  1.0000
  O   O13       1.0  0.74500  0.92000  0.88700  1.0000
  O   O14       1.0  0.40900  0.74900  0.98800  1.0000
  P   P1        1.0  0.36300  0.86400  0.19200  1.0000
  P   P2        1.0  0.76100  0.34100  0.24300  1.0000
  P   P3        1.0  0.23900  0.65900  0.75700  1.0000
  P   P4        1.0  0.63700  0.13600  0.80800  1.0000
