data_image0
_chemical_formula_structural       Eu6Ni12Si4
_chemical_formula_sum              "Eu6 Ni12 Si4"
_cell_length_a       7.68844
_cell_length_b       7.68844
_cell_length_c       7.68844
_cell_angle_alpha    109.471
_cell_angle_beta     109.471
_cell_angle_gamma    109.471

_space_group_name_H-M_alt    "P 1"
_space_group_IT_number       1

loop_
  _space_group_symop_operation_xyz
  'x, y, z'

loop_
  _atom_site_type_symbol
  _atom_site_label
  _atom_site_symmetry_multiplicity
  _atom_site_fract_x
  _atom_site_fract_y
  _atom_site_fract_z
  _atom_site_occupancy
  Eu  Eu1       1.0  0.29500  0.29500  0.00000  1.0000
  Eu  Eu2       1.0  0.70500  0.70500  0.00000  1.0000
  Eu  Eu3       1.0  0.29500  0.00000  0.29500  1.0000
  Eu  Eu4       1.0  0.00000  0.29500  0.29500  1.0000
  Eu  Eu5       1.0  0.70500  0.00000  0.70500  1.0000
  Eu  Eu6       1.0  0.00000  0.70500  0.70500  1.0000
  Ni  Ni1       1.0  0.67500  0.32500  0.00000  1.0000
  Ni  Ni2       1.0  0.32500  0.67500  0.00000  1.0000
  Ni  Ni3       1.0  0.67500  0.00000  0.32500  1.0000
  Ni  Ni4       1.0  0.00000  0.67500  0.32500  1.0000
  Ni  Ni5       1.0  0.65000  0.32500  0.32500  1.0000
  Ni  Ni6       1.0  0.32500  0.65000  0.32500  1.0000
  Ni  Ni7       1.0  0.67500  0.67500  0.35000  1.0000
  Ni  Ni8       1.0  0.32500  0.32500  0.65000  1.0000
  Ni  Ni9       1.0  0.32500  0.00000  0.67500  1.0000
  Ni  Ni10      1.0  0.00000  0.32500  0.67500  1.0000
  Ni  Ni11      1.0  0.67500  0.35000  0.67500  1.0000
  Ni  Ni12      1.0  0.35000  0.67500  0.67500  1.0000
  Si  Si1       1.0  0.50000  0.00000  0.00000  1.0000
  Si  Si2       1.0  0.00000  0.50000  0.00000  1.0000
  Si  Si3       1.0  0.00000  0.00000  0.50000  1.0000
  Si  Si4       1.0  0.50000  0.50000  0.50000  1.0000
