data_image0
_chemical_formula_structural       Cl18Mo2P2
_chemical_formula_sum              "Cl18 Mo2 P2"
_cell_length_a       6.93158
_cell_length_b       8.96427
_cell_length_c       9.48559
_cell_angle_alpha    100.444
_cell_angle_beta     95.6577
_cell_angle_gamma    95.8971

_space_group_name_H-M_alt    "P 1"
_space_group_IT_number       1

loop_
  _space_group_symop_operation_xyz
  'x, y, z'

loop_
  _atom_site_type_symbol
  _atom_site_label
  _atom_site_symmetry_multiplicity
  _atom_site_fract_x
  _atom_site_fract_y
  _atom_site_fract_z
  _atom_site_occupancy
  Cl  Cl1       1.0  0.34800  0.60700  0.11600  1.0000
  Cl  Cl2       1.0  0.66200  0.89800  0.12400  1.0000
  Cl  Cl3       1.0  0.01060  0.23200  0.12400  1.0000
  Cl  Cl4       1.0  0.87900  0.58400  0.21900  1.0000
  Cl  Cl5       1.0  0.24500  0.94400  0.22800  1.0000
  Cl  Cl6       1.0  0.55900  0.28200  0.23900  1.0000
  Cl  Cl7       1.0  0.55900  0.80200  0.41800  1.0000
  Cl  Cl8       1.0  0.92000  0.16300  0.44600  1.0000
  Cl  Cl9       1.0  0.21800  0.48400  0.45000  1.0000
  Cl  Cl10      1.0  0.78200  0.51600  0.55000  1.0000
  Cl  Cl11      1.0  0.08010  0.83700  0.55400  1.0000
  Cl  Cl12      1.0  0.44100  0.19800  0.58200  1.0000
  Cl  Cl13      1.0  0.44100  0.71800  0.76100  1.0000
  Cl  Cl14      1.0  0.75500  0.05640  0.77200  1.0000
  Cl  Cl15      1.0  0.12100  0.41600  0.78100  1.0000
  Cl  Cl16      1.0  0.98900  0.76800  0.87600  1.0000
  Cl  Cl17      1.0  0.33800  0.10200  0.87600  1.0000
  Cl  Cl18      1.0  0.65200  0.39300  0.88400  1.0000
  Mo  Mo1       1.0  0.88600  0.36800  0.32600  1.0000
  Mo  Mo2       1.0  0.11400  0.63200  0.67400  1.0000
  P   P1        1.0  0.45400  0.81100  0.22100  1.0000
  P   P2        1.0  0.54600  0.18900  0.77900  1.0000
