data_image0
_chemical_formula_structural       O12Rh2Sr6Tb2
_chemical_formula_sum              "O12 Rh2 Sr6 Tb2"
_cell_length_a       6.79017
_cell_length_b       6.79017
_cell_length_c       6.79017
_cell_angle_alpha    91.924
_cell_angle_beta     91.924
_cell_angle_gamma    91.924

_space_group_name_H-M_alt    "P 1"
_space_group_IT_number       1

loop_
  _space_group_symop_operation_xyz
  'x, y, z'

loop_
  _atom_site_type_symbol
  _atom_site_label
  _atom_site_symmetry_multiplicity
  _atom_site_fract_x
  _atom_site_fract_y
  _atom_site_fract_z
  _atom_site_occupancy
  O   O1        1.0  0.91100  0.70700  0.04600  1.0000
  O   O2        1.0  0.29300  0.95400  0.08950  1.0000
  O   O3        1.0  0.41100  0.54600  0.20700  1.0000
  O   O4        1.0  0.95400  0.08950  0.29300  1.0000
  O   O5        1.0  0.54600  0.20700  0.41100  1.0000
  O   O6        1.0  0.79300  0.58900  0.45400  1.0000
  O   O7        1.0  0.20700  0.41100  0.54600  1.0000
  O   O8        1.0  0.45400  0.79300  0.58900  1.0000
  O   O9        1.0  0.04600  0.91100  0.70700  1.0000
  O   O10       1.0  0.58900  0.45400  0.79300  1.0000
  O   O11       1.0  0.70700  0.04600  0.91100  1.0000
  O   O12       1.0  0.08950  0.29300  0.95400  1.0000
  Rh  Rh1       1.0  0.00000  0.00000  0.00000  1.0000
  Rh  Rh2       1.0  0.50000  0.50000  0.50000  1.0000
  Sr  Sr1       1.0  0.75000  0.38100  0.11900  1.0000
  Sr  Sr2       1.0  0.61900  0.88100  0.25000  1.0000
  Sr  Sr3       1.0  0.11900  0.75000  0.38100  1.0000
  Sr  Sr4       1.0  0.88100  0.25000  0.61900  1.0000
  Sr  Sr5       1.0  0.38100  0.11900  0.75000  1.0000
  Sr  Sr6       1.0  0.25000  0.61900  0.88100  1.0000
  Tb  Tb1       1.0  0.25000  0.25000  0.25000  1.0000
  Tb  Tb2       1.0  0.75000  0.75000  0.75000  1.0000
