data_image0
_chemical_formula_structural       Cl2Mn2O12Se4Sm2
_chemical_formula_sum              "Cl2 Mn2 O12 Se4 Sm2"
_cell_length_a       6.9952
_cell_length_b       7.20293
_cell_length_c       7.99611
_cell_angle_alpha    86.6982
_cell_angle_beta     71.487
_cell_angle_gamma    64.0805

_space_group_name_H-M_alt    "P 1"
_space_group_IT_number       1

loop_
  _space_group_symop_operation_xyz
  'x, y, z'

loop_
  _atom_site_type_symbol
  _atom_site_label
  _atom_site_symmetry_multiplicity
  _atom_site_fract_x
  _atom_site_fract_y
  _atom_site_fract_z
  _atom_site_occupancy
  Cl  Cl1       1.0  0.43700  0.84300  0.16800  1.0000
  Cl  Cl2       1.0  0.56300  0.15700  0.83200  1.0000
  Mn  Mn1       1.0  0.79800  0.91000  0.02410  1.0000
  Mn  Mn2       1.0  0.20200  0.09020  0.97600  1.0000
  O   O1        1.0  0.82200  0.18300  0.09620  1.0000
  O   O2        1.0  0.12600  0.31200  0.18400  1.0000
  O   O3        1.0  0.91400  0.72500  0.22300  1.0000
  O   O4        1.0  0.55200  0.12200  0.38400  1.0000
  O   O5        1.0  0.19100  0.52200  0.39200  1.0000
  O   O6        1.0  0.90900  0.10700  0.40000  1.0000
  O   O7        1.0  0.09110  0.89300  0.60000  1.0000
  O   O8        1.0  0.80900  0.47800  0.60800  1.0000
  O   O9        1.0  0.44800  0.87800  0.61600  1.0000
  O   O10       1.0  0.08600  0.27500  0.77700  1.0000
  O   O11       1.0  0.87400  0.68800  0.81600  1.0000
  O   O12       1.0  0.17800  0.81700  0.90400  1.0000
  Se  Se1       1.0  0.18400  0.52400  0.17700  1.0000
  Se  Se2       1.0  0.69800  0.26900  0.31900  1.0000
  Se  Se3       1.0  0.30200  0.73100  0.68100  1.0000
  Se  Se4       1.0  0.81600  0.47600  0.82300  1.0000
  Sm  Sm1       1.0  0.18100  0.16900  0.46800  1.0000
  Sm  Sm2       1.0  0.81900  0.83100  0.53200  1.0000
