data_image0
_chemical_formula_structural       Cs2Cu6Se10Tb4
_chemical_formula_sum              "Cs2 Cu6 Se10 Tb4"
_cell_length_a       4.14603
_cell_length_b       7.63185
_cell_length_c       17.4642
_cell_angle_alpha    90
_cell_angle_beta     90
_cell_angle_gamma    74.2389

_space_group_name_H-M_alt    "P 1"
_space_group_IT_number       1

loop_
  _space_group_symop_operation_xyz
  'x, y, z'

loop_
  _atom_site_type_symbol
  _atom_site_label
  _atom_site_symmetry_multiplicity
  _atom_site_fract_x
  _atom_site_fract_y
  _atom_site_fract_z
  _atom_site_occupancy
  Cs  Cs1       1.0  0.93900  0.12200  0.25000  1.0000
  Cs  Cs2       1.0  0.06100  0.87800  0.75000  1.0000
  Cu  Cu1       1.0  0.41500  0.16900  0.03030  1.0000
  Cu  Cu2       1.0  0.65800  0.68400  0.25000  1.0000
  Cu  Cu3       1.0  0.41500  0.16900  0.47000  1.0000
  Cu  Cu4       1.0  0.58500  0.83100  0.53000  1.0000
  Cu  Cu5       1.0  0.34200  0.31600  0.75000  1.0000
  Cu  Cu6       1.0  0.58500  0.83100  0.97000  1.0000
  Se  Se1       1.0  0.83300  0.33400  0.07050  1.0000
  Se  Se2       1.0  0.56000  0.88000  0.11200  1.0000
  Se  Se3       1.0  0.23700  0.52500  0.25000  1.0000
  Se  Se4       1.0  0.56000  0.88000  0.38800  1.0000
  Se  Se5       1.0  0.83300  0.33400  0.42900  1.0000
  Se  Se6       1.0  0.16700  0.66600  0.57100  1.0000
  Se  Se7       1.0  0.44000  0.12000  0.61200  1.0000
  Se  Se8       1.0  0.76300  0.47500  0.75000  1.0000
  Se  Se9       1.0  0.44000  0.12000  0.88800  1.0000
  Se  Se10      1.0  0.16700  0.66600  0.92900  1.0000
  Tb  Tb1       1.0  0.19200  0.61600  0.09100  1.0000
  Tb  Tb2       1.0  0.19200  0.61600  0.40900  1.0000
  Tb  Tb3       1.0  0.80800  0.38400  0.59100  1.0000
  Tb  Tb4       1.0  0.80800  0.38400  0.90900  1.0000
