data_image0
_chemical_formula_structural       Ca2Cr2O14P4
_chemical_formula_sum              "Ca2 Cr2 O14 P4"
_cell_length_a       6.27685
_cell_length_b       6.46381
_cell_length_c       6.8552
_cell_angle_alpha    83.2767
_cell_angle_beta     88.3397
_cell_angle_gamma    67.7411

_space_group_name_H-M_alt    "P 1"
_space_group_IT_number       1

loop_
  _space_group_symop_operation_xyz
  'x, y, z'

loop_
  _atom_site_type_symbol
  _atom_site_label
  _atom_site_symmetry_multiplicity
  _atom_site_fract_x
  _atom_site_fract_y
  _atom_site_fract_z
  _atom_site_occupancy
  Ca  Ca1       1.0  0.71800  0.25900  0.38700  1.0000
  Ca  Ca2       1.0  0.28200  0.74100  0.61300  1.0000
  Cr  Cr1       1.0  0.27300  0.11000  0.15500  1.0000
  Cr  Cr2       1.0  0.72700  0.89000  0.84500  1.0000
  O   O1        1.0  0.92300  0.24600  0.08770  1.0000
  O   O2        1.0  0.34900  0.40300  0.12000  1.0000
  O   O3        1.0  0.25500  0.79600  0.22700  1.0000
  O   O4        1.0  0.61700  0.97800  0.23000  1.0000
  O   O5        1.0  0.96200  0.61300  0.23900  1.0000
  O   O6        1.0  0.64400  0.62200  0.45800  1.0000
  O   O7        1.0  0.12200  0.14300  0.48000  1.0000
  O   O8        1.0  0.87800  0.85700  0.52000  1.0000
  O   O9        1.0  0.35600  0.37800  0.54200  1.0000
  O   O10       1.0  0.03810  0.38700  0.76100  1.0000
  O   O11       1.0  0.38300  0.02230  0.77000  1.0000
  O   O12       1.0  0.74500  0.20400  0.77300  1.0000
  O   O13       1.0  0.65100  0.59700  0.88000  1.0000
  O   O14       1.0  0.07740  0.75400  0.91200  1.0000
  P   P1        1.0  0.17700  0.64400  0.11800  1.0000
  P   P2        1.0  0.76600  0.77100  0.36900  1.0000
  P   P3        1.0  0.23400  0.22900  0.63100  1.0000
  P   P4        1.0  0.82300  0.35600  0.88200  1.0000
