data_image0
_chemical_formula_structural       CuK2N6O12Sr
_chemical_formula_sum              "Cu1 K2 N6 O12 Sr1"
_cell_length_a       7.218
_cell_length_b       7.218
_cell_length_c       7.36457
_cell_angle_alpha    119.282
_cell_angle_beta     119.282
_cell_angle_gamma    90.1106

_space_group_name_H-M_alt    "P 1"
_space_group_IT_number       1

loop_
  _space_group_symop_operation_xyz
  'x, y, z'

loop_
  _atom_site_type_symbol
  _atom_site_label
  _atom_site_symmetry_multiplicity
  _atom_site_fract_x
  _atom_site_fract_y
  _atom_site_fract_z
  _atom_site_occupancy
  Cu  Cu1       1.0  0.00000  0.00000  0.00000  1.0000
  K   K1        1.0  0.75000  0.25000  0.50000  1.0000
  K   K2        1.0  0.25000  0.75000  0.50000  1.0000
  N   N1        1.0  0.80300  0.19700  0.00000  1.0000
  N   N2        1.0  0.19700  0.19700  0.00000  1.0000
  N   N3        1.0  0.80300  0.80300  0.00000  1.0000
  N   N4        1.0  0.19700  0.80300  0.00000  1.0000
  N   N5        1.0  0.21100  0.21100  0.42100  1.0000
  N   N6        1.0  0.78900  0.78900  0.57900  1.0000
  O   O1        1.0  0.63400  0.15400  0.00000  1.0000
  O   O2        1.0  0.84600  0.36600  0.00000  1.0000
  O   O3        1.0  0.15400  0.63400  0.00000  1.0000
  O   O4        1.0  0.36600  0.84600  0.00000  1.0000
  O   O5        1.0  0.36200  0.36200  0.20300  1.0000
  O   O6        1.0  0.84200  0.84200  0.20300  1.0000
  O   O7        1.0  0.83200  0.62100  0.45300  1.0000
  O   O8        1.0  0.62100  0.83200  0.45300  1.0000
  O   O9        1.0  0.37900  0.16800  0.54700  1.0000
  O   O10       1.0  0.16800  0.37900  0.54700  1.0000
  O   O11       1.0  0.15800  0.15800  0.79700  1.0000
  O   O12       1.0  0.63800  0.63800  0.79700  1.0000
  Sr  Sr1       1.0  0.50000  0.50000  0.00000  1.0000
