data_image0
_chemical_formula_structural       Al4Cu6
_chemical_formula_sum              "Al4 Cu6"
_cell_length_a       6.10138
_cell_length_b       6.10138
_cell_length_c       5.61389
_cell_angle_alpha    122.917
_cell_angle_beta     57.0834
_cell_angle_gamma    120

_space_group_name_H-M_alt    "P 1"
_space_group_IT_number       1

loop_
  _space_group_symop_operation_xyz
  'x, y, z'

loop_
  _atom_site_type_symbol
  _atom_site_label
  _atom_site_symmetry_multiplicity
  _atom_site_fract_x
  _atom_site_fract_y
  _atom_site_fract_z
  _atom_site_occupancy
  Al  Al1       1.0  0.59600  0.40400  0.21100  1.0000
  Al  Al2       1.0  0.90400  0.09650  0.28900  1.0000
  Al  Al3       1.0  0.09650  0.90400  0.71100  1.0000
  Al  Al4       1.0  0.40400  0.59600  0.78900  1.0000
  Cu  Cu1       1.0  0.48600  0.75000  0.25000  1.0000
  Cu  Cu2       1.0  0.01370  0.51400  0.25000  1.0000
  Cu  Cu3       1.0  0.25000  0.98600  0.25000  1.0000
  Cu  Cu4       1.0  0.98600  0.48600  0.75000  1.0000
  Cu  Cu5       1.0  0.51400  0.25000  0.75000  1.0000
  Cu  Cu6       1.0  0.75000  0.01370  0.75000  1.0000
