data_image0
_chemical_formula_structural       Cr4Ge10Ti8
_chemical_formula_sum              "Cr4 Ge10 Ti8"
_cell_length_a       5.01478
_cell_length_b       7.94219
_cell_length_c       9.59037
_cell_angle_alpha    114.461
_cell_angle_beta     105.156
_cell_angle_gamma    90

_space_group_name_H-M_alt    "P 1"
_space_group_IT_number       1

loop_
  _space_group_symop_operation_xyz
  'x, y, z'

loop_
  _atom_site_type_symbol
  _atom_site_label
  _atom_site_symmetry_multiplicity
  _atom_site_fract_x
  _atom_site_fract_y
  _atom_site_fract_z
  _atom_site_occupancy
  Cr  Cr1       1.0  0.44100  0.69100  0.38200  1.0000
  Cr  Cr2       1.0  0.94100  0.69100  0.38200  1.0000
  Cr  Cr3       1.0  0.05890  0.30900  0.61800  1.0000
  Cr  Cr4       1.0  0.55900  0.30900  0.61800  1.0000
  Ge  Ge1       1.0  0.25000  0.00000  0.00000  1.0000
  Ge  Ge2       1.0  0.75000  0.00000  0.00000  1.0000
  Ge  Ge3       1.0  0.57300  0.48000  0.14500  1.0000
  Ge  Ge4       1.0  0.07250  0.66500  0.14500  1.0000
  Ge  Ge5       1.0  0.71400  0.01490  0.42700  1.0000
  Ge  Ge6       1.0  0.21400  0.41200  0.42700  1.0000
  Ge  Ge7       1.0  0.78600  0.58800  0.57300  1.0000
  Ge  Ge8       1.0  0.28600  0.98500  0.57300  1.0000
  Ge  Ge9       1.0  0.92700  0.33500  0.85500  1.0000
  Ge  Ge10      1.0  0.42700  0.52000  0.85500  1.0000
  Ti  Ti1       1.0  0.06470  0.32400  0.12900  1.0000
  Ti  Ti2       1.0  0.56500  0.80500  0.12900  1.0000
  Ti  Ti3       1.0  0.14300  0.03340  0.28600  1.0000
  Ti  Ti4       1.0  0.64300  0.25300  0.28600  1.0000
  Ti  Ti5       1.0  0.35700  0.74700  0.71400  1.0000
  Ti  Ti6       1.0  0.85700  0.96700  0.71400  1.0000
  Ti  Ti7       1.0  0.43500  0.19500  0.87100  1.0000
  Ti  Ti8       1.0  0.93500  0.67600  0.87100  1.0000
