data_image0
_chemical_formula_structural       Al4Sb6
_chemical_formula_sum              "Al4 Sb6"
_cell_length_a       7.66908
_cell_length_b       7.66908
_cell_length_c       6.74207
_cell_angle_alpha    124.663
_cell_angle_beta     55.3371
_cell_angle_gamma    120

_space_group_name_H-M_alt    "P 1"
_space_group_IT_number       1

loop_
  _space_group_symop_operation_xyz
  'x, y, z'

loop_
  _atom_site_type_symbol
  _atom_site_label
  _atom_site_symmetry_multiplicity
  _atom_site_fract_x
  _atom_site_fract_y
  _atom_site_fract_z
  _atom_site_occupancy
  Al  Al1       1.0  0.65800  0.34200  0.02650  1.0000
  Al  Al2       1.0  0.84200  0.15800  0.47400  1.0000
  Al  Al3       1.0  0.15800  0.84200  0.52600  1.0000
  Al  Al4       1.0  0.34200  0.65800  0.97400  1.0000
  Sb  Sb1       1.0  0.91000  0.41000  0.25000  1.0000
  Sb  Sb2       1.0  0.59000  0.75000  0.25000  1.0000
  Sb  Sb3       1.0  0.25000  0.08960  0.25000  1.0000
  Sb  Sb4       1.0  0.75000  0.91000  0.75000  1.0000
  Sb  Sb5       1.0  0.41000  0.25000  0.75000  1.0000
  Sb  Sb6       1.0  0.08960  0.59000  0.75000  1.0000
