data_image0
_chemical_formula_structural       C8Mn2N2O10
_chemical_formula_sum              "C8 Mn2 N2 O10"
_cell_length_a       6.50419
_cell_length_b       6.50978
_cell_length_c       9.02823
_cell_angle_alpha    106.201
_cell_angle_beta     90
_cell_angle_gamma    119.972

_space_group_name_H-M_alt    "P 1"
_space_group_IT_number       1

loop_
  _space_group_symop_operation_xyz
  'x, y, z'

loop_
  _atom_site_type_symbol
  _atom_site_label
  _atom_site_symmetry_multiplicity
  _atom_site_fract_x
  _atom_site_fract_y
  _atom_site_fract_z
  _atom_site_occupancy
  C   C1        1.0  0.21700  0.83000  0.08390  1.0000
  C   C2        1.0  0.29700  0.27500  0.17900  1.0000
  C   C3        1.0  0.02280  0.72500  0.32100  1.0000
  C   C4        1.0  0.38700  0.17000  0.41600  1.0000
  C   C5        1.0  0.61300  0.83000  0.58400  1.0000
  C   C6        1.0  0.97700  0.27500  0.67900  1.0000
  C   C7        1.0  0.70300  0.72500  0.82100  1.0000
  C   C8        1.0  0.78300  0.17000  0.91600  1.0000
  Mn  Mn1       1.0  0.14200  0.00000  0.25000  1.0000
  Mn  Mn2       1.0  0.85800  0.00000  0.75000  1.0000
  N   N1        1.0  0.88200  0.00000  0.25000  1.0000
  N   N2        1.0  0.11800  0.00000  0.75000  1.0000
  O   O1        1.0  0.74500  0.28000  0.02650  1.0000
  O   O2        1.0  0.39100  0.44400  0.13500  1.0000
  O   O3        1.0  0.70100  0.00000  0.25000  1.0000
  O   O4        1.0  0.94600  0.55600  0.36500  1.0000
  O   O5        1.0  0.46500  0.72000  0.47400  1.0000
  O   O6        1.0  0.53500  0.28000  0.52600  1.0000
  O   O7        1.0  0.05370  0.44400  0.63500  1.0000
  O   O8        1.0  0.29900  0.00000  0.75000  1.0000
  O   O9        1.0  0.60900  0.55600  0.86500  1.0000
  O   O10       1.0  0.25500  0.72000  0.97400  1.0000
