data_image0
_chemical_formula_structural       Al4K6
_chemical_formula_sum              "Al4 K6"
_cell_length_a       9.08691
_cell_length_b       9.08691
_cell_length_c       8.57678
_cell_angle_alpha    121.988
_cell_angle_beta     58.0122
_cell_angle_gamma    120

_space_group_name_H-M_alt    "P 1"
_space_group_IT_number       1

loop_
  _space_group_symop_operation_xyz
  'x, y, z'

loop_
  _atom_site_type_symbol
  _atom_site_label
  _atom_site_symmetry_multiplicity
  _atom_site_fract_x
  _atom_site_fract_y
  _atom_site_fract_z
  _atom_site_occupancy
  Al  Al1       1.0  0.33100  0.66900  0.00563  1.0000
  Al  Al2       1.0  0.16900  0.83100  0.49400  1.0000
  Al  Al3       1.0  0.83100  0.16900  0.50600  1.0000
  Al  Al4       1.0  0.66900  0.33100  0.99400  1.0000
  K   K1        1.0  0.55600  0.75000  0.25000  1.0000
  K   K2        1.0  0.94400  0.44400  0.25000  1.0000
  K   K3        1.0  0.25000  0.05600  0.25000  1.0000
  K   K4        1.0  0.75000  0.94400  0.75000  1.0000
  K   K5        1.0  0.05600  0.55600  0.75000  1.0000
  K   K6        1.0  0.44400  0.25000  0.75000  1.0000
