data_image0
_chemical_formula_structural       Fe2Li2O14P4
_chemical_formula_sum              "Fe2 Li2 O14 P4"
_cell_length_a       4.78992
_cell_length_b       8.02454
_cell_length_c       6.91114
_cell_angle_alpha    90
_cell_angle_beta     109.904
_cell_angle_gamma    90

_space_group_name_H-M_alt    "P 1"
_space_group_IT_number       1

loop_
  _space_group_symop_operation_xyz
  'x, y, z'

loop_
  _atom_site_type_symbol
  _atom_site_label
  _atom_site_symmetry_multiplicity
  _atom_site_fract_x
  _atom_site_fract_y
  _atom_site_fract_z
  _atom_site_occupancy
  Fe  Fe1       1.0  0.22500  0.25300  0.23500  1.0000
  Fe  Fe2       1.0  0.77500  0.75300  0.76500  1.0000
  Li  Li1       1.0  0.18700  0.88300  0.18400  1.0000
  Li  Li2       1.0  0.81300  0.38300  0.81600  1.0000
  O   O1        1.0  0.24600  0.40300  0.00632  1.0000
  O   O2        1.0  0.81100  0.21900  0.02070  1.0000
  O   O3        1.0  0.39900  0.06900  0.11200  1.0000
  O   O4        1.0  0.60400  0.60200  0.25600  1.0000
  O   O5        1.0  0.07900  0.43400  0.36400  1.0000
  O   O6        1.0  0.11600  0.06200  0.37600  1.0000
  O   O7        1.0  0.62400  0.31400  0.42500  1.0000
  O   O8        1.0  0.37600  0.81400  0.57500  1.0000
  O   O9        1.0  0.88400  0.56200  0.62400  1.0000
  O   O10       1.0  0.92100  0.93400  0.63600  1.0000
  O   O11       1.0  0.39600  0.10200  0.74400  1.0000
  O   O12       1.0  0.60100  0.56900  0.88800  1.0000
  O   O13       1.0  0.18900  0.71900  0.97900  1.0000
  O   O14       1.0  0.75400  0.90300  0.99400  1.0000
  P   P1        1.0  0.40100  0.57200  0.01850  1.0000
  P   P2        1.0  0.80500  0.47000  0.42000  1.0000
  P   P3        1.0  0.19500  0.97000  0.58000  1.0000
  P   P4        1.0  0.59900  0.07160  0.98200  1.0000
