data_image0
_chemical_formula_structural       B4Cu2O12Pb4
_chemical_formula_sum              "B4 Cu2 O12 Pb4"
_cell_length_a       5.67386
_cell_length_b       8.73022
_cell_length_c       6.10485
_cell_angle_alpha    90
_cell_angle_beta     115.469
_cell_angle_gamma    90

_space_group_name_H-M_alt    "P 1"
_space_group_IT_number       1

loop_
  _space_group_symop_operation_xyz
  'x, y, z'

loop_
  _atom_site_type_symbol
  _atom_site_label
  _atom_site_symmetry_multiplicity
  _atom_site_fract_x
  _atom_site_fract_y
  _atom_site_fract_z
  _atom_site_occupancy
  B   B1        1.0  0.26100  0.24900  0.16100  1.0000
  B   B2        1.0  0.73900  0.74900  0.33900  1.0000
  B   B3        1.0  0.26100  0.25100  0.66100  1.0000
  B   B4        1.0  0.73900  0.75100  0.83900  1.0000
  Cu  Cu1       1.0  0.50000  0.50000  0.00000  1.0000
  Cu  Cu2       1.0  0.50000  0.00000  0.50000  1.0000
  O   O1        1.0  0.03050  0.32700  0.10100  1.0000
  O   O2        1.0  0.49000  0.31700  0.18400  1.0000
  O   O3        1.0  0.25500  0.09140  0.20100  1.0000
  O   O4        1.0  0.74500  0.59100  0.29900  1.0000
  O   O5        1.0  0.51000  0.81700  0.31600  1.0000
  O   O6        1.0  0.96900  0.82700  0.39900  1.0000
  O   O7        1.0  0.03050  0.17300  0.60100  1.0000
  O   O8        1.0  0.49000  0.18300  0.68400  1.0000
  O   O9        1.0  0.25500  0.40900  0.70100  1.0000
  O   O10       1.0  0.74500  0.90900  0.79900  1.0000
  O   O11       1.0  0.51000  0.68300  0.81600  1.0000
  O   O12       1.0  0.96900  0.67300  0.89900  1.0000
  Pb  Pb1       1.0  0.80200  0.10300  0.16500  1.0000
  Pb  Pb2       1.0  0.19800  0.60300  0.33500  1.0000
  Pb  Pb3       1.0  0.80200  0.39700  0.66500  1.0000
  Pb  Pb4       1.0  0.19800  0.89700  0.83500  1.0000
