data_image0
_chemical_formula_structural       K12Mn2Te8
_chemical_formula_sum              "K12 Mn2 Te8"
_cell_length_a       10.9629
_cell_length_b       10.9627
_cell_length_c       8.44942
_cell_angle_alpha    90
_cell_angle_beta     90
_cell_angle_gamma    120.001

_space_group_name_H-M_alt    "P 1"
_space_group_IT_number       1

loop_
  _space_group_symop_operation_xyz
  'x, y, z'

loop_
  _atom_site_type_symbol
  _atom_site_label
  _atom_site_symmetry_multiplicity
  _atom_site_fract_x
  _atom_site_fract_y
  _atom_site_fract_z
  _atom_site_occupancy
  K   K1        1.0  0.29500  0.14700  0.04620  1.0000
  K   K2        1.0  0.85300  0.14700  0.04620  1.0000
  K   K3        1.0  0.85300  0.70500  0.04620  1.0000
  K   K4        1.0  0.52500  0.05040  0.36400  1.0000
  K   K5        1.0  0.52500  0.47500  0.36400  1.0000
  K   K6        1.0  0.95000  0.47500  0.36400  1.0000
  K   K7        1.0  0.14700  0.85300  0.54600  1.0000
  K   K8        1.0  0.70500  0.85300  0.54600  1.0000
  K   K9        1.0  0.14700  0.29500  0.54600  1.0000
  K   K10       1.0  0.47500  0.95000  0.86400  1.0000
  K   K11       1.0  0.05040  0.52500  0.86400  1.0000
  K   K12       1.0  0.47500  0.52500  0.86400  1.0000
  Mn  Mn1       1.0  0.33300  0.66700  0.25000  1.0000
  Mn  Mn2       1.0  0.66700  0.33300  0.75000  1.0000
  Te  Te1       1.0  0.66700  0.33300  0.07680  1.0000
  Te  Te2       1.0  0.19500  0.38900  0.14800  1.0000
  Te  Te3       1.0  0.19500  0.80500  0.14800  1.0000
  Te  Te4       1.0  0.61100  0.80500  0.14800  1.0000
  Te  Te5       1.0  0.33300  0.66700  0.57700  1.0000
  Te  Te6       1.0  0.80500  0.61100  0.64800  1.0000
  Te  Te7       1.0  0.38900  0.19500  0.64800  1.0000
  Te  Te8       1.0  0.80500  0.19500  0.64800  1.0000
