data_image0
_chemical_formula_structural       Al4Pd6
_chemical_formula_sum              "Al4 Pd6"
_cell_length_a       6.37986
_cell_length_b       6.37986
_cell_length_c       5.68943
_cell_angle_alpha    124.103
_cell_angle_beta     55.8974
_cell_angle_gamma    120

_space_group_name_H-M_alt    "P 1"
_space_group_IT_number       1

loop_
  _space_group_symop_operation_xyz
  'x, y, z'

loop_
  _atom_site_type_symbol
  _atom_site_label
  _atom_site_symmetry_multiplicity
  _atom_site_fract_x
  _atom_site_fract_y
  _atom_site_fract_z
  _atom_site_occupancy
  Al  Al1       1.0  0.60500  0.39500  0.18600  1.0000
  Al  Al2       1.0  0.89500  0.10500  0.31400  1.0000
  Al  Al3       1.0  0.10500  0.89500  0.68600  1.0000
  Al  Al4       1.0  0.39500  0.60500  0.81400  1.0000
  Pd  Pd1       1.0  0.51600  0.75000  0.25000  1.0000
  Pd  Pd2       1.0  0.25000  0.01600  0.25000  1.0000
  Pd  Pd3       1.0  0.98400  0.48400  0.25000  1.0000
  Pd  Pd4       1.0  0.01600  0.51600  0.75000  1.0000
  Pd  Pd5       1.0  0.75000  0.98400  0.75000  1.0000
  Pd  Pd6       1.0  0.48400  0.25000  0.75000  1.0000
