data_image0
_chemical_formula_structural       Al4Ni6
_chemical_formula_sum              "Al4 Ni6"
_cell_length_a       5.98232
_cell_length_b       5.98232
_cell_length_c       5.38574
_cell_angle_alpha    123.737
_cell_angle_beta     56.2628
_cell_angle_gamma    120

_space_group_name_H-M_alt    "P 1"
_space_group_IT_number       1

loop_
  _space_group_symop_operation_xyz
  'x, y, z'

loop_
  _atom_site_type_symbol
  _atom_site_label
  _atom_site_symmetry_multiplicity
  _atom_site_fract_x
  _atom_site_fract_y
  _atom_site_fract_z
  _atom_site_occupancy
  Al  Al1       1.0  0.60200  0.39800  0.19300  1.0000
  Al  Al2       1.0  0.89800  0.10200  0.30700  1.0000
  Al  Al3       1.0  0.10200  0.89800  0.69300  1.0000
  Al  Al4       1.0  0.39800  0.60200  0.80700  1.0000
  Ni  Ni1       1.0  0.50200  0.75000  0.25000  1.0000
  Ni  Ni2       1.0  0.99800  0.49800  0.25000  1.0000
  Ni  Ni3       1.0  0.25000  0.00159  0.25000  1.0000
  Ni  Ni4       1.0  0.00159  0.50200  0.75000  1.0000
  Ni  Ni5       1.0  0.49800  0.25000  0.75000  1.0000
  Ni  Ni6       1.0  0.75000  0.99800  0.75000  1.0000
