data_image0
_chemical_formula_structural       Cu4NaO12Te2Tl3
_chemical_formula_sum              "Cu4 Na1 O12 Te2 Tl3"
_cell_length_a       5.25871
_cell_length_b       7.93521
_cell_length_c       7.93521
_cell_angle_alpha    71.8673
_cell_angle_beta     101.831
_cell_angle_gamma    101.831

_space_group_name_H-M_alt    "P 1"
_space_group_IT_number       1

loop_
  _space_group_symop_operation_xyz
  'x, y, z'

loop_
  _atom_site_type_symbol
  _atom_site_label
  _atom_site_symmetry_multiplicity
  _atom_site_fract_x
  _atom_site_fract_y
  _atom_site_fract_z
  _atom_site_occupancy
  Cu  Cu1       1.0  0.25300  0.39800  0.07390  1.0000
  Cu  Cu2       1.0  0.25300  0.07390  0.39800  1.0000
  Cu  Cu3       1.0  0.74700  0.92600  0.60200  1.0000
  Cu  Cu4       1.0  0.74700  0.60200  0.92600  1.0000
  Na  Na1       1.0  0.00000  0.00000  0.00000  1.0000
  O   O1        1.0  0.09820  0.70800  0.01290  1.0000
  O   O2        1.0  0.42800  0.11000  0.11000  1.0000
  O   O3        1.0  0.64200  0.45000  0.15800  1.0000
  O   O4        1.0  0.90200  0.98700  0.29200  1.0000
  O   O5        1.0  0.12800  0.30700  0.30700  1.0000
  O   O6        1.0  0.64200  0.15800  0.45000  1.0000
  O   O7        1.0  0.35800  0.84200  0.55000  1.0000
  O   O8        1.0  0.87200  0.69300  0.69300  1.0000
  O   O9        1.0  0.09820  0.01290  0.70800  1.0000
  O   O10       1.0  0.35800  0.55000  0.84200  1.0000
  O   O11       1.0  0.57200  0.89000  0.89000  1.0000
  O   O12       1.0  0.90200  0.29200  0.98700  1.0000
  Te  Te1       1.0  0.75700  0.21300  0.21300  1.0000
  Te  Te2       1.0  0.24300  0.78700  0.78700  1.0000
  Tl  Tl1       1.0  0.50000  0.74300  0.25700  1.0000
  Tl  Tl2       1.0  0.00000  0.50000  0.50000  1.0000
  Tl  Tl3       1.0  0.50000  0.25700  0.74300  1.0000
