data_image0
_chemical_formula_structural       Cd2P4Rb4Se12
_chemical_formula_sum              "Cd2 P4 Rb4 Se12"
_cell_length_a       6.73764
_cell_length_b       7.91352
_cell_length_c       12.8188
_cell_angle_alpha    90
_cell_angle_beta     90
_cell_angle_gamma    98.0277

_space_group_name_H-M_alt    "P 1"
_space_group_IT_number       1

loop_
  _space_group_symop_operation_xyz
  'x, y, z'

loop_
  _atom_site_type_symbol
  _atom_site_label
  _atom_site_symmetry_multiplicity
  _atom_site_fract_x
  _atom_site_fract_y
  _atom_site_fract_z
  _atom_site_occupancy
  Cd  Cd1       1.0  0.50000  0.50000  0.00000  1.0000
  Cd  Cd2       1.0  0.00000  0.00000  0.50000  1.0000
  P   P1        1.0  0.02490  0.37600  0.04110  1.0000
  P   P2        1.0  0.52500  0.87600  0.45900  1.0000
  P   P3        1.0  0.47500  0.12400  0.54100  1.0000
  P   P4        1.0  0.97500  0.62400  0.95900  1.0000
  Rb  Rb1       1.0  0.25700  0.97900  0.17900  1.0000
  Rb  Rb2       1.0  0.75700  0.47900  0.32100  1.0000
  Rb  Rb3       1.0  0.24300  0.52100  0.67900  1.0000
  Rb  Rb4       1.0  0.74300  0.02090  0.82100  1.0000
  Se  Se1       1.0  0.80800  0.76400  0.07050  1.0000
  Se  Se2       1.0  0.71900  0.24800  0.07390  1.0000
  Se  Se3       1.0  0.21000  0.45100  0.18000  1.0000
  Se  Se4       1.0  0.71000  0.95100  0.32000  1.0000
  Se  Se5       1.0  0.21900  0.74800  0.42600  1.0000
  Se  Se6       1.0  0.30800  0.26400  0.43000  1.0000
  Se  Se7       1.0  0.69200  0.73600  0.57000  1.0000
  Se  Se8       1.0  0.78100  0.25200  0.57400  1.0000
  Se  Se9       1.0  0.29000  0.04870  0.68000  1.0000
  Se  Se10      1.0  0.79000  0.54900  0.82000  1.0000
  Se  Se11      1.0  0.28100  0.75200  0.92600  1.0000
  Se  Se12      1.0  0.19200  0.23600  0.93000  1.0000
