data_image0
_chemical_formula_structural       Al4As6
_chemical_formula_sum              "Al4 As6"
_cell_length_a       6.92448
_cell_length_b       6.92448
_cell_length_c       6.32542
_cell_angle_alpha    123.186
_cell_angle_beta     56.8144
_cell_angle_gamma    120

_space_group_name_H-M_alt    "P 1"
_space_group_IT_number       1

loop_
  _space_group_symop_operation_xyz
  'x, y, z'

loop_
  _atom_site_type_symbol
  _atom_site_label
  _atom_site_symmetry_multiplicity
  _atom_site_fract_x
  _atom_site_fract_y
  _atom_site_fract_z
  _atom_site_occupancy
  Al  Al1       1.0  0.65000  0.35000  0.05120  1.0000
  Al  Al2       1.0  0.85000  0.15000  0.44900  1.0000
  Al  Al3       1.0  0.15000  0.85000  0.55100  1.0000
  Al  Al4       1.0  0.35000  0.65000  0.94900  1.0000
  As  As1       1.0  0.57700  0.75000  0.25000  1.0000
  As  As2       1.0  0.92300  0.42300  0.25000  1.0000
  As  As3       1.0  0.25000  0.07700  0.25000  1.0000
  As  As4       1.0  0.75000  0.92300  0.75000  1.0000
  As  As5       1.0  0.07700  0.57700  0.75000  1.0000
  As  As6       1.0  0.42300  0.25000  0.75000  1.0000
