data_image0
_chemical_formula_structural       Ag4Mg6
_chemical_formula_sum              "Ag4 Mg6"
_cell_length_a       6.1389
_cell_length_b       6.1389
_cell_length_c       7.37605
_cell_angle_alpha    114.591
_cell_angle_beta     65.409
_cell_angle_gamma    120

_space_group_name_H-M_alt    "P 1"
_space_group_IT_number       1

loop_
  _space_group_symop_operation_xyz
  'x, y, z'

loop_
  _atom_site_type_symbol
  _atom_site_label
  _atom_site_symmetry_multiplicity
  _atom_site_fract_x
  _atom_site_fract_y
  _atom_site_fract_z
  _atom_site_occupancy
  Ag  Ag1       1.0  0.31800  0.68200  0.04590  1.0000
  Ag  Ag2       1.0  0.18200  0.81800  0.45400  1.0000
  Ag  Ag3       1.0  0.81800  0.18200  0.54600  1.0000
  Ag  Ag4       1.0  0.68200  0.31800  0.95400  1.0000
  Mg  Mg1       1.0  0.83100  0.33100  0.25000  1.0000
  Mg  Mg2       1.0  0.25000  0.16900  0.25000  1.0000
  Mg  Mg3       1.0  0.66900  0.75000  0.25000  1.0000
  Mg  Mg4       1.0  0.33100  0.25000  0.75000  1.0000
  Mg  Mg5       1.0  0.75000  0.83100  0.75000  1.0000
  Mg  Mg6       1.0  0.16900  0.66900  0.75000  1.0000
