data_image0
_chemical_formula_structural       Cs4O12S4
_chemical_formula_sum              "Cs4 O12 S4"
_cell_length_a       6.25787
_cell_length_b       6.25788
_cell_length_c       11.3913
_cell_angle_alpha    90
_cell_angle_beta     90
_cell_angle_gamma    120

_space_group_name_H-M_alt    "P 1"
_space_group_IT_number       1

loop_
  _space_group_symop_operation_xyz
  'x, y, z'

loop_
  _atom_site_type_symbol
  _atom_site_label
  _atom_site_symmetry_multiplicity
  _atom_site_fract_x
  _atom_site_fract_y
  _atom_site_fract_z
  _atom_site_occupancy
  Cs  Cs1       1.0  0.66700  0.33300  0.24000  1.0000
  Cs  Cs2       1.0  0.00000  0.00000  0.49700  1.0000
  Cs  Cs3       1.0  0.33300  0.66700  0.74000  1.0000
  Cs  Cs4       1.0  0.00000  0.00000  0.99700  1.0000
  O   O1        1.0  0.20200  0.40300  0.18800  1.0000
  O   O2        1.0  0.20200  0.79800  0.18800  1.0000
  O   O3        1.0  0.59700  0.79800  0.18800  1.0000
  O   O4        1.0  0.46500  0.92900  0.44000  1.0000
  O   O5        1.0  0.07070  0.53500  0.44000  1.0000
  O   O6        1.0  0.46500  0.53500  0.44000  1.0000
  O   O7        1.0  0.79800  0.59700  0.68800  1.0000
  O   O8        1.0  0.40300  0.20200  0.68800  1.0000
  O   O9        1.0  0.79800  0.20200  0.68800  1.0000
  O   O10       1.0  0.53500  0.07070  0.94000  1.0000
  O   O11       1.0  0.53500  0.46500  0.94000  1.0000
  O   O12       1.0  0.92900  0.46500  0.94000  1.0000
  S   S1        1.0  0.33300  0.66700  0.21700  1.0000
  S   S2        1.0  0.33300  0.66700  0.40800  1.0000
  S   S3        1.0  0.66700  0.33300  0.71700  1.0000
  S   S4        1.0  0.66700  0.33300  0.90800  1.0000
