data_image0
_chemical_formula_structural       Cs8Ga4Se10
_chemical_formula_sum              "Cs8 Ga4 Se10"
_cell_length_a       8.13547
_cell_length_b       9.5308
_cell_length_c       11.4615
_cell_angle_alpha    103.921
_cell_angle_beta     94.0926
_cell_angle_gamma    81.0443

_space_group_name_H-M_alt    "P 1"
_space_group_IT_number       1

loop_
  _space_group_symop_operation_xyz
  'x, y, z'

loop_
  _atom_site_type_symbol
  _atom_site_label
  _atom_site_symmetry_multiplicity
  _atom_site_fract_x
  _atom_site_fract_y
  _atom_site_fract_z
  _atom_site_occupancy
  Cs  Cs1       1.0  0.57900  0.67500  0.08960  1.0000
  Cs  Cs2       1.0  0.19500  0.07990  0.13300  1.0000
  Cs  Cs3       1.0  0.05820  0.60500  0.24800  1.0000
  Cs  Cs4       1.0  0.42400  0.28900  0.49900  1.0000
  Cs  Cs5       1.0  0.57600  0.71100  0.50100  1.0000
  Cs  Cs6       1.0  0.94200  0.39500  0.75200  1.0000
  Cs  Cs7       1.0  0.80500  0.92000  0.86700  1.0000
  Cs  Cs8       1.0  0.42100  0.32500  0.91000  1.0000
  Ga  Ga1       1.0  0.72500  0.27900  0.21100  1.0000
  Ga  Ga2       1.0  0.90600  0.08670  0.40100  1.0000
  Ga  Ga3       1.0  0.09440  0.91300  0.59900  1.0000
  Ga  Ga4       1.0  0.27500  0.72100  0.78900  1.0000
  Se  Se1       1.0  0.84700  0.30900  0.03500  1.0000
  Se  Se2       1.0  0.73600  0.01280  0.21900  1.0000
  Se  Se3       1.0  0.44900  0.41100  0.23500  1.0000
  Se  Se4       1.0  0.90300  0.34100  0.39900  1.0000
  Se  Se5       1.0  0.19400  0.95800  0.41400  1.0000
  Se  Se6       1.0  0.80600  0.04220  0.58600  1.0000
  Se  Se7       1.0  0.09670  0.65900  0.60100  1.0000
  Se  Se8       1.0  0.55100  0.58900  0.76500  1.0000
  Se  Se9       1.0  0.26400  0.98700  0.78100  1.0000
  Se  Se10      1.0  0.15300  0.69100  0.96500  1.0000
