data_image0
_chemical_formula_structural       F14Rb6Si2
_chemical_formula_sum              "F14 Rb6 Si2"
_cell_length_a       7.66062
_cell_length_b       7.66062
_cell_length_c       5.67496
_cell_angle_alpha    90
_cell_angle_beta     90
_cell_angle_gamma    90

_space_group_name_H-M_alt    "P 1"
_space_group_IT_number       1

loop_
  _space_group_symop_operation_xyz
  'x, y, z'

loop_
  _atom_site_type_symbol
  _atom_site_label
  _atom_site_symmetry_multiplicity
  _atom_site_fract_x
  _atom_site_fract_y
  _atom_site_fract_z
  _atom_site_occupancy
  F   F1        1.0  0.65700  0.15700  0.00000  1.0000
  F   F2        1.0  0.15700  0.34300  0.00000  1.0000
  F   F3        1.0  0.84300  0.65700  0.00000  1.0000
  F   F4        1.0  0.34300  0.84300  0.00000  1.0000
  F   F5        1.0  0.38900  0.11100  0.21400  1.0000
  F   F6        1.0  0.88900  0.38900  0.21400  1.0000
  F   F7        1.0  0.11100  0.61100  0.21400  1.0000
  F   F8        1.0  0.61100  0.88900  0.21400  1.0000
  F   F9        1.0  0.00000  0.00000  0.50000  1.0000
  F   F10       1.0  0.50000  0.50000  0.50000  1.0000
  F   F11       1.0  0.38900  0.11100  0.78600  1.0000
  F   F12       1.0  0.88900  0.38900  0.78600  1.0000
  F   F13       1.0  0.11100  0.61100  0.78600  1.0000
  F   F14       1.0  0.61100  0.88900  0.78600  1.0000
  Rb  Rb1       1.0  0.00000  0.00000  0.00000  1.0000
  Rb  Rb2       1.0  0.50000  0.50000  0.00000  1.0000
  Rb  Rb3       1.0  0.69200  0.19200  0.50000  1.0000
  Rb  Rb4       1.0  0.19200  0.30800  0.50000  1.0000
  Rb  Rb5       1.0  0.80800  0.69200  0.50000  1.0000
  Rb  Rb6       1.0  0.30800  0.80800  0.50000  1.0000
  Si  Si1       1.0  0.50000  0.00000  0.00000  1.0000
  Si  Si2       1.0  0.00000  0.50000  0.00000  1.0000
