data_image0
_chemical_formula_structural       O14Rb3V5
_chemical_formula_sum              "O14 Rb3 V5"
_cell_length_a       8.71224
_cell_length_b       8.71227
_cell_length_c       5.15289
_cell_angle_alpha    89.9996
_cell_angle_beta     90.0002
_cell_angle_gamma    120

_space_group_name_H-M_alt    "P 1"
_space_group_IT_number       1

loop_
  _space_group_symop_operation_xyz
  'x, y, z'

loop_
  _atom_site_type_symbol
  _atom_site_label
  _atom_site_symmetry_multiplicity
  _atom_site_fract_x
  _atom_site_fract_y
  _atom_site_fract_z
  _atom_site_occupancy
  O   O1        1.0  0.46000  0.29300  0.53800  1.0000
  O   O2        1.0  0.54000  0.83200  0.53800  1.0000
  O   O3        1.0  0.70700  0.16800  0.53800  1.0000
  O   O4        1.0  0.29300  0.46000  0.53800  1.0000
  O   O5        1.0  0.83200  0.54000  0.53800  1.0000
  O   O6        1.0  0.16800  0.70700  0.53800  1.0000
  O   O7        1.0  0.00000  0.17000  0.61400  1.0000
  O   O8        1.0  0.17000  0.00000  0.61400  1.0000
  O   O9        1.0  0.83000  0.83000  0.61400  1.0000
  O   O10       1.0  0.66700  0.33300  0.97400  1.0000
  O   O11       1.0  0.33300  0.66700  0.97400  1.0000
  O   O12       1.0  0.25600  0.25600  0.98600  1.0000
  O   O13       1.0  0.74400  0.00000  0.98600  1.0000
  O   O14       1.0  1.00000  0.74400  0.98600  1.0000
  Rb  Rb1       1.0  0.00000  0.38600  0.17300  1.0000
  Rb  Rb2       1.0  0.38600  0.00000  0.17300  1.0000
  Rb  Rb3       1.0  0.61400  0.61400  0.17300  1.0000
  V   V1        1.0  0.33300  0.66700  0.65400  1.0000
  V   V2        1.0  0.66700  0.33300  0.65400  1.0000
  V   V3        1.0  0.77000  0.00000  0.67200  1.0000
  V   V4        1.0  0.23000  0.23000  0.67200  1.0000
  V   V5        1.0  0.00000  0.77000  0.67200  1.0000
