data_image0
_chemical_formula_structural       F14K6Si2
_chemical_formula_sum              "F14 K6 Si2"
_cell_length_a       7.41828
_cell_length_b       7.41828
_cell_length_c       5.40925
_cell_angle_alpha    90
_cell_angle_beta     90
_cell_angle_gamma    90

_space_group_name_H-M_alt    "P 1"
_space_group_IT_number       1

loop_
  _space_group_symop_operation_xyz
  'x, y, z'

loop_
  _atom_site_type_symbol
  _atom_site_label
  _atom_site_symmetry_multiplicity
  _atom_site_fract_x
  _atom_site_fract_y
  _atom_site_fract_z
  _atom_site_occupancy
  F   F1        1.0  0.33800  0.16200  0.00000  1.0000
  F   F2        1.0  0.83800  0.33800  0.00000  1.0000
  F   F3        1.0  0.16200  0.66200  0.00000  1.0000
  F   F4        1.0  0.66200  0.83800  0.00000  1.0000
  F   F5        1.0  0.61300  0.11300  0.22500  1.0000
  F   F6        1.0  0.11300  0.38700  0.22500  1.0000
  F   F7        1.0  0.88700  0.61300  0.22500  1.0000
  F   F8        1.0  0.38700  0.88700  0.22500  1.0000
  F   F9        1.0  0.00000  0.00000  0.50000  1.0000
  F   F10       1.0  0.50000  0.50000  0.50000  1.0000
  F   F11       1.0  0.61300  0.11300  0.77500  1.0000
  F   F12       1.0  0.11300  0.38700  0.77500  1.0000
  F   F13       1.0  0.88700  0.61300  0.77500  1.0000
  F   F14       1.0  0.38700  0.88700  0.77500  1.0000
  K   K1        1.0  0.00000  0.00000  0.00000  1.0000
  K   K2        1.0  0.50000  0.50000  0.00000  1.0000
  K   K3        1.0  0.31000  0.19000  0.50000  1.0000
  K   K4        1.0  0.81000  0.31000  0.50000  1.0000
  K   K5        1.0  0.19000  0.69000  0.50000  1.0000
  K   K6        1.0  0.69000  0.81000  0.50000  1.0000
  Si  Si1       1.0  0.50000  0.00000  0.00000  1.0000
  Si  Si2       1.0  0.00000  0.50000  0.00000  1.0000
