data_image0
_chemical_formula_structural       Si10Ta4V8
_chemical_formula_sum              "Si10 Ta4 V8"
_cell_length_a       5.13853
_cell_length_b       7.53463
_cell_length_c       9.36035
_cell_angle_alpha    113.733
_cell_angle_beta     105.931
_cell_angle_gamma    90

_space_group_name_H-M_alt    "P 1"
_space_group_IT_number       1

loop_
  _space_group_symop_operation_xyz
  'x, y, z'

loop_
  _atom_site_type_symbol
  _atom_site_label
  _atom_site_symmetry_multiplicity
  _atom_site_fract_x
  _atom_site_fract_y
  _atom_site_fract_z
  _atom_site_occupancy
  Si  Si1       1.0  0.25000  0.00000  0.00000  1.0000
  Si  Si2       1.0  0.75000  0.00000  0.00000  1.0000
  Si  Si3       1.0  0.05980  0.46600  0.12000  1.0000
  Si  Si4       1.0  0.56000  0.65400  0.12000  1.0000
  Si  Si5       1.0  0.20900  0.01340  0.41700  1.0000
  Si  Si6       1.0  0.70900  0.40400  0.41700  1.0000
  Si  Si7       1.0  0.29100  0.59600  0.58300  1.0000
  Si  Si8       1.0  0.79100  0.98700  0.58300  1.0000
  Si  Si9       1.0  0.44000  0.34600  0.88000  1.0000
  Si  Si10      1.0  0.94000  0.53400  0.88000  1.0000
  Ta  Ta1       1.0  0.43900  0.68900  0.37700  1.0000
  Ta  Ta2       1.0  0.93900  0.68900  0.37700  1.0000
  Ta  Ta3       1.0  0.06140  0.31100  0.62300  1.0000
  Ta  Ta4       1.0  0.56100  0.31100  0.62300  1.0000
  V   V1        1.0  0.56500  0.31700  0.12900  1.0000
  V   V2        1.0  0.06470  0.81300  0.12900  1.0000
  V   V3        1.0  0.64400  0.02580  0.28800  1.0000
  V   V4        1.0  0.14400  0.26200  0.28800  1.0000
  V   V5        1.0  0.85600  0.73800  0.71200  1.0000
  V   V6        1.0  0.35600  0.97400  0.71200  1.0000
  V   V7        1.0  0.93500  0.18700  0.87100  1.0000
  V   V8        1.0  0.43500  0.68300  0.87100  1.0000
