data_image0
_chemical_formula_structural       Al4Fe6
_chemical_formula_sum              "Al4 Fe6"
_cell_length_a       6.02882
_cell_length_b       6.02882
_cell_length_c       5.54989
_cell_angle_alpha    122.898
_cell_angle_beta     57.1018
_cell_angle_gamma    120

_space_group_name_H-M_alt    "P 1"
_space_group_IT_number       1

loop_
  _space_group_symop_operation_xyz
  'x, y, z'

loop_
  _atom_site_type_symbol
  _atom_site_label
  _atom_site_symmetry_multiplicity
  _atom_site_fract_x
  _atom_site_fract_y
  _atom_site_fract_z
  _atom_site_occupancy
  Al  Al1       1.0  0.59500  0.40500  0.21400  1.0000
  Al  Al2       1.0  0.90500  0.09520  0.28600  1.0000
  Al  Al3       1.0  0.09520  0.90500  0.71400  1.0000
  Al  Al4       1.0  0.40500  0.59500  0.78600  1.0000
  Fe  Fe1       1.0  0.48100  0.75000  0.25000  1.0000
  Fe  Fe2       1.0  0.01930  0.51900  0.25000  1.0000
  Fe  Fe3       1.0  0.25000  0.98100  0.25000  1.0000
  Fe  Fe4       1.0  0.98100  0.48100  0.75000  1.0000
  Fe  Fe5       1.0  0.51900  0.25000  0.75000  1.0000
  Fe  Fe6       1.0  0.75000  0.01930  0.75000  1.0000
