data_image0
_chemical_formula_structural       Cr4K4O14
_chemical_formula_sum              "Cr4 K4 O14"
_cell_length_a       7.24385
_cell_length_b       7.35836
_cell_length_c       7.38676
_cell_angle_alpha    91.235
_cell_angle_beta     119.362
_cell_angle_gamma    90

_space_group_name_H-M_alt    "P 1"
_space_group_IT_number       1

loop_
  _space_group_symop_operation_xyz
  'x, y, z'

loop_
  _atom_site_type_symbol
  _atom_site_label
  _atom_site_symmetry_multiplicity
  _atom_site_fract_x
  _atom_site_fract_y
  _atom_site_fract_z
  _atom_site_occupancy
  Cr  Cr1       1.0  0.43000  0.86600  0.20700  1.0000
  Cr  Cr2       1.0  0.77700  0.36600  0.20700  1.0000
  Cr  Cr3       1.0  0.22300  0.63400  0.79300  1.0000
  Cr  Cr4       1.0  0.57000  0.13400  0.79300  1.0000
  K   K1        1.0  0.29400  0.35600  0.29000  1.0000
  K   K2        1.0  0.99600  0.85600  0.29000  1.0000
  K   K3        1.0  0.70600  0.64400  0.71000  1.0000
  K   K4        1.0  0.00447  0.14400  0.71000  1.0000
  O   O1        1.0  0.55400  0.25000  0.00000  1.0000
  O   O2        1.0  0.44600  0.75000  0.00000  1.0000
  O   O3        1.0  0.86800  0.52100  0.11500  1.0000
  O   O4        1.0  0.24700  0.02140  0.11500  1.0000
  O   O5        1.0  0.36300  0.72000  0.32800  1.0000
  O   O6        1.0  0.96500  0.22000  0.32800  1.0000
  O   O7        1.0  0.66000  0.95500  0.36500  1.0000
  O   O8        1.0  0.70500  0.45500  0.36500  1.0000
  O   O9        1.0  0.34000  0.04510  0.63500  1.0000
  O   O10       1.0  0.29500  0.54500  0.63500  1.0000
  O   O11       1.0  0.03470  0.78000  0.67200  1.0000
  O   O12       1.0  0.63700  0.28000  0.67200  1.0000
  O   O13       1.0  0.13200  0.47900  0.88500  1.0000
  O   O14       1.0  0.75300  0.97900  0.88500  1.0000
