data_image0
_chemical_formula_structural       Bi6O14Sb2
_chemical_formula_sum              "Bi6 O14 Sb2"
_cell_length_a       6.59396
_cell_length_b       6.92169
_cell_length_c       7.63957
_cell_angle_alpha    73.3816
_cell_angle_beta     89.4291
_cell_angle_gamma    77.2674

_space_group_name_H-M_alt    "P 1"
_space_group_IT_number       1

loop_
  _space_group_symop_operation_xyz
  'x, y, z'

loop_
  _atom_site_type_symbol
  _atom_site_label
  _atom_site_symmetry_multiplicity
  _atom_site_fract_x
  _atom_site_fract_y
  _atom_site_fract_z
  _atom_site_occupancy
  Bi  Bi1       1.0  0.73600  0.51500  0.12100  1.0000
  Bi  Bi2       1.0  0.47600  0.00856  0.25500  1.0000
  Bi  Bi3       1.0  0.25700  0.52700  0.37200  1.0000
  Bi  Bi4       1.0  0.74300  0.47300  0.62800  1.0000
  Bi  Bi5       1.0  0.52400  0.99100  0.74500  1.0000
  Bi  Bi6       1.0  0.26400  0.48500  0.87900  1.0000
  O   O1        1.0  0.10400  0.69500  0.03870  1.0000
  O   O2        1.0  0.72000  0.94700  0.05390  1.0000
  O   O3        1.0  0.46600  0.37300  0.18100  1.0000
  O   O4        1.0  0.09530  0.92700  0.26900  1.0000
  O   O5        1.0  0.53100  0.65600  0.35900  1.0000
  O   O6        1.0  0.89400  0.30400  0.38200  1.0000
  O   O7        1.0  0.72300  0.93500  0.48000  1.0000
  O   O8        1.0  0.27700  0.06520  0.52000  1.0000
  O   O9        1.0  0.10600  0.69600  0.61800  1.0000
  O   O10       1.0  0.46900  0.34400  0.64100  1.0000
  O   O11       1.0  0.90500  0.07300  0.73100  1.0000
  O   O12       1.0  0.53400  0.62700  0.81900  1.0000
  O   O13       1.0  0.28000  0.05250  0.94600  1.0000
  O   O14       1.0  0.89600  0.30500  0.96100  1.0000
  Sb  Sb1       1.0  0.00000  0.00000  0.00000  1.0000
  Sb  Sb2       1.0  0.00000  0.00000  0.50000  1.0000
