data_image0
_chemical_formula_structural       Ac4Ni6
_chemical_formula_sum              "Ac4 Ni6"
_cell_length_a       6.78342
_cell_length_b       6.78342
_cell_length_c       7.43027
_cell_angle_alpha    117.16
_cell_angle_beta     62.8403
_cell_angle_gamma    120

_space_group_name_H-M_alt    "P 1"
_space_group_IT_number       1

loop_
  _space_group_symop_operation_xyz
  'x, y, z'

loop_
  _atom_site_type_symbol
  _atom_site_label
  _atom_site_symmetry_multiplicity
  _atom_site_fract_x
  _atom_site_fract_y
  _atom_site_fract_z
  _atom_site_occupancy
  Ac  Ac1       1.0  0.60900  0.39100  0.17300  1.0000
  Ac  Ac2       1.0  0.89100  0.10900  0.32700  1.0000
  Ac  Ac3       1.0  0.10900  0.89100  0.67300  1.0000
  Ac  Ac4       1.0  0.39100  0.60900  0.82700  1.0000
  Ni  Ni1       1.0  0.25000  0.95100  0.25000  1.0000
  Ni  Ni2       1.0  0.45100  0.75000  0.25000  1.0000
  Ni  Ni3       1.0  0.04910  0.54900  0.25000  1.0000
  Ni  Ni4       1.0  0.75000  0.04910  0.75000  1.0000
  Ni  Ni5       1.0  0.54900  0.25000  0.75000  1.0000
  Ni  Ni6       1.0  0.95100  0.45100  0.75000  1.0000
