data_image0
_chemical_formula_structural       BaCuK2N6O12
_chemical_formula_sum              "Ba1 Cu1 K2 N6 O12"
_cell_length_a       7.39206
_cell_length_b       7.39206
_cell_length_c       7.55032
_cell_angle_alpha    119.201
_cell_angle_beta     119.201
_cell_angle_gamma    90.193

_space_group_name_H-M_alt    "P 1"
_space_group_IT_number       1

loop_
  _space_group_symop_operation_xyz
  'x, y, z'

loop_
  _atom_site_type_symbol
  _atom_site_label
  _atom_site_symmetry_multiplicity
  _atom_site_fract_x
  _atom_site_fract_y
  _atom_site_fract_z
  _atom_site_occupancy
  Ba  Ba1       1.0  0.50000  0.50000  0.00000  1.0000
  Cu  Cu1       1.0  0.00000  0.00000  0.00000  1.0000
  K   K1        1.0  0.75000  0.25000  0.50000  1.0000
  K   K2        1.0  0.25000  0.75000  0.50000  1.0000
  N   N1        1.0  0.80800  0.19200  0.00000  1.0000
  N   N2        1.0  0.19200  0.19200  0.00000  1.0000
  N   N3        1.0  0.80800  0.80800  0.00000  1.0000
  N   N4        1.0  0.19200  0.80800  0.00000  1.0000
  N   N5        1.0  0.20500  0.20500  0.40900  1.0000
  N   N6        1.0  0.79500  0.79500  0.59100  1.0000
  O   O1        1.0  0.64300  0.14800  0.00000  1.0000
  O   O2        1.0  0.85200  0.35700  0.00000  1.0000
  O   O3        1.0  0.14800  0.64300  0.00000  1.0000
  O   O4        1.0  0.35700  0.85200  0.00000  1.0000
  O   O5        1.0  0.35200  0.35200  0.19900  1.0000
  O   O6        1.0  0.84700  0.84700  0.19900  1.0000
  O   O7        1.0  0.83800  0.63100  0.46900  1.0000
  O   O8        1.0  0.63100  0.83800  0.46900  1.0000
  O   O9        1.0  0.36900  0.16200  0.53100  1.0000
  O   O10       1.0  0.16200  0.36900  0.53100  1.0000
  O   O11       1.0  0.15300  0.15300  0.80100  1.0000
  O   O12       1.0  0.64800  0.64800  0.80100  1.0000
