data_image0
_chemical_formula_structural       Al4Ir6
_chemical_formula_sum              "Al4 Ir6"
_cell_length_a       6.48738
_cell_length_b       6.48738
_cell_length_c       5.63435
_cell_angle_alpha    125.149
_cell_angle_beta     54.8514
_cell_angle_gamma    120

_space_group_name_H-M_alt    "P 1"
_space_group_IT_number       1

loop_
  _space_group_symop_operation_xyz
  'x, y, z'

loop_
  _atom_site_type_symbol
  _atom_site_label
  _atom_site_symmetry_multiplicity
  _atom_site_fract_x
  _atom_site_fract_y
  _atom_site_fract_z
  _atom_site_occupancy
  Al  Al1       1.0  0.60300  0.39700  0.19200  1.0000
  Al  Al2       1.0  0.89700  0.10300  0.30800  1.0000
  Al  Al3       1.0  0.10300  0.89700  0.69200  1.0000
  Al  Al4       1.0  0.39700  0.60300  0.80800  1.0000
  Ir  Ir1       1.0  0.51500  0.75000  0.25000  1.0000
  Ir  Ir2       1.0  0.98500  0.48500  0.25000  1.0000
  Ir  Ir3       1.0  0.25000  0.01490  0.25000  1.0000
  Ir  Ir4       1.0  0.75000  0.98500  0.75000  1.0000
  Ir  Ir5       1.0  0.01490  0.51500  0.75000  1.0000
  Ir  Ir6       1.0  0.48500  0.25000  0.75000  1.0000
