data_image0
_chemical_formula_structural       Al4Bi6
_chemical_formula_sum              "Al4 Bi6"
_cell_length_a       7.39396
_cell_length_b       7.39395
_cell_length_c       7.49555
_cell_angle_alpha    119.553
_cell_angle_beta     60.4474
_cell_angle_gamma    120

_space_group_name_H-M_alt    "P 1"
_space_group_IT_number       1

loop_
  _space_group_symop_operation_xyz
  'x, y, z'

loop_
  _atom_site_type_symbol
  _atom_site_label
  _atom_site_symmetry_multiplicity
  _atom_site_fract_x
  _atom_site_fract_y
  _atom_site_fract_z
  _atom_site_occupancy
  Al  Al1       1.0  0.64700  0.35300  0.05990  1.0000
  Al  Al2       1.0  0.85300  0.14700  0.44000  1.0000
  Al  Al3       1.0  0.14700  0.85300  0.56000  1.0000
  Al  Al4       1.0  0.35300  0.64700  0.94000  1.0000
  Bi  Bi1       1.0  0.94500  0.44500  0.25000  1.0000
  Bi  Bi2       1.0  0.55500  0.75000  0.25000  1.0000
  Bi  Bi3       1.0  0.25000  0.05470  0.25000  1.0000
  Bi  Bi4       1.0  0.75000  0.94500  0.75000  1.0000
  Bi  Bi5       1.0  0.44500  0.25000  0.75000  1.0000
  Bi  Bi6       1.0  0.05470  0.55500  0.75000  1.0000
