data_image0
_chemical_formula_structural       Al4Pb6
_chemical_formula_sum              "Al4 Pb6"
_cell_length_a       7.17905
_cell_length_b       7.17905
_cell_length_c       7.22797
_cell_angle_alpha    119.776
_cell_angle_beta     60.2236
_cell_angle_gamma    120

_space_group_name_H-M_alt    "P 1"
_space_group_IT_number       1

loop_
  _space_group_symop_operation_xyz
  'x, y, z'

loop_
  _atom_site_type_symbol
  _atom_site_label
  _atom_site_symmetry_multiplicity
  _atom_site_fract_x
  _atom_site_fract_y
  _atom_site_fract_z
  _atom_site_occupancy
  Al  Al1       1.0  0.33100  0.66900  0.00727  1.0000
  Al  Al2       1.0  0.16900  0.83100  0.49300  1.0000
  Al  Al3       1.0  0.83100  0.16900  0.50700  1.0000
  Al  Al4       1.0  0.66900  0.33100  0.99300  1.0000
  Pb  Pb1       1.0  0.58900  0.75000  0.25000  1.0000
  Pb  Pb2       1.0  0.91100  0.41100  0.25000  1.0000
  Pb  Pb3       1.0  0.25000  0.08910  0.25000  1.0000
  Pb  Pb4       1.0  0.75000  0.91100  0.75000  1.0000
  Pb  Pb5       1.0  0.08910  0.58900  0.75000  1.0000
  Pb  Pb6       1.0  0.41100  0.25000  0.75000  1.0000
