data_image0
_chemical_formula_structural       Al4Tl6
_chemical_formula_sum              "Al4 Tl6"
_cell_length_a       7.00198
_cell_length_b       7.00198
_cell_length_c       7.45191
_cell_angle_alpha    118.022
_cell_angle_beta     61.978
_cell_angle_gamma    120

_space_group_name_H-M_alt    "P 1"
_space_group_IT_number       1

loop_
  _space_group_symop_operation_xyz
  'x, y, z'

loop_
  _atom_site_type_symbol
  _atom_site_label
  _atom_site_symmetry_multiplicity
  _atom_site_fract_x
  _atom_site_fract_y
  _atom_site_fract_z
  _atom_site_occupancy
  Al  Al1       1.0  0.32000  0.68000  0.04040  1.0000
  Al  Al2       1.0  0.18000  0.82000  0.46000  1.0000
  Al  Al3       1.0  0.82000  0.18000  0.54000  1.0000
  Al  Al4       1.0  0.68000  0.32000  0.96000  1.0000
  Tl  Tl1       1.0  0.25000  0.14400  0.25000  1.0000
  Tl  Tl2       1.0  0.85600  0.35600  0.25000  1.0000
  Tl  Tl3       1.0  0.64400  0.75000  0.25000  1.0000
  Tl  Tl4       1.0  0.35600  0.25000  0.75000  1.0000
  Tl  Tl5       1.0  0.14400  0.64400  0.75000  1.0000
  Tl  Tl6       1.0  0.75000  0.85600  0.75000  1.0000
