data_image0
_chemical_formula_structural       C8Ca2N12
_chemical_formula_sum              "C8 Ca2 N12"
_cell_length_a       6.01531
_cell_length_b       6.91273
_cell_length_c       7.73781
_cell_angle_alpha    99.0912
_cell_angle_beta     90
_cell_angle_gamma    115.791

_space_group_name_H-M_alt    "P 1"
_space_group_IT_number       1

loop_
  _space_group_symop_operation_xyz
  'x, y, z'

loop_
  _atom_site_type_symbol
  _atom_site_label
  _atom_site_symmetry_multiplicity
  _atom_site_fract_x
  _atom_site_fract_y
  _atom_site_fract_z
  _atom_site_occupancy
  C   C1        1.0  0.53400  0.83100  0.09090  1.0000
  C   C2        1.0  0.24300  0.54700  0.19400  1.0000
  C   C3        1.0  0.69600  0.45300  0.30600  1.0000
  C   C4        1.0  0.70300  0.16900  0.40900  1.0000
  C   C5        1.0  0.29700  0.83100  0.59100  1.0000
  C   C6        1.0  0.30400  0.54700  0.69400  1.0000
  C   C7        1.0  0.75700  0.45300  0.80600  1.0000
  C   C8        1.0  0.46600  0.16900  0.90900  1.0000
  Ca  Ca1       1.0  0.09210  0.00000  0.25000  1.0000
  Ca  Ca2       1.0  0.90800  0.00000  0.75000  1.0000
  N   N1        1.0  0.72700  0.92700  0.03440  1.0000
  N   N2        1.0  0.32300  0.74300  0.15700  1.0000
  N   N3        1.0  0.16100  0.37300  0.23300  1.0000
  N   N4        1.0  0.78900  0.62700  0.26700  1.0000
  N   N5        1.0  0.58000  0.25700  0.34300  1.0000
  N   N6        1.0  0.80000  0.07270  0.46600  1.0000
  N   N7        1.0  0.20000  0.92700  0.53400  1.0000
  N   N8        1.0  0.42000  0.74300  0.65700  1.0000
  N   N9        1.0  0.21100  0.37300  0.73300  1.0000
  N   N10       1.0  0.83900  0.62700  0.76700  1.0000
  N   N11       1.0  0.67700  0.25700  0.84300  1.0000
  N   N12       1.0  0.27300  0.07270  0.96600  1.0000
