data_image0
_chemical_formula_structural       Al4Nb6
_chemical_formula_sum              "Al4 Nb6"
_cell_length_a       5.55986
_cell_length_b       5.55986
_cell_length_c       7.46734
_cell_angle_alpha    111.856
_cell_angle_beta     68.1438
_cell_angle_gamma    120

_space_group_name_H-M_alt    "P 1"
_space_group_IT_number       1

loop_
  _space_group_symop_operation_xyz
  'x, y, z'

loop_
  _atom_site_type_symbol
  _atom_site_label
  _atom_site_symmetry_multiplicity
  _atom_site_fract_x
  _atom_site_fract_y
  _atom_site_fract_z
  _atom_site_occupancy
  Al  Al1       1.0  0.30900  0.69100  0.07440  1.0000
  Al  Al2       1.0  0.19100  0.80900  0.42600  1.0000
  Al  Al3       1.0  0.80900  0.19100  0.57400  1.0000
  Al  Al4       1.0  0.69100  0.30900  0.92600  1.0000
  Nb  Nb1       1.0  0.74900  0.24900  0.25000  1.0000
  Nb  Nb2       1.0  0.25000  0.25100  0.25000  1.0000
  Nb  Nb3       1.0  0.75100  0.75000  0.25000  1.0000
  Nb  Nb4       1.0  0.24900  0.25000  0.75000  1.0000
  Nb  Nb5       1.0  0.75000  0.74900  0.75000  1.0000
  Nb  Nb6       1.0  0.25100  0.75100  0.75000  1.0000
