data_image0
_chemical_formula_structural       Mo4Ni12P6
_chemical_formula_sum              "Mo4 Ni12 P6"
_cell_length_a       12.8837
_cell_length_b       3.53013
_cell_length_c       5.68645
_cell_angle_alpha    90
_cell_angle_beta     90
_cell_angle_gamma    90

_space_group_name_H-M_alt    "P 1"
_space_group_IT_number       1

loop_
  _space_group_symop_operation_xyz
  'x, y, z'

loop_
  _atom_site_type_symbol
  _atom_site_label
  _atom_site_symmetry_multiplicity
  _atom_site_fract_x
  _atom_site_fract_y
  _atom_site_fract_z
  _atom_site_occupancy
  Mo  Mo1       1.0  0.08230  0.25000  0.38300  1.0000
  Mo  Mo2       1.0  0.41800  0.25000  0.38300  1.0000
  Mo  Mo3       1.0  0.58200  0.75000  0.61700  1.0000
  Mo  Mo4       1.0  0.91800  0.75000  0.61700  1.0000
  Ni  Ni1       1.0  0.15100  0.75000  0.04790  1.0000
  Ni  Ni2       1.0  0.34900  0.75000  0.04790  1.0000
  Ni  Ni3       1.0  0.54000  0.75000  0.13700  1.0000
  Ni  Ni4       1.0  0.96000  0.75000  0.13700  1.0000
  Ni  Ni5       1.0  0.75000  0.75000  0.23000  1.0000
  Ni  Ni6       1.0  0.25000  0.75000  0.43800  1.0000
  Ni  Ni7       1.0  0.75000  0.25000  0.56200  1.0000
  Ni  Ni8       1.0  0.25000  0.25000  0.77000  1.0000
  Ni  Ni9       1.0  0.03980  0.25000  0.86300  1.0000
  Ni  Ni10      1.0  0.46000  0.25000  0.86300  1.0000
  Ni  Ni11      1.0  0.65100  0.25000  0.95200  1.0000
  Ni  Ni12      1.0  0.84900  0.25000  0.95200  1.0000
  P   P1        1.0  0.25000  0.25000  0.17300  1.0000
  P   P2        1.0  0.61200  0.25000  0.32500  1.0000
  P   P3        1.0  0.88800  0.25000  0.32500  1.0000
  P   P4        1.0  0.11200  0.75000  0.67500  1.0000
  P   P5        1.0  0.38800  0.75000  0.67500  1.0000
  P   P6        1.0  0.75000  0.75000  0.82700  1.0000
