data_image0
_chemical_formula_structural       Al4Ta6
_chemical_formula_sum              "Al4 Ta6"
_cell_length_a       5.58698
_cell_length_b       5.58698
_cell_length_c       7.38604
_cell_angle_alpha    112.223
_cell_angle_beta     67.777
_cell_angle_gamma    120

_space_group_name_H-M_alt    "P 1"
_space_group_IT_number       1

loop_
  _space_group_symop_operation_xyz
  'x, y, z'

loop_
  _atom_site_type_symbol
  _atom_site_label
  _atom_site_symmetry_multiplicity
  _atom_site_fract_x
  _atom_site_fract_y
  _atom_site_fract_z
  _atom_site_occupancy
  Al  Al1       1.0  0.30800  0.69200  0.07460  1.0000
  Al  Al2       1.0  0.19200  0.80800  0.42500  1.0000
  Al  Al3       1.0  0.80800  0.19200  0.57500  1.0000
  Al  Al4       1.0  0.69200  0.30800  0.92500  1.0000
  Ta  Ta1       1.0  0.25000  0.25000  0.25000  1.0000
  Ta  Ta2       1.0  0.75000  0.25000  0.25000  1.0000
  Ta  Ta3       1.0  0.75000  0.75000  0.25000  1.0000
  Ta  Ta4       1.0  0.25000  0.25000  0.75000  1.0000
  Ta  Ta5       1.0  0.25000  0.75000  0.75000  1.0000
  Ta  Ta6       1.0  0.75000  0.75000  0.75000  1.0000
