data_image0
_chemical_formula_structural       Er2O12Rh2Sr6
_chemical_formula_sum              "Er2 O12 Rh2 Sr6"
_cell_length_a       6.76525
_cell_length_b       6.76525
_cell_length_c       6.76525
_cell_angle_alpha    92.0728
_cell_angle_beta     92.0728
_cell_angle_gamma    92.0728

_space_group_name_H-M_alt    "P 1"
_space_group_IT_number       1

loop_
  _space_group_symop_operation_xyz
  'x, y, z'

loop_
  _atom_site_type_symbol
  _atom_site_label
  _atom_site_symmetry_multiplicity
  _atom_site_fract_x
  _atom_site_fract_y
  _atom_site_fract_z
  _atom_site_occupancy
  Er  Er1       1.0  0.25000  0.25000  0.25000  1.0000
  Er  Er2       1.0  0.75000  0.75000  0.75000  1.0000
  O   O1        1.0  0.70700  0.90800  0.04300  1.0000
  O   O2        1.0  0.95700  0.29300  0.09180  1.0000
  O   O3        1.0  0.54300  0.40800  0.20700  1.0000
  O   O4        1.0  0.09180  0.95700  0.29300  1.0000
  O   O5        1.0  0.20700  0.54300  0.40800  1.0000
  O   O6        1.0  0.59200  0.79300  0.45700  1.0000
  O   O7        1.0  0.40800  0.20700  0.54300  1.0000
  O   O8        1.0  0.79300  0.45700  0.59200  1.0000
  O   O9        1.0  0.90800  0.04290  0.70700  1.0000
  O   O10       1.0  0.45700  0.59200  0.79300  1.0000
  O   O11       1.0  0.04300  0.70700  0.90800  1.0000
  O   O12       1.0  0.29300  0.09180  0.95700  1.0000
  Rh  Rh1       1.0  0.00000  0.00000  0.00000  1.0000
  Rh  Rh2       1.0  0.50000  0.50000  0.50000  1.0000
  Sr  Sr1       1.0  0.38000  0.75000  0.12000  1.0000
  Sr  Sr2       1.0  0.88000  0.62000  0.25000  1.0000
  Sr  Sr3       1.0  0.75000  0.12000  0.38000  1.0000
  Sr  Sr4       1.0  0.25000  0.88000  0.62000  1.0000
  Sr  Sr5       1.0  0.12000  0.38000  0.75000  1.0000
  Sr  Sr6       1.0  0.62000  0.25000  0.88000  1.0000
