data_image0
_chemical_formula_structural       Ga4Ge2Li4S12
_chemical_formula_sum              "Ga4 Ge2 Li4 S12"
_cell_length_a       6.83338
_cell_length_b       6.99565
_cell_length_c       11.9343
_cell_angle_alpha    98.0377
_cell_angle_beta     73.364
_cell_angle_gamma    119.236

_space_group_name_H-M_alt    "P 1"
_space_group_IT_number       1

loop_
  _space_group_symop_operation_xyz
  'x, y, z'

loop_
  _atom_site_type_symbol
  _atom_site_label
  _atom_site_symmetry_multiplicity
  _atom_site_fract_x
  _atom_site_fract_y
  _atom_site_fract_z
  _atom_site_occupancy
  Ga  Ga1       1.0  0.69900  0.22400  0.23100  1.0000
  Ga  Ga2       1.0  0.18000  0.72400  0.26900  1.0000
  Ga  Ga3       1.0  0.72500  0.27600  0.73100  1.0000
  Ga  Ga4       1.0  0.70600  0.77600  0.76900  1.0000
  Ge  Ge1       1.0  0.40600  0.00000  0.00000  1.0000
  Ge  Ge2       1.0  0.65600  0.50000  0.50000  1.0000
  Li  Li1       1.0  0.67400  0.66300  0.09480  1.0000
  Li  Li2       1.0  0.01890  0.16300  0.40500  1.0000
  Li  Li3       1.0  0.26200  0.83700  0.59500  1.0000
  Li  Li4       1.0  0.10600  0.33700  0.90500  1.0000
  S   S1        1.0  0.71300  0.30000  0.04460  1.0000
  S   S2        1.0  0.08970  0.88800  0.14800  1.0000
  S   S3        1.0  0.07230  0.36700  0.23500  1.0000
  S   S4        1.0  0.55700  0.86700  0.26500  1.0000
  S   S5        1.0  0.48800  0.38800  0.35200  1.0000
  S   S6        1.0  0.00782  0.80000  0.45500  1.0000
  S   S7        1.0  0.66300  0.20000  0.54500  1.0000
  S   S8        1.0  0.45200  0.61200  0.64800  1.0000
  S   S9        1.0  0.95500  0.13300  0.73500  1.0000
  S   S10       1.0  0.94000  0.63300  0.76500  1.0000
  S   S11       1.0  0.35000  0.11200  0.85200  1.0000
  S   S12       1.0  0.45800  0.70000  0.95500  1.0000
