data_image0
_chemical_formula_structural       Al4Ge4O14
_chemical_formula_sum              "Al4 Ge4 O14"
_cell_length_a       5.25475
_cell_length_b       5.25475
_cell_length_c       9.71298
_cell_angle_alpha    103.741
_cell_angle_beta     103.741
_cell_angle_gamma    94.9674

_space_group_name_H-M_alt    "P 1"
_space_group_IT_number       1

loop_
  _space_group_symop_operation_xyz
  'x, y, z'

loop_
  _atom_site_type_symbol
  _atom_site_label
  _atom_site_symmetry_multiplicity
  _atom_site_fract_x
  _atom_site_fract_y
  _atom_site_fract_z
  _atom_site_occupancy
  Al  Al1       1.0  0.25000  0.40200  0.02040  1.0000
  Al  Al2       1.0  0.59800  0.75000  0.48000  1.0000
  Al  Al3       1.0  0.40200  0.25000  0.52000  1.0000
  Al  Al4       1.0  0.75000  0.59800  0.98000  1.0000
  Ge  Ge1       1.0  0.50700  0.00731  0.20500  1.0000
  Ge  Ge2       1.0  0.99300  0.49300  0.29500  1.0000
  Ge  Ge3       1.0  0.00731  0.50700  0.70500  1.0000
  Ge  Ge4       1.0  0.49300  0.99300  0.79500  1.0000
  O   O1        1.0  0.27200  0.13700  0.09940  1.0000
  O   O2        1.0  0.52000  0.68200  0.10300  1.0000
  O   O3        1.0  0.02080  0.56700  0.12900  1.0000
  O   O4        1.0  0.83600  0.16400  0.25000  1.0000
  O   O5        1.0  0.43300  0.97900  0.37100  1.0000
  O   O6        1.0  0.31800  0.48000  0.39700  1.0000
  O   O7        1.0  0.86300  0.72800  0.40100  1.0000
  O   O8        1.0  0.13700  0.27200  0.59900  1.0000
  O   O9        1.0  0.68200  0.52000  0.60300  1.0000
  O   O10       1.0  0.56700  0.02080  0.62900  1.0000
  O   O11       1.0  0.16400  0.83600  0.75000  1.0000
  O   O12       1.0  0.97900  0.43300  0.87100  1.0000
  O   O13       1.0  0.48000  0.31800  0.89700  1.0000
  O   O14       1.0  0.72800  0.86300  0.90100  1.0000
