data_image0
_chemical_formula_structural       Br4Hg10O8
_chemical_formula_sum              "Br4 Hg10 O8"
_cell_length_a       6.24236
_cell_length_b       8.99573
_cell_length_c       8.99573
_cell_angle_alpha    96.7936
_cell_angle_beta     69.6984
_cell_angle_gamma    110.302

_space_group_name_H-M_alt    "P 1"
_space_group_IT_number       1

loop_
  _space_group_symop_operation_xyz
  'x, y, z'

loop_
  _atom_site_type_symbol
  _atom_site_label
  _atom_site_symmetry_multiplicity
  _atom_site_fract_x
  _atom_site_fract_y
  _atom_site_fract_z
  _atom_site_occupancy
  Br  Br1       1.0  0.72600  0.10800  0.10800  1.0000
  Br  Br2       1.0  0.22600  0.39200  0.39200  1.0000
  Br  Br3       1.0  0.77400  0.60800  0.60800  1.0000
  Br  Br4       1.0  0.27400  0.89200  0.89200  1.0000
  Hg  Hg1       1.0  0.25000  0.58800  0.08820  1.0000
  Hg  Hg2       1.0  0.21400  0.14000  0.14000  1.0000
  Hg  Hg3       1.0  0.75000  0.75000  0.25000  1.0000
  Hg  Hg4       1.0  0.71400  0.36000  0.36000  1.0000
  Hg  Hg5       1.0  0.25000  0.91200  0.41200  1.0000
  Hg  Hg6       1.0  0.75000  0.08820  0.58800  1.0000
  Hg  Hg7       1.0  0.28600  0.64000  0.64000  1.0000
  Hg  Hg8       1.0  0.25000  0.25000  0.75000  1.0000
  Hg  Hg9       1.0  0.78600  0.86000  0.86000  1.0000
  Hg  Hg10      1.0  0.75000  0.41200  0.91200  1.0000
  O   O1        1.0  0.62500  0.67600  0.03060  1.0000
  O   O2        1.0  0.87500  0.53100  0.17600  1.0000
  O   O3        1.0  0.02010  0.96900  0.32400  1.0000
  O   O4        1.0  0.48000  0.82400  0.46900  1.0000
  O   O5        1.0  0.52000  0.17600  0.53100  1.0000
  O   O6        1.0  0.98000  0.03060  0.67600  1.0000
  O   O7        1.0  0.12500  0.46900  0.82400  1.0000
  O   O8        1.0  0.37500  0.32400  0.96900  1.0000
