data_image0
_chemical_formula_structural       O14Sr2V6
_chemical_formula_sum              "O14 Sr2 V6"
_cell_length_a       5.30788
_cell_length_b       10.5841
_cell_length_c       5.21158
_cell_angle_alpha    90
_cell_angle_beta     90
_cell_angle_gamma    90

_space_group_name_H-M_alt    "P 1"
_space_group_IT_number       1

loop_
  _space_group_symop_operation_xyz
  'x, y, z'

loop_
  _atom_site_type_symbol
  _atom_site_label
  _atom_site_symmetry_multiplicity
  _atom_site_fract_x
  _atom_site_fract_y
  _atom_site_fract_z
  _atom_site_occupancy
  O   O1        1.0  0.75000  0.04400  0.06060  1.0000
  O   O2        1.0  0.75000  0.45600  0.06060  1.0000
  O   O3        1.0  0.25000  0.25000  0.08060  1.0000
  O   O4        1.0  0.51200  0.62100  0.46700  1.0000
  O   O5        1.0  0.98800  0.62100  0.46700  1.0000
  O   O6        1.0  0.51200  0.87900  0.46700  1.0000
  O   O7        1.0  0.98800  0.87900  0.46700  1.0000
  O   O8        1.0  0.01210  0.12100  0.53300  1.0000
  O   O9        1.0  0.48800  0.12100  0.53300  1.0000
  O   O10       1.0  0.01210  0.37900  0.53300  1.0000
  O   O11       1.0  0.48800  0.37900  0.53300  1.0000
  O   O12       1.0  0.75000  0.75000  0.91900  1.0000
  O   O13       1.0  0.25000  0.54400  0.93900  1.0000
  O   O14       1.0  0.25000  0.95600  0.93900  1.0000
  Sr  Sr1       1.0  0.25000  0.75000  0.14500  1.0000
  Sr  Sr2       1.0  0.75000  0.25000  0.85500  1.0000
  V   V1        1.0  0.75000  0.01440  0.37200  1.0000
  V   V2        1.0  0.75000  0.48600  0.37200  1.0000
  V   V3        1.0  0.25000  0.25000  0.40000  1.0000
  V   V4        1.0  0.75000  0.75000  0.60000  1.0000
  V   V5        1.0  0.25000  0.51400  0.62800  1.0000
  V   V6        1.0  0.25000  0.98600  0.62800  1.0000
