data_image0
_chemical_formula_structural       Al4Ca6
_chemical_formula_sum              "Al4 Ca6"
_cell_length_a       7.14788
_cell_length_b       7.14788
_cell_length_c       8.2508
_cell_angle_alpha    115.668
_cell_angle_beta     64.3315
_cell_angle_gamma    120

_space_group_name_H-M_alt    "P 1"
_space_group_IT_number       1

loop_
  _space_group_symop_operation_xyz
  'x, y, z'

loop_
  _atom_site_type_symbol
  _atom_site_label
  _atom_site_symmetry_multiplicity
  _atom_site_fract_x
  _atom_site_fract_y
  _atom_site_fract_z
  _atom_site_occupancy
  Al  Al1       1.0  0.30900  0.69100  0.07210  1.0000
  Al  Al2       1.0  0.19100  0.80900  0.42800  1.0000
  Al  Al3       1.0  0.80900  0.19100  0.57200  1.0000
  Al  Al4       1.0  0.69100  0.30900  0.92800  1.0000
  Ca  Ca1       1.0  0.25000  0.16800  0.25000  1.0000
  Ca  Ca2       1.0  0.83200  0.33200  0.25000  1.0000
  Ca  Ca3       1.0  0.66800  0.75000  0.25000  1.0000
  Ca  Ca4       1.0  0.33200  0.25000  0.75000  1.0000
  Ca  Ca5       1.0  0.16800  0.66800  0.75000  1.0000
  Ca  Ca6       1.0  0.75000  0.83200  0.75000  1.0000
