data_image0
_chemical_formula_structural       F18U4
_chemical_formula_sum              "F18 U4"
_cell_length_a       7.16834
_cell_length_b       7.16834
_cell_length_c       7.16834
_cell_angle_alpha    109.471
_cell_angle_beta     109.471
_cell_angle_gamma    109.471

_space_group_name_H-M_alt    "P 1"
_space_group_IT_number       1

loop_
  _space_group_symop_operation_xyz
  'x, y, z'

loop_
  _atom_site_type_symbol
  _atom_site_label
  _atom_site_symmetry_multiplicity
  _atom_site_fract_x
  _atom_site_fract_y
  _atom_site_fract_z
  _atom_site_occupancy
  F   F1        1.0  0.23100  0.23100  0.00000  1.0000
  F   F2        1.0  0.65200  0.24700  0.00000  1.0000
  F   F3        1.0  0.24700  0.65200  0.00000  1.0000
  F   F4        1.0  0.76900  0.76900  0.00000  1.0000
  F   F5        1.0  0.23100  0.00000  0.23100  1.0000
  F   F6        1.0  0.00000  0.23100  0.23100  1.0000
  F   F7        1.0  0.65200  0.00000  0.24700  1.0000
  F   F8        1.0  0.00000  0.65200  0.24700  1.0000
  F   F9        1.0  0.59500  0.34800  0.34800  1.0000
  F   F10       1.0  0.34800  0.59500  0.34800  1.0000
  F   F11       1.0  0.75300  0.75300  0.40500  1.0000
  F   F12       1.0  0.34800  0.34800  0.59500  1.0000
  F   F13       1.0  0.24700  0.00000  0.65200  1.0000
  F   F14       1.0  0.00000  0.24700  0.65200  1.0000
  F   F15       1.0  0.75300  0.40500  0.75300  1.0000
  F   F16       1.0  0.40500  0.75300  0.75300  1.0000
  F   F17       1.0  0.76900  0.00000  0.76900  1.0000
  F   F18       1.0  0.00000  0.76900  0.76900  1.0000
  U   U1        1.0  0.37900  0.00000  0.00000  1.0000
  U   U2        1.0  0.00000  0.37900  0.00000  1.0000
  U   U3        1.0  0.00000  0.00000  0.37900  1.0000
  U   U4        1.0  0.62100  0.62100  0.62100  1.0000
