data_image0
_chemical_formula_structural       O14V8
_chemical_formula_sum              "O14 V8"
_cell_length_a       5.56671
_cell_length_b       7.03506
_cell_length_c       19.2894
_cell_angle_alpha    41.5561
_cell_angle_beta     72.3403
_cell_angle_gamma    109.275

_space_group_name_H-M_alt    "P 1"
_space_group_IT_number       1

loop_
  _space_group_symop_operation_xyz
  'x, y, z'

loop_
  _atom_site_type_symbol
  _atom_site_label
  _atom_site_symmetry_multiplicity
  _atom_site_fract_x
  _atom_site_fract_y
  _atom_site_fract_z
  _atom_site_occupancy
  O   O1        1.0  0.69800  0.41700  0.05040  1.0000
  O   O2        1.0  0.32900  0.55500  0.10300  1.0000
  O   O3        1.0  0.67800  0.46500  0.17200  1.0000
  O   O4        1.0  0.38100  0.62100  0.22500  1.0000
  O   O5        1.0  0.70100  0.42400  0.32800  1.0000
  O   O6        1.0  0.31800  0.57900  0.38800  1.0000
  O   O7        1.0  0.66200  0.42300  0.47300  1.0000
  O   O8        1.0  0.33800  0.57700  0.52700  1.0000
  O   O9        1.0  0.68200  0.42100  0.61200  1.0000
  O   O10       1.0  0.29900  0.57600  0.67200  1.0000
  O   O11       1.0  0.61900  0.37900  0.77500  1.0000
  O   O12       1.0  0.32200  0.53500  0.82800  1.0000
  O   O13       1.0  0.67100  0.44500  0.89700  1.0000
  O   O14       1.0  0.30200  0.58300  0.95000  1.0000
  V   V1        1.0  0.99300  0.44900  0.09780  1.0000
  V   V2        1.0  0.97800  0.93500  0.10300  1.0000
  V   V3        1.0  0.00046  0.48900  0.36600  1.0000
  V   V4        1.0  0.95900  0.96000  0.37300  1.0000
  V   V5        1.0  0.04100  0.03960  0.62700  1.0000
  V   V6        1.0  1.00000  0.51100  0.63400  1.0000
  V   V7        1.0  0.02230  0.06460  0.89700  1.0000
  V   V8        1.0  0.00737  0.55100  0.90200  1.0000
