data_image0
_chemical_formula_structural       Al4Pt6
_chemical_formula_sum              "Al4 Pt6"
_cell_length_a       6.50933
_cell_length_b       6.50933
_cell_length_c       5.68608
_cell_angle_alpha    124.917
_cell_angle_beta     55.0828
_cell_angle_gamma    120

_space_group_name_H-M_alt    "P 1"
_space_group_IT_number       1

loop_
  _space_group_symop_operation_xyz
  'x, y, z'

loop_
  _atom_site_type_symbol
  _atom_site_label
  _atom_site_symmetry_multiplicity
  _atom_site_fract_x
  _atom_site_fract_y
  _atom_site_fract_z
  _atom_site_occupancy
  Al  Al1       1.0  0.60700  0.39300  0.17900  1.0000
  Al  Al2       1.0  0.89300  0.10700  0.32100  1.0000
  Al  Al3       1.0  0.10700  0.89300  0.67900  1.0000
  Al  Al4       1.0  0.39300  0.60700  0.82100  1.0000
  Pt  Pt1       1.0  0.52200  0.75000  0.25000  1.0000
  Pt  Pt2       1.0  0.97800  0.47800  0.25000  1.0000
  Pt  Pt3       1.0  0.25000  0.02240  0.25000  1.0000
  Pt  Pt4       1.0  0.75000  0.97800  0.75000  1.0000
  Pt  Pt5       1.0  0.02240  0.52200  0.75000  1.0000
  Pt  Pt6       1.0  0.47800  0.25000  0.75000  1.0000
