data_image0
_chemical_formula_structural       C8Fe2K4O8
_chemical_formula_sum              "C8 Fe2 K4 O8"
_cell_length_a       5.54141
_cell_length_b       6.28439
_cell_length_c       11.7053
_cell_angle_alpha    95.9903
_cell_angle_beta     76.3078
_cell_angle_gamma    116.16

_space_group_name_H-M_alt    "P 1"
_space_group_IT_number       1

loop_
  _space_group_symop_operation_xyz
  'x, y, z'

loop_
  _atom_site_type_symbol
  _atom_site_label
  _atom_site_symmetry_multiplicity
  _atom_site_fract_x
  _atom_site_fract_y
  _atom_site_fract_z
  _atom_site_occupancy
  C   C1        1.0  0.04550  0.60200  0.16000  1.0000
  C   C2        1.0  0.79400  0.89800  0.16000  1.0000
  C   C3        1.0  0.55600  0.60200  0.34000  1.0000
  C   C4        1.0  0.10400  0.89800  0.34000  1.0000
  C   C5        1.0  0.89600  0.10200  0.66000  1.0000
  C   C6        1.0  0.44400  0.39800  0.66000  1.0000
  C   C7        1.0  0.20600  0.10200  0.84000  1.0000
  C   C8        1.0  0.95400  0.39800  0.84000  1.0000
  Fe  Fe1       1.0  0.87500  0.75000  0.25000  1.0000
  Fe  Fe2       1.0  0.12500  0.25000  0.75000  1.0000
  K   K1        1.0  0.44700  0.25000  0.10500  1.0000
  K   K2        1.0  0.80300  0.25000  0.39500  1.0000
  K   K3        1.0  0.19700  0.75000  0.60500  1.0000
  K   K4        1.0  0.55300  0.75000  0.89500  1.0000
  O   O1        1.0  0.17600  0.50900  0.09850  1.0000
  O   O2        1.0  0.72500  0.99100  0.09850  1.0000
  O   O3        1.0  0.33200  0.50900  0.40200  1.0000
  O   O4        1.0  0.26600  0.99100  0.40200  1.0000
  O   O5        1.0  0.73400  0.00853  0.59800  1.0000
  O   O6        1.0  0.66800  0.49100  0.59800  1.0000
  O   O7        1.0  0.27500  0.00853  0.90200  1.0000
  O   O8        1.0  0.82400  0.49100  0.90200  1.0000
