data_image0
_chemical_formula_structural       C8K4N8Ni2
_chemical_formula_sum              "C8 K4 N8 Ni2"
_cell_length_a       4.23055
_cell_length_b       7.62129
_cell_length_c       12.9205
_cell_angle_alpha    90
_cell_angle_beta     86.5147
_cell_angle_gamma    90

_space_group_name_H-M_alt    "P 1"
_space_group_IT_number       1

loop_
  _space_group_symop_operation_xyz
  'x, y, z'

loop_
  _atom_site_type_symbol
  _atom_site_label
  _atom_site_symmetry_multiplicity
  _atom_site_fract_x
  _atom_site_fract_y
  _atom_site_fract_z
  _atom_site_occupancy
  C   C1        1.0  0.15900  0.20500  0.05110  1.0000
  C   C2        1.0  0.15000  0.87800  0.10900  1.0000
  C   C3        1.0  0.85000  0.37800  0.39100  1.0000
  C   C4        1.0  0.84100  0.70500  0.44900  1.0000
  C   C5        1.0  0.15900  0.29500  0.55100  1.0000
  C   C6        1.0  0.15000  0.62200  0.60900  1.0000
  C   C7        1.0  0.85000  0.12200  0.89100  1.0000
  C   C8        1.0  0.84100  0.79500  0.94900  1.0000
  K   K1        1.0  0.72200  0.54500  0.15900  1.0000
  K   K2        1.0  0.27800  0.04510  0.34100  1.0000
  K   K3        1.0  0.72200  0.95500  0.65900  1.0000
  K   K4        1.0  0.27800  0.45500  0.84100  1.0000
  N   N1        1.0  0.25800  0.33800  0.08230  1.0000
  N   N2        1.0  0.24200  0.79700  0.17900  1.0000
  N   N3        1.0  0.75800  0.29700  0.32100  1.0000
  N   N4        1.0  0.74200  0.83800  0.41800  1.0000
  N   N5        1.0  0.25800  0.16200  0.58200  1.0000
  N   N6        1.0  0.24200  0.70300  0.67900  1.0000
  N   N7        1.0  0.75800  0.20300  0.82100  1.0000
  N   N8        1.0  0.74200  0.66200  0.91800  1.0000
  Ni  Ni1       1.0  0.00000  0.00000  0.00000  1.0000
  Ni  Ni2       1.0  0.00000  0.50000  0.50000  1.0000
