data_image0
_chemical_formula_structural       In4Ti6
_chemical_formula_sum              "In4 Ti6"
_cell_length_a       6.98925
_cell_length_b       6.98925
_cell_length_c       6.35063
_cell_angle_alpha    123.386
_cell_angle_beta     56.6138
_cell_angle_gamma    120

_space_group_name_H-M_alt    "P 1"
_space_group_IT_number       1

loop_
  _space_group_symop_operation_xyz
  'x, y, z'

loop_
  _atom_site_type_symbol
  _atom_site_label
  _atom_site_symmetry_multiplicity
  _atom_site_fract_x
  _atom_site_fract_y
  _atom_site_fract_z
  _atom_site_occupancy
  In  In1       1.0  0.59200  0.40800  0.22500  1.0000
  In  In2       1.0  0.90800  0.09180  0.27500  1.0000
  In  In3       1.0  0.09180  0.90800  0.72500  1.0000
  In  In4       1.0  0.40800  0.59200  0.77500  1.0000
  Ti  Ti1       1.0  0.25000  0.97300  0.25000  1.0000
  Ti  Ti2       1.0  0.47300  0.75000  0.25000  1.0000
  Ti  Ti3       1.0  0.02700  0.52700  0.25000  1.0000
  Ti  Ti4       1.0  0.75000  0.02700  0.75000  1.0000
  Ti  Ti5       1.0  0.52700  0.25000  0.75000  1.0000
  Ti  Ti6       1.0  0.97300  0.47300  0.75000  1.0000
