data_image0
_chemical_formula_structural       Pt12Si10
_chemical_formula_sum              "Pt12 Si10"
_cell_length_a       15.5888
_cell_length_b       3.54503
_cell_length_c       6.23945
_cell_angle_alpha    90
_cell_angle_beta     86.4781
_cell_angle_gamma    90

_space_group_name_H-M_alt    "P 1"
_space_group_IT_number       1

loop_
  _space_group_symop_operation_xyz
  'x, y, z'

loop_
  _atom_site_type_symbol
  _atom_site_label
  _atom_site_symmetry_multiplicity
  _atom_site_fract_x
  _atom_site_fract_y
  _atom_site_fract_z
  _atom_site_occupancy
  Pt  Pt1       1.0  0.71900  0.25000  0.00847  1.0000
  Pt  Pt2       1.0  0.44800  0.75000  0.14800  1.0000
  Pt  Pt3       1.0  0.00139  0.25000  0.19700  1.0000
  Pt  Pt4       1.0  0.17800  0.25000  0.28000  1.0000
  Pt  Pt5       1.0  0.82600  0.25000  0.34300  1.0000
  Pt  Pt6       1.0  0.57700  0.75000  0.47200  1.0000
  Pt  Pt7       1.0  0.42300  0.25000  0.52800  1.0000
  Pt  Pt8       1.0  0.17400  0.75000  0.65700  1.0000
  Pt  Pt9       1.0  0.82200  0.75000  0.72000  1.0000
  Pt  Pt10      1.0  0.99900  0.75000  0.80300  1.0000
  Pt  Pt11      1.0  0.55200  0.25000  0.85200  1.0000
  Pt  Pt12      1.0  0.28100  0.75000  0.99200  1.0000
  Si  Si1       1.0  0.11900  0.75000  0.05390  1.0000
  Si  Si2       1.0  0.57300  0.25000  0.22200  1.0000
  Si  Si3       1.0  0.33500  0.25000  0.23100  1.0000
  Si  Si4       1.0  0.72000  0.75000  0.31400  1.0000
  Si  Si5       1.0  0.93600  0.75000  0.43500  1.0000
  Si  Si6       1.0  0.06450  0.25000  0.56500  1.0000
  Si  Si7       1.0  0.28000  0.25000  0.68600  1.0000
  Si  Si8       1.0  0.66500  0.75000  0.76900  1.0000
  Si  Si9       1.0  0.42700  0.75000  0.77800  1.0000
  Si  Si10      1.0  0.88100  0.25000  0.94600  1.0000
