data_image0
_chemical_formula_structural       Nb4Se18
_chemical_formula_sum              "Nb4 Se18"
_cell_length_a       8.3361
_cell_length_b       8.52551
_cell_length_c       13.1656
_cell_angle_alpha    120.762
_cell_angle_beta     122.905
_cell_angle_gamma    92.9748

_space_group_name_H-M_alt    "P 1"
_space_group_IT_number       1

loop_
  _space_group_symop_operation_xyz
  'x, y, z'

loop_
  _atom_site_type_symbol
  _atom_site_label
  _atom_site_symmetry_multiplicity
  _atom_site_fract_x
  _atom_site_fract_y
  _atom_site_fract_z
  _atom_site_occupancy
  Nb  Nb1       1.0  0.04860  0.03950  0.13800  1.0000
  Nb  Nb2       1.0  0.98300  0.03590  0.39800  1.0000
  Nb  Nb3       1.0  0.01730  0.96400  0.60200  1.0000
  Nb  Nb4       1.0  0.95100  0.96000  0.86200  1.0000
  Se  Se1       1.0  0.18800  0.82400  0.00262  1.0000
  Se  Se2       1.0  0.69900  0.87800  0.08920  1.0000
  Se  Se3       1.0  0.18300  0.33600  0.14400  1.0000
  Se  Se4       1.0  0.73700  0.18900  0.28600  1.0000
  Se  Se5       1.0  0.20700  0.90400  0.30600  1.0000
  Se  Se6       1.0  0.64700  0.79100  0.31400  1.0000
  Se  Se7       1.0  0.89700  0.66900  0.32500  1.0000
  Se  Se8       1.0  0.14600  0.33600  0.41200  1.0000
  Se  Se9       1.0  0.44000  0.22600  0.41300  1.0000
  Se  Se10      1.0  0.56000  0.77400  0.58700  1.0000
  Se  Se11      1.0  0.85400  0.66400  0.58800  1.0000
  Se  Se12      1.0  0.10300  0.33100  0.67500  1.0000
  Se  Se13      1.0  0.35300  0.20900  0.68600  1.0000
  Se  Se14      1.0  0.79300  0.09570  0.69400  1.0000
  Se  Se15      1.0  0.26300  0.81100  0.71400  1.0000
  Se  Se16      1.0  0.81700  0.66400  0.85600  1.0000
  Se  Se17      1.0  0.30100  0.12200  0.91100  1.0000
  Se  Se18      1.0  0.81200  0.17600  0.99700  1.0000
