data_image0
_chemical_formula_structural       Ag2F18Xe2
_chemical_formula_sum              "Ag2 F18 Xe2"
_cell_length_a       5.30703
_cell_length_b       5.30703
_cell_length_c       10.5747
_cell_angle_alpha    104.533
_cell_angle_beta     104.533
_cell_angle_gamma    90

_space_group_name_H-M_alt    "P 1"
_space_group_IT_number       1

loop_
  _space_group_symop_operation_xyz
  'x, y, z'

loop_
  _atom_site_type_symbol
  _atom_site_label
  _atom_site_symmetry_multiplicity
  _atom_site_fract_x
  _atom_site_fract_y
  _atom_site_fract_z
  _atom_site_occupancy
  Ag  Ag1       1.0  0.50000  0.00000  0.00000  1.0000
  Ag  Ag2       1.0  0.00000  0.50000  0.00000  1.0000
  F   F1        1.0  0.76700  0.24700  0.13500  1.0000
  F   F2        1.0  0.24700  0.36800  0.13500  1.0000
  F   F3        1.0  0.88700  0.76700  0.13500  1.0000
  F   F4        1.0  0.36800  0.88700  0.13500  1.0000
  F   F5        1.0  0.84700  0.01950  0.35200  1.0000
  F   F6        1.0  0.50500  0.33300  0.35200  1.0000
  F   F7        1.0  0.01950  0.50500  0.35200  1.0000
  F   F8        1.0  0.33300  0.84700  0.35200  1.0000
  F   F9        1.0  0.74600  0.74600  0.49200  1.0000
  F   F10       1.0  0.25400  0.25400  0.50800  1.0000
  F   F11       1.0  0.66700  0.15300  0.64800  1.0000
  F   F12       1.0  0.98100  0.49500  0.64800  1.0000
  F   F13       1.0  0.49500  0.66700  0.64800  1.0000
  F   F14       1.0  0.15300  0.98100  0.64800  1.0000
  F   F15       1.0  0.63200  0.11300  0.86500  1.0000
  F   F16       1.0  0.11300  0.23300  0.86500  1.0000
  F   F17       1.0  0.75300  0.63200  0.86500  1.0000
  F   F18       1.0  0.23300  0.75300  0.86500  1.0000
  Xe  Xe1       1.0  0.15500  0.15500  0.31000  1.0000
  Xe  Xe2       1.0  0.84500  0.84500  0.69000  1.0000
