data_image0
_chemical_formula_structural       Cs4Cu10Se8
_chemical_formula_sum              "Cs4 Cu10 Se8"
_cell_length_a       4.01585
_cell_length_b       9.94842
_cell_length_c       13.223
_cell_angle_alpha    90
_cell_angle_beta     90
_cell_angle_gamma    78.3558

_space_group_name_H-M_alt    "P 1"
_space_group_IT_number       1

loop_
  _space_group_symop_operation_xyz
  'x, y, z'

loop_
  _atom_site_type_symbol
  _atom_site_label
  _atom_site_symmetry_multiplicity
  _atom_site_fract_x
  _atom_site_fract_y
  _atom_site_fract_z
  _atom_site_occupancy
  Cs  Cs1       1.0  0.00000  0.00000  0.00000  1.0000
  Cs  Cs2       1.0  0.14200  0.71700  0.25000  1.0000
  Cs  Cs3       1.0  0.00000  0.00000  0.50000  1.0000
  Cs  Cs4       1.0  0.85800  0.28300  0.75000  1.0000
  Cu  Cu1       1.0  0.78500  0.43000  0.04170  1.0000
  Cu  Cu2       1.0  0.35200  0.29500  0.15800  1.0000
  Cu  Cu3       1.0  0.91700  0.16700  0.25000  1.0000
  Cu  Cu4       1.0  0.35200  0.29500  0.34200  1.0000
  Cu  Cu5       1.0  0.78500  0.43000  0.45800  1.0000
  Cu  Cu6       1.0  0.21500  0.57000  0.54200  1.0000
  Cu  Cu7       1.0  0.64800  0.70500  0.65800  1.0000
  Cu  Cu8       1.0  0.08340  0.83300  0.75000  1.0000
  Cu  Cu9       1.0  0.64800  0.70500  0.84200  1.0000
  Cu  Cu10      1.0  0.21500  0.57000  0.95800  1.0000
  Se  Se1       1.0  0.65700  0.68600  0.02170  1.0000
  Se  Se2       1.0  0.48200  0.03640  0.25000  1.0000
  Se  Se3       1.0  0.79300  0.41400  0.25000  1.0000
  Se  Se4       1.0  0.65700  0.68600  0.47800  1.0000
  Se  Se5       1.0  0.34300  0.31400  0.52200  1.0000
  Se  Se6       1.0  0.20700  0.58600  0.75000  1.0000
  Se  Se7       1.0  0.51800  0.96400  0.75000  1.0000
  Se  Se8       1.0  0.34300  0.31400  0.97800  1.0000
