data_image0
_chemical_formula_structural       Ho4Ni6
_chemical_formula_sum              "Ho4 Ni6"
_cell_length_a       6.40679
_cell_length_b       6.40679
_cell_length_c       6.62899
_cell_angle_alpha    118.897
_cell_angle_beta     61.1028
_cell_angle_gamma    120

_space_group_name_H-M_alt    "P 1"
_space_group_IT_number       1

loop_
  _space_group_symop_operation_xyz
  'x, y, z'

loop_
  _atom_site_type_symbol
  _atom_site_label
  _atom_site_symmetry_multiplicity
  _atom_site_fract_x
  _atom_site_fract_y
  _atom_site_fract_z
  _atom_site_occupancy
  Ho  Ho1       1.0  0.60500  0.39500  0.18600  1.0000
  Ho  Ho2       1.0  0.89500  0.10500  0.31400  1.0000
  Ho  Ho3       1.0  0.10500  0.89500  0.68600  1.0000
  Ho  Ho4       1.0  0.39500  0.60500  0.81400  1.0000
  Ni  Ni1       1.0  0.46300  0.75000  0.25000  1.0000
  Ni  Ni2       1.0  0.03690  0.53700  0.25000  1.0000
  Ni  Ni3       1.0  0.25000  0.96300  0.25000  1.0000
  Ni  Ni4       1.0  0.96300  0.46300  0.75000  1.0000
  Ni  Ni5       1.0  0.53700  0.25000  0.75000  1.0000
  Ni  Ni6       1.0  0.75000  0.03690  0.75000  1.0000
