data_image0
_chemical_formula_structural       Al4Mo6
_chemical_formula_sum              "Al4 Mo6"
_cell_length_a       5.35894
_cell_length_b       5.35894
_cell_length_c       7.18919
_cell_angle_alpha    111.883
_cell_angle_beta     68.1173
_cell_angle_gamma    120

_space_group_name_H-M_alt    "P 1"
_space_group_IT_number       1

loop_
  _space_group_symop_operation_xyz
  'x, y, z'

loop_
  _atom_site_type_symbol
  _atom_site_label
  _atom_site_symmetry_multiplicity
  _atom_site_fract_x
  _atom_site_fract_y
  _atom_site_fract_z
  _atom_site_occupancy
  Al  Al1       1.0  0.31000  0.69000  0.07000  1.0000
  Al  Al2       1.0  0.19000  0.81000  0.43000  1.0000
  Al  Al3       1.0  0.81000  0.19000  0.57000  1.0000
  Al  Al4       1.0  0.69000  0.31000  0.93000  1.0000
  Mo  Mo1       1.0  0.75000  0.25000  0.25000  1.0000
  Mo  Mo2       1.0  0.25000  0.25000  0.25000  1.0000
  Mo  Mo3       1.0  0.75000  0.75000  0.25000  1.0000
  Mo  Mo4       1.0  0.25000  0.25000  0.75000  1.0000
  Mo  Mo5       1.0  0.75000  0.75000  0.75000  1.0000
  Mo  Mo6       1.0  0.25000  0.75000  0.75000  1.0000
