data_image0
_chemical_formula_structural       Br8S2Tl12
_chemical_formula_sum              "Br8 S2 Tl12"
_cell_length_a       8.97166
_cell_length_b       8.97166
_cell_length_c       9.52669
_cell_angle_alpha    90
_cell_angle_beta     90
_cell_angle_gamma    90

_space_group_name_H-M_alt    "P 1"
_space_group_IT_number       1

loop_
  _space_group_symop_operation_xyz
  'x, y, z'

loop_
  _atom_site_type_symbol
  _atom_site_label
  _atom_site_symmetry_multiplicity
  _atom_site_fract_x
  _atom_site_fract_y
  _atom_site_fract_z
  _atom_site_occupancy
  Br  Br1       1.0  0.67000  0.17000  0.25000  1.0000
  Br  Br2       1.0  0.17000  0.33000  0.25000  1.0000
  Br  Br3       1.0  0.83000  0.67000  0.25000  1.0000
  Br  Br4       1.0  0.33000  0.83000  0.25000  1.0000
  Br  Br5       1.0  0.67000  0.17000  0.75000  1.0000
  Br  Br6       1.0  0.17000  0.33000  0.75000  1.0000
  Br  Br7       1.0  0.83000  0.67000  0.75000  1.0000
  Br  Br8       1.0  0.33000  0.83000  0.75000  1.0000
  S   S1        1.0  0.50000  0.50000  0.00000  1.0000
  S   S2        1.0  0.00000  0.00000  0.50000  1.0000
  Tl  Tl1       1.0  0.39400  0.18600  0.00000  1.0000
  Tl  Tl2       1.0  0.81400  0.39400  0.00000  1.0000
  Tl  Tl3       1.0  0.18600  0.60600  0.00000  1.0000
  Tl  Tl4       1.0  0.60600  0.81400  0.00000  1.0000
  Tl  Tl5       1.0  0.00000  0.00000  0.19800  1.0000
  Tl  Tl6       1.0  0.50000  0.50000  0.30200  1.0000
  Tl  Tl7       1.0  0.31400  0.10600  0.50000  1.0000
  Tl  Tl8       1.0  0.89400  0.31400  0.50000  1.0000
  Tl  Tl9       1.0  0.10600  0.68600  0.50000  1.0000
  Tl  Tl10      1.0  0.68600  0.89400  0.50000  1.0000
  Tl  Tl11      1.0  0.50000  0.50000  0.69800  1.0000
  Tl  Tl12      1.0  0.00000  0.00000  0.80200  1.0000
