data_image0
_chemical_formula_structural       Er4Fe6
_chemical_formula_sum              "Er4 Fe6"
_cell_length_a       6.52461
_cell_length_b       6.52461
_cell_length_c       6.58673
_cell_angle_alpha    119.688
_cell_angle_beta     60.3115
_cell_angle_gamma    120

_space_group_name_H-M_alt    "P 1"
_space_group_IT_number       1

loop_
  _space_group_symop_operation_xyz
  'x, y, z'

loop_
  _atom_site_type_symbol
  _atom_site_label
  _atom_site_symmetry_multiplicity
  _atom_site_fract_x
  _atom_site_fract_y
  _atom_site_fract_z
  _atom_site_occupancy
  Er  Er1       1.0  0.59700  0.40300  0.20800  1.0000
  Er  Er2       1.0  0.90300  0.09720  0.29200  1.0000
  Er  Er3       1.0  0.09720  0.90300  0.70800  1.0000
  Er  Er4       1.0  0.40300  0.59700  0.79200  1.0000
  Fe  Fe1       1.0  0.04960  0.55000  0.25000  1.0000
  Fe  Fe2       1.0  0.45000  0.75000  0.25000  1.0000
  Fe  Fe3       1.0  0.25000  0.95000  0.25000  1.0000
  Fe  Fe4       1.0  0.75000  0.04960  0.75000  1.0000
  Fe  Fe5       1.0  0.55000  0.25000  0.75000  1.0000
  Fe  Fe6       1.0  0.95000  0.45000  0.75000  1.0000
