data_image0
_chemical_formula_structural       C8I4O8Ru2
_chemical_formula_sum              "C8 I4 O8 Ru2"
_cell_length_a       6.44204
_cell_length_b       6.44204
_cell_length_c       12.4283
_cell_angle_alpha    90.5168
_cell_angle_beta     90.5168
_cell_angle_gamma    114.494

_space_group_name_H-M_alt    "P 1"
_space_group_IT_number       1

loop_
  _space_group_symop_operation_xyz
  'x, y, z'

loop_
  _atom_site_type_symbol
  _atom_site_label
  _atom_site_symmetry_multiplicity
  _atom_site_fract_x
  _atom_site_fract_y
  _atom_site_fract_z
  _atom_site_occupancy
  C   C1        1.0  0.98400  0.25100  0.15600  1.0000
  C   C2        1.0  0.76200  0.76800  0.16000  1.0000
  C   C3        1.0  0.23200  0.23800  0.34000  1.0000
  C   C4        1.0  0.74900  0.01620  0.34400  1.0000
  C   C5        1.0  0.25100  0.98400  0.65600  1.0000
  C   C6        1.0  0.76800  0.76200  0.66000  1.0000
  C   C7        1.0  0.23800  0.23200  0.84000  1.0000
  C   C8        1.0  0.01620  0.74900  0.84400  1.0000
  I   I1        1.0  0.32800  0.00291  0.12200  1.0000
  I   I2        1.0  0.99700  0.67200  0.37800  1.0000
  I   I3        1.0  0.00291  0.32800  0.62200  1.0000
  I   I4        1.0  0.67200  0.99700  0.87800  1.0000
  O   O1        1.0  0.98700  0.39200  0.09890  1.0000
  O   O2        1.0  0.63200  0.62000  0.11000  1.0000
  O   O3        1.0  0.38000  0.36800  0.39000  1.0000
  O   O4        1.0  0.60800  0.01290  0.40100  1.0000
  O   O5        1.0  0.39200  0.98700  0.59900  1.0000
  O   O6        1.0  0.62000  0.63200  0.61000  1.0000
  O   O7        1.0  0.36800  0.38000  0.89000  1.0000
  O   O8        1.0  0.01290  0.60800  0.90100  1.0000
  Ru  Ru1       1.0  0.98400  0.01570  0.25000  1.0000
  Ru  Ru2       1.0  0.01570  0.98400  0.75000  1.0000
