data_image0
_chemical_formula_structural       IrN6O12Rb3
_chemical_formula_sum              "Ir1 N6 O12 Rb3"
_cell_length_a       7.33587
_cell_length_b       7.33587
_cell_length_c       7.33587
_cell_angle_alpha    120
_cell_angle_beta     90
_cell_angle_gamma    120

_space_group_name_H-M_alt    "P 1"
_space_group_IT_number       1

loop_
  _space_group_symop_operation_xyz
  'x, y, z'

loop_
  _atom_site_type_symbol
  _atom_site_label
  _atom_site_symmetry_multiplicity
  _atom_site_fract_x
  _atom_site_fract_y
  _atom_site_fract_z
  _atom_site_occupancy
  Ir  Ir1       1.0  0.00000  0.00000  0.00000  1.0000
  N   N1        1.0  0.19400  0.00000  0.19400  1.0000
  N   N2        1.0  0.19400  0.38900  0.19400  1.0000
  N   N3        1.0  0.80600  0.00000  0.19400  1.0000
  N   N4        1.0  0.80600  0.00000  0.80600  1.0000
  N   N5        1.0  0.19400  0.00000  0.80600  1.0000
  N   N6        1.0  0.80600  0.61100  0.80600  1.0000
  O   O1        1.0  0.41000  0.00000  0.00000  1.0000
  O   O2        1.0  0.59000  0.00000  0.00000  1.0000
  O   O3        1.0  0.00000  0.41000  0.00000  1.0000
  O   O4        1.0  0.41000  0.41000  0.00000  1.0000
  O   O5        1.0  0.00000  0.59000  0.00000  1.0000
  O   O6        1.0  0.59000  0.59000  0.00000  1.0000
  O   O7        1.0  0.00000  0.00000  0.41000  1.0000
  O   O8        1.0  0.00000  0.41000  0.41000  1.0000
  O   O9        1.0  0.41000  0.41000  0.41000  1.0000
  O   O10       1.0  0.00000  0.00000  0.59000  1.0000
  O   O11       1.0  1.00000  0.59000  0.59000  1.0000
  O   O12       1.0  0.59000  0.59000  0.59000  1.0000
  Rb  Rb1       1.0  0.75000  0.50000  0.25000  1.0000
  Rb  Rb2       1.0  0.50000  0.00000  0.50000  1.0000
  Rb  Rb3       1.0  0.25000  0.50000  0.75000  1.0000
