data_image0
_chemical_formula_structural       Cr2F14Na4Ni2
_chemical_formula_sum              "Cr2 F14 Na4 Ni2"
_cell_length_a       7.01993
_cell_length_b       7.09684
_cell_length_c       7.09684
_cell_angle_alpha    90.2221
_cell_angle_beta     119.642
_cell_angle_gamma    60.3578

_space_group_name_H-M_alt    "P 1"
_space_group_IT_number       1

loop_
  _space_group_symop_operation_xyz
  'x, y, z'

loop_
  _atom_site_type_symbol
  _atom_site_label
  _atom_site_symmetry_multiplicity
  _atom_site_fract_x
  _atom_site_fract_y
  _atom_site_fract_z
  _atom_site_occupancy
  Cr  Cr1       1.0  0.50000  0.00000  0.00000  1.0000
  Cr  Cr2       1.0  0.50000  0.50000  0.50000  1.0000
  F   F1        1.0  0.64700  0.17400  0.05820  1.0000
  F   F2        1.0  0.23700  0.17400  0.05820  1.0000
  F   F3        1.0  0.86600  0.38400  0.11600  1.0000
  F   F4        1.0  0.64700  0.44200  0.32600  1.0000
  F   F5        1.0  0.23700  0.44200  0.32600  1.0000
  F   F6        1.0  0.73300  0.86100  0.32700  1.0000
  F   F7        1.0  0.26700  0.82700  0.36100  1.0000
  F   F8        1.0  0.73300  0.17300  0.63900  1.0000
  F   F9        1.0  0.26700  0.13900  0.67300  1.0000
  F   F10       1.0  0.76300  0.55800  0.67400  1.0000
  F   F11       1.0  0.35300  0.55800  0.67400  1.0000
  F   F12       1.0  0.13400  0.61600  0.88400  1.0000
  F   F13       1.0  0.76300  0.82600  0.94200  1.0000
  F   F14       1.0  0.35300  0.82600  0.94200  1.0000
  Na  Na1       1.0  0.00000  0.00000  0.00000  1.0000
  Na  Na2       1.0  0.50000  0.00000  0.50000  1.0000
  Na  Na3       1.0  0.00000  0.00000  0.50000  1.0000
  Na  Na4       1.0  0.00000  0.50000  0.50000  1.0000
  Ni  Ni1       1.0  0.00000  0.50000  0.00000  1.0000
  Ni  Ni2       1.0  0.50000  0.50000  0.00000  1.0000
