data_image0
_chemical_formula_structural       Al8Zr12
_chemical_formula_sum              "Al8 Zr12"
_cell_length_a       7.66163
_cell_length_b       7.66163
_cell_length_c       6.97687
_cell_angle_alpha    90
_cell_angle_beta     90
_cell_angle_gamma    90

_space_group_name_H-M_alt    "P 1"
_space_group_IT_number       1

loop_
  _space_group_symop_operation_xyz
  'x, y, z'

loop_
  _atom_site_type_symbol
  _atom_site_label
  _atom_site_symmetry_multiplicity
  _atom_site_fract_x
  _atom_site_fract_y
  _atom_site_fract_z
  _atom_site_occupancy
  Al  Al1       1.0  0.12100  0.12100  0.21300  1.0000
  Al  Al2       1.0  0.87900  0.87900  0.21300  1.0000
  Al  Al3       1.0  0.62100  0.37900  0.28700  1.0000
  Al  Al4       1.0  0.37900  0.62100  0.28700  1.0000
  Al  Al5       1.0  0.62100  0.37900  0.71300  1.0000
  Al  Al6       1.0  0.37900  0.62100  0.71300  1.0000
  Al  Al7       1.0  0.12100  0.12100  0.78700  1.0000
  Al  Al8       1.0  0.87900  0.87900  0.78700  1.0000
  Zr  Zr1       1.0  0.80100  0.19900  0.00000  1.0000
  Zr  Zr2       1.0  0.34300  0.34300  0.00000  1.0000
  Zr  Zr3       1.0  0.65700  0.65700  0.00000  1.0000
  Zr  Zr4       1.0  0.19900  0.80100  0.00000  1.0000
  Zr  Zr5       1.0  0.50000  0.00000  0.25000  1.0000
  Zr  Zr6       1.0  0.00000  0.50000  0.25000  1.0000
  Zr  Zr7       1.0  0.84300  0.15700  0.50000  1.0000
  Zr  Zr8       1.0  0.30100  0.30100  0.50000  1.0000
  Zr  Zr9       1.0  0.69900  0.69900  0.50000  1.0000
  Zr  Zr10      1.0  0.15700  0.84300  0.50000  1.0000
  Zr  Zr11      1.0  0.50000  0.00000  0.75000  1.0000
  Zr  Zr12      1.0  0.00000  0.50000  0.75000  1.0000
