data_image0
_chemical_formula_structural       As4Ti6
_chemical_formula_sum              "As4 Ti6"
_cell_length_a       6.5645
_cell_length_b       6.5645
_cell_length_c       6.28633
_cell_angle_alpha    121.475
_cell_angle_beta     58.5251
_cell_angle_gamma    120

_space_group_name_H-M_alt    "P 1"
_space_group_IT_number       1

loop_
  _space_group_symop_operation_xyz
  'x, y, z'

loop_
  _atom_site_type_symbol
  _atom_site_label
  _atom_site_symmetry_multiplicity
  _atom_site_fract_x
  _atom_site_fract_y
  _atom_site_fract_z
  _atom_site_occupancy
  As  As1       1.0  0.62100  0.37900  0.13800  1.0000
  As  As2       1.0  0.87900  0.12100  0.36200  1.0000
  As  As3       1.0  0.12100  0.87900  0.63800  1.0000
  As  As4       1.0  0.37900  0.62100  0.86200  1.0000
  Ti  Ti1       1.0  0.99400  0.49400  0.25000  1.0000
  Ti  Ti2       1.0  0.50600  0.75000  0.25000  1.0000
  Ti  Ti3       1.0  0.25000  0.00594  0.25000  1.0000
  Ti  Ti4       1.0  0.00593  0.50600  0.75000  1.0000
  Ti  Ti5       1.0  0.49400  0.25000  0.75000  1.0000
  Ti  Ti6       1.0  0.75000  0.99400  0.75000  1.0000
