data_image0
_chemical_formula_structural       Ce4Ti6
_chemical_formula_sum              "Ce4 Ti6"
_cell_length_a       7.19635
_cell_length_b       7.19635
_cell_length_c       7.1029
_cell_angle_alpha    120.436
_cell_angle_beta     59.5638
_cell_angle_gamma    120

_space_group_name_H-M_alt    "P 1"
_space_group_IT_number       1

loop_
  _space_group_symop_operation_xyz
  'x, y, z'

loop_
  _atom_site_type_symbol
  _atom_site_label
  _atom_site_symmetry_multiplicity
  _atom_site_fract_x
  _atom_site_fract_y
  _atom_site_fract_z
  _atom_site_occupancy
  Ce  Ce1       1.0  0.59000  0.41000  0.23100  1.0000
  Ce  Ce2       1.0  0.91000  0.08980  0.26900  1.0000
  Ce  Ce3       1.0  0.08980  0.91000  0.73100  1.0000
  Ce  Ce4       1.0  0.41000  0.59000  0.76900  1.0000
  Ti  Ti1       1.0  0.25000  0.95300  0.25000  1.0000
  Ti  Ti2       1.0  0.45300  0.75000  0.25000  1.0000
  Ti  Ti3       1.0  0.04690  0.54700  0.25000  1.0000
  Ti  Ti4       1.0  0.75000  0.04690  0.75000  1.0000
  Ti  Ti5       1.0  0.54700  0.25000  0.75000  1.0000
  Ti  Ti6       1.0  0.95300  0.45300  0.75000  1.0000
