data_image0
_chemical_formula_structural       Au4Ba2F16
_chemical_formula_sum              "Au4 Ba2 F16"
_cell_length_a       7.17577
_cell_length_b       7.61762
_cell_length_c       7.61762
_cell_angle_alpha    102.817
_cell_angle_beta     61.9009
_cell_angle_gamma    118.099

_space_group_name_H-M_alt    "P 1"
_space_group_IT_number       1

loop_
  _space_group_symop_operation_xyz
  'x, y, z'

loop_
  _atom_site_type_symbol
  _atom_site_label
  _atom_site_symmetry_multiplicity
  _atom_site_fract_x
  _atom_site_fract_y
  _atom_site_fract_z
  _atom_site_occupancy
  Au  Au1       1.0  0.78200  0.38000  0.06190  1.0000
  Au  Au2       1.0  0.15600  0.93800  0.38000  1.0000
  Au  Au3       1.0  0.59900  0.06190  0.62000  1.0000
  Au  Au4       1.0  0.46300  0.62000  0.93800  1.0000
  Ba  Ba1       1.0  0.00000  0.00000  0.00000  1.0000
  Ba  Ba2       1.0  0.25000  0.50000  0.50000  1.0000
  F   F1        1.0  0.17500  0.39900  0.09930  1.0000
  F   F2        1.0  0.11500  0.78900  0.14700  1.0000
  F   F3        1.0  0.49600  0.75000  0.18200  1.0000
  F   F4        1.0  0.67400  0.14700  0.21100  1.0000
  F   F5        1.0  0.25400  0.18200  0.25000  1.0000
  F   F6        1.0  0.66100  0.51700  0.30500  1.0000
  F   F7        1.0  0.72500  0.90100  0.39900  1.0000
  F   F8        1.0  0.85500  0.30500  0.48300  1.0000
  F   F9        1.0  0.03360  0.69500  0.51700  1.0000
  F   F10       1.0  0.22400  0.09930  0.60100  1.0000
  F   F11       1.0  0.45000  0.48300  0.69500  1.0000
  F   F12       1.0  0.32200  0.81800  0.75000  1.0000
  F   F13       1.0  0.73900  0.85300  0.78900  1.0000
  F   F14       1.0  0.92800  0.25000  0.81800  1.0000
  F   F15       1.0  0.47200  0.21100  0.85300  1.0000
  F   F16       1.0  0.87500  0.60100  0.90100  1.0000
