data_image0
_chemical_formula_structural       Fe4Nb6
_chemical_formula_sum              "Fe4 Nb6"
_cell_length_a       5.61627
_cell_length_b       5.61627
_cell_length_c       6.60066
_cell_angle_alpha    115.178
_cell_angle_beta     64.822
_cell_angle_gamma    120

_space_group_name_H-M_alt    "P 1"
_space_group_IT_number       1

loop_
  _space_group_symop_operation_xyz
  'x, y, z'

loop_
  _atom_site_type_symbol
  _atom_site_label
  _atom_site_symmetry_multiplicity
  _atom_site_fract_x
  _atom_site_fract_y
  _atom_site_fract_z
  _atom_site_occupancy
  Fe  Fe1       1.0  0.31200  0.68800  0.06280  1.0000
  Fe  Fe2       1.0  0.18800  0.81200  0.43700  1.0000
  Fe  Fe3       1.0  0.81200  0.18800  0.56300  1.0000
  Fe  Fe4       1.0  0.68800  0.31200  0.93700  1.0000
  Nb  Nb1       1.0  0.75600  0.25600  0.25000  1.0000
  Nb  Nb2       1.0  0.74400  0.75000  0.25000  1.0000
  Nb  Nb3       1.0  0.25000  0.24400  0.25000  1.0000
  Nb  Nb4       1.0  0.75000  0.75600  0.75000  1.0000
  Nb  Nb5       1.0  0.25600  0.25000  0.75000  1.0000
  Nb  Nb6       1.0  0.24400  0.74400  0.75000  1.0000
