data_image0
_chemical_formula_structural       Fe4Sc6
_chemical_formula_sum              "Fe4 Sc6"
_cell_length_a       6.09671
_cell_length_b       6.09671
_cell_length_c       6.83977
_cell_angle_alpha    116.467
_cell_angle_beta     63.5331
_cell_angle_gamma    120

_space_group_name_H-M_alt    "P 1"
_space_group_IT_number       1

loop_
  _space_group_symop_operation_xyz
  'x, y, z'

loop_
  _atom_site_type_symbol
  _atom_site_label
  _atom_site_symmetry_multiplicity
  _atom_site_fract_x
  _atom_site_fract_y
  _atom_site_fract_z
  _atom_site_occupancy
  Fe  Fe1       1.0  0.31300  0.68700  0.06080  1.0000
  Fe  Fe2       1.0  0.18700  0.81300  0.43900  1.0000
  Fe  Fe3       1.0  0.81300  0.18700  0.56100  1.0000
  Fe  Fe4       1.0  0.68700  0.31300  0.93900  1.0000
  Sc  Sc1       1.0  0.25000  0.14500  0.25000  1.0000
  Sc  Sc2       1.0  0.85500  0.35500  0.25000  1.0000
  Sc  Sc3       1.0  0.64500  0.75000  0.25000  1.0000
  Sc  Sc4       1.0  0.35500  0.25000  0.75000  1.0000
  Sc  Sc5       1.0  0.14500  0.64500  0.75000  1.0000
  Sc  Sc6       1.0  0.75000  0.85500  0.75000  1.0000
