data_image0
_chemical_formula_structural       Bi4Ti6
_chemical_formula_sum              "Bi4 Ti6"
_cell_length_a       7.05222
_cell_length_b       7.05222
_cell_length_c       6.85129
_cell_angle_alpha    120.975
_cell_angle_beta     59.025
_cell_angle_gamma    120

_space_group_name_H-M_alt    "P 1"
_space_group_IT_number       1

loop_
  _space_group_symop_operation_xyz
  'x, y, z'

loop_
  _atom_site_type_symbol
  _atom_site_label
  _atom_site_symmetry_multiplicity
  _atom_site_fract_x
  _atom_site_fract_y
  _atom_site_fract_z
  _atom_site_occupancy
  Bi  Bi1       1.0  0.60600  0.39400  0.18300  1.0000
  Bi  Bi2       1.0  0.89400  0.10600  0.31700  1.0000
  Bi  Bi3       1.0  0.10600  0.89400  0.68300  1.0000
  Bi  Bi4       1.0  0.39400  0.60600  0.81700  1.0000
  Ti  Ti1       1.0  0.47500  0.75000  0.25000  1.0000
  Ti  Ti2       1.0  0.02480  0.52500  0.25000  1.0000
  Ti  Ti3       1.0  0.25000  0.97500  0.25000  1.0000
  Ti  Ti4       1.0  0.52500  0.25000  0.75000  1.0000
  Ti  Ti5       1.0  0.75000  0.02480  0.75000  1.0000
  Ti  Ti6       1.0  0.97500  0.47500  0.75000  1.0000
