data_image0
_chemical_formula_structural       Cu2O12Rh2Sr6
_chemical_formula_sum              "Cu2 O12 Rh2 Sr6"
_cell_length_a       6.68401
_cell_length_b       6.68401
_cell_length_c       6.67501
_cell_angle_alpha    91.4697
_cell_angle_beta     91.4697
_cell_angle_gamma    92.4488

_space_group_name_H-M_alt    "P 1"
_space_group_IT_number       1

loop_
  _space_group_symop_operation_xyz
  'x, y, z'

loop_
  _atom_site_type_symbol
  _atom_site_label
  _atom_site_symmetry_multiplicity
  _atom_site_fract_x
  _atom_site_fract_y
  _atom_site_fract_z
  _atom_site_occupancy
  Cu  Cu1       1.0  0.30500  0.69500  0.25000  1.0000
  Cu  Cu2       1.0  0.69500  0.30500  0.75000  1.0000
  O   O1        1.0  0.71300  0.39800  0.03670  1.0000
  O   O2        1.0  0.93400  0.78200  0.07310  1.0000
  O   O3        1.0  0.52900  0.89500  0.21300  1.0000
  O   O4        1.0  0.10500  0.47100  0.28700  1.0000
  O   O5        1.0  0.21800  0.06610  0.42700  1.0000
  O   O6        1.0  0.60200  0.28700  0.46300  1.0000
  O   O7        1.0  0.39800  0.71300  0.53700  1.0000
  O   O8        1.0  0.78200  0.93400  0.57300  1.0000
  O   O9        1.0  0.89500  0.52900  0.71300  1.0000
  O   O10       1.0  0.47100  0.10500  0.78700  1.0000
  O   O11       1.0  0.06610  0.21800  0.92700  1.0000
  O   O12       1.0  0.28700  0.60200  0.96300  1.0000
  Rh  Rh1       1.0  0.00000  0.50000  0.00000  1.0000
  Rh  Rh2       1.0  0.50000  0.00000  0.50000  1.0000
  Sr  Sr1       1.0  0.38700  0.24100  0.12400  1.0000
  Sr  Sr2       1.0  0.89300  0.10700  0.25000  1.0000
  Sr  Sr3       1.0  0.75900  0.61300  0.37600  1.0000
  Sr  Sr4       1.0  0.24100  0.38700  0.62400  1.0000
  Sr  Sr5       1.0  0.10700  0.89300  0.75000  1.0000
  Sr  Sr6       1.0  0.61300  0.75900  0.87600  1.0000
