data_image0
_chemical_formula_structural       Fe4Ir6
_chemical_formula_sum              "Fe4 Ir6"
_cell_length_a       6.26355
_cell_length_b       6.26355
_cell_length_c       5.38299
_cell_angle_alpha    125.577
_cell_angle_beta     54.4234
_cell_angle_gamma    120

_space_group_name_H-M_alt    "P 1"
_space_group_IT_number       1

loop_
  _space_group_symop_operation_xyz
  'x, y, z'

loop_
  _atom_site_type_symbol
  _atom_site_label
  _atom_site_symmetry_multiplicity
  _atom_site_fract_x
  _atom_site_fract_y
  _atom_site_fract_z
  _atom_site_occupancy
  Fe  Fe1       1.0  0.58800  0.41200  0.23500  1.0000
  Fe  Fe2       1.0  0.91200  0.08840  0.26500  1.0000
  Fe  Fe3       1.0  0.08840  0.91200  0.73500  1.0000
  Fe  Fe4       1.0  0.41200  0.58800  0.76500  1.0000
  Ir  Ir1       1.0  0.99400  0.49400  0.25000  1.0000
  Ir  Ir2       1.0  0.50600  0.75000  0.25000  1.0000
  Ir  Ir3       1.0  0.25000  0.00588  0.25000  1.0000
  Ir  Ir4       1.0  0.75000  0.99400  0.75000  1.0000
  Ir  Ir5       1.0  0.49400  0.25000  0.75000  1.0000
  Ir  Ir6       1.0  0.00588  0.50600  0.75000  1.0000
