data_image0
_chemical_formula_structural       B4Fe6
_chemical_formula_sum              "B4 Fe6"
_cell_length_a       5.03869
_cell_length_b       5.03869
_cell_length_c       5.13228
_cell_angle_alpha    119.399
_cell_angle_beta     60.6014
_cell_angle_gamma    120

_space_group_name_H-M_alt    "P 1"
_space_group_IT_number       1

loop_
  _space_group_symop_operation_xyz
  'x, y, z'

loop_
  _atom_site_type_symbol
  _atom_site_label
  _atom_site_symmetry_multiplicity
  _atom_site_fract_x
  _atom_site_fract_y
  _atom_site_fract_z
  _atom_site_occupancy
  B   B1        1.0  0.31900  0.68100  0.04180  1.0000
  B   B2        1.0  0.18100  0.81900  0.45800  1.0000
  B   B3        1.0  0.81900  0.18100  0.54200  1.0000
  B   B4        1.0  0.68100  0.31900  0.95800  1.0000
  Fe  Fe1       1.0  0.61500  0.75000  0.25000  1.0000
  Fe  Fe2       1.0  0.88500  0.38500  0.25000  1.0000
  Fe  Fe3       1.0  0.25000  0.11500  0.25000  1.0000
  Fe  Fe4       1.0  0.75000  0.88500  0.75000  1.0000
  Fe  Fe5       1.0  0.11500  0.61500  0.75000  1.0000
  Fe  Fe6       1.0  0.38500  0.25000  0.75000  1.0000
