data_image0
_chemical_formula_structural       Cl12Eu8O2
_chemical_formula_sum              "Cl12 Eu8 O2"
_cell_length_a       9.24338
_cell_length_b       9.24343
_cell_length_c       7.02193
_cell_angle_alpha    90
_cell_angle_beta     90
_cell_angle_gamma    120

_space_group_name_H-M_alt    "P 1"
_space_group_IT_number       1

loop_
  _space_group_symop_operation_xyz
  'x, y, z'

loop_
  _atom_site_type_symbol
  _atom_site_label
  _atom_site_symmetry_multiplicity
  _atom_site_fract_x
  _atom_site_fract_y
  _atom_site_fract_z
  _atom_site_occupancy
  Cl  Cl1       1.0  0.53400  0.06760  0.21500  1.0000
  Cl  Cl2       1.0  0.93200  0.46600  0.21500  1.0000
  Cl  Cl3       1.0  0.53400  0.46600  0.21500  1.0000
  Cl  Cl4       1.0  0.71700  0.85800  0.39100  1.0000
  Cl  Cl5       1.0  0.14200  0.85800  0.39100  1.0000
  Cl  Cl6       1.0  0.14200  0.28300  0.39100  1.0000
  Cl  Cl7       1.0  0.46600  0.93200  0.71500  1.0000
  Cl  Cl8       1.0  0.46600  0.53400  0.71500  1.0000
  Cl  Cl9       1.0  0.06750  0.53400  0.71500  1.0000
  Cl  Cl10      1.0  0.85800  0.14200  0.89100  1.0000
  Cl  Cl11      1.0  0.28300  0.14200  0.89100  1.0000
  Cl  Cl12      1.0  0.85800  0.71700  0.89100  1.0000
  Eu  Eu1       1.0  0.19800  0.39500  0.00202  1.0000
  Eu  Eu2       1.0  0.60500  0.80200  0.00203  1.0000
  Eu  Eu3       1.0  0.19800  0.80200  0.00203  1.0000
  Eu  Eu4       1.0  0.33300  0.66700  0.43100  1.0000
  Eu  Eu5       1.0  0.80200  0.60500  0.50200  1.0000
  Eu  Eu6       1.0  0.80200  0.19800  0.50200  1.0000
  Eu  Eu7       1.0  0.39500  0.19800  0.50200  1.0000
  Eu  Eu8       1.0  0.66700  0.33300  0.93100  1.0000
  O   O1        1.0  0.33300  0.66700  0.10600  1.0000
  O   O2        1.0  0.66700  0.33300  0.60600  1.0000
