data_image0
_chemical_formula_structural       Fe4Gd6
_chemical_formula_sum              "Fe4 Gd6"
_cell_length_a       6.9199
_cell_length_b       6.9199
_cell_length_c       7.0767
_cell_angle_alpha    119.27
_cell_angle_beta     60.7303
_cell_angle_gamma    120

_space_group_name_H-M_alt    "P 1"
_space_group_IT_number       1

loop_
  _space_group_symop_operation_xyz
  'x, y, z'

loop_
  _atom_site_type_symbol
  _atom_site_label
  _atom_site_symmetry_multiplicity
  _atom_site_fract_x
  _atom_site_fract_y
  _atom_site_fract_z
  _atom_site_occupancy
  Fe  Fe1       1.0  0.33000  0.67000  0.01060  1.0000
  Fe  Fe2       1.0  0.17000  0.83000  0.48900  1.0000
  Fe  Fe3       1.0  0.83000  0.17000  0.51100  1.0000
  Fe  Fe4       1.0  0.67000  0.33000  0.98900  1.0000
  Gd  Gd1       1.0  0.57000  0.75000  0.25000  1.0000
  Gd  Gd2       1.0  0.25000  0.06980  0.25000  1.0000
  Gd  Gd3       1.0  0.93000  0.43000  0.25000  1.0000
  Gd  Gd4       1.0  0.06980  0.57000  0.75000  1.0000
  Gd  Gd5       1.0  0.75000  0.93000  0.75000  1.0000
  Gd  Gd6       1.0  0.43000  0.25000  0.75000  1.0000
