data_image0
_chemical_formula_structural       Fe4Mg6
_chemical_formula_sum              "Fe4 Mg6"
_cell_length_a       5.6808
_cell_length_b       5.6808
_cell_length_c       7.06587
_cell_angle_alpha    113.703
_cell_angle_beta     66.2974
_cell_angle_gamma    120

_space_group_name_H-M_alt    "P 1"
_space_group_IT_number       1

loop_
  _space_group_symop_operation_xyz
  'x, y, z'

loop_
  _atom_site_type_symbol
  _atom_site_label
  _atom_site_symmetry_multiplicity
  _atom_site_fract_x
  _atom_site_fract_y
  _atom_site_fract_z
  _atom_site_occupancy
  Fe  Fe1       1.0  0.30600  0.69400  0.08150  1.0000
  Fe  Fe2       1.0  0.19400  0.80600  0.41900  1.0000
  Fe  Fe3       1.0  0.80600  0.19400  0.58100  1.0000
  Fe  Fe4       1.0  0.69400  0.30600  0.91900  1.0000
  Mg  Mg1       1.0  0.25000  0.24600  0.25000  1.0000
  Mg  Mg2       1.0  0.75400  0.25400  0.25000  1.0000
  Mg  Mg3       1.0  0.74600  0.75000  0.25000  1.0000
  Mg  Mg4       1.0  0.25400  0.25000  0.75000  1.0000
  Mg  Mg5       1.0  0.24600  0.74600  0.75000  1.0000
  Mg  Mg6       1.0  0.75000  0.75400  0.75000  1.0000
