data_image0
_chemical_formula_structural       B4Mg6
_chemical_formula_sum              "B4 Mg6"
_cell_length_a       6.79115
_cell_length_b       6.79115
_cell_length_c       5.82026
_cell_angle_alpha    125.69
_cell_angle_beta     54.3095
_cell_angle_gamma    120

_space_group_name_H-M_alt    "P 1"
_space_group_IT_number       1

loop_
  _space_group_symop_operation_xyz
  'x, y, z'

loop_
  _atom_site_type_symbol
  _atom_site_label
  _atom_site_symmetry_multiplicity
  _atom_site_fract_x
  _atom_site_fract_y
  _atom_site_fract_z
  _atom_site_occupancy
  B   B1        1.0  0.33000  0.67000  0.00965  1.0000
  B   B2        1.0  0.17000  0.83000  0.49000  1.0000
  B   B3        1.0  0.83000  0.17000  0.51000  1.0000
  B   B4        1.0  0.67000  0.33000  0.99000  1.0000
  Mg  Mg1       1.0  0.59100  0.75000  0.25000  1.0000
  Mg  Mg2       1.0  0.90900  0.40900  0.25000  1.0000
  Mg  Mg3       1.0  0.25000  0.09140  0.25000  1.0000
  Mg  Mg4       1.0  0.75000  0.90900  0.75000  1.0000
  Mg  Mg5       1.0  0.09150  0.59100  0.75000  1.0000
  Mg  Mg6       1.0  0.40900  0.25000  0.75000  1.0000
