data_image0
_chemical_formula_structural       Fe4Pm6
_chemical_formula_sum              "Fe4 Pm6"
_cell_length_a       7.13624
_cell_length_b       7.13624
_cell_length_c       7.18505
_cell_angle_alpha    119.776
_cell_angle_beta     60.2245
_cell_angle_gamma    120

_space_group_name_H-M_alt    "P 1"
_space_group_IT_number       1

loop_
  _space_group_symop_operation_xyz
  'x, y, z'

loop_
  _atom_site_type_symbol
  _atom_site_label
  _atom_site_symmetry_multiplicity
  _atom_site_fract_x
  _atom_site_fract_y
  _atom_site_fract_z
  _atom_site_occupancy
  Fe  Fe1       1.0  0.32800  0.67200  0.01680  1.0000
  Fe  Fe2       1.0  0.17200  0.82800  0.48300  1.0000
  Fe  Fe3       1.0  0.82800  0.17200  0.51700  1.0000
  Fe  Fe4       1.0  0.67200  0.32800  0.98300  1.0000
  Pm  Pm1       1.0  0.57500  0.75000  0.25000  1.0000
  Pm  Pm2       1.0  0.92500  0.42500  0.25000  1.0000
  Pm  Pm3       1.0  0.25000  0.07540  0.25000  1.0000
  Pm  Pm4       1.0  0.75000  0.92500  0.75000  1.0000
  Pm  Pm5       1.0  0.07540  0.57500  0.75000  1.0000
  Pm  Pm6       1.0  0.42500  0.25000  0.75000  1.0000
