data_image0
_chemical_formula_structural       Ca4O14Sb4
_chemical_formula_sum              "Ca4 O14 Sb4"
_cell_length_a       7.32425
_cell_length_b       7.31201
_cell_length_c       7.31201
_cell_angle_alpha    118.665
_cell_angle_beta     120.055
_cell_angle_gamma    59.9446

_space_group_name_H-M_alt    "P 1"
_space_group_IT_number       1

loop_
  _space_group_symop_operation_xyz
  'x, y, z'

loop_
  _atom_site_type_symbol
  _atom_site_label
  _atom_site_symmetry_multiplicity
  _atom_site_fract_x
  _atom_site_fract_y
  _atom_site_fract_z
  _atom_site_occupancy
  Ca  Ca1       1.0  0.00000  0.00000  0.00000  1.0000
  Ca  Ca2       1.0  0.00000  0.50000  0.00000  1.0000
  Ca  Ca3       1.0  0.50000  0.50000  0.00000  1.0000
  Ca  Ca4       1.0  0.50000  0.50000  0.50000  1.0000
  O   O1        1.0  0.40500  0.32600  0.13600  1.0000
  O   O2        1.0  0.90500  0.36400  0.17400  1.0000
  O   O3        1.0  0.40700  0.94300  0.17900  1.0000
  O   O4        1.0  0.82900  0.94300  0.17900  1.0000
  O   O5        1.0  0.25000  0.89900  0.39900  1.0000
  O   O6        1.0  0.09310  0.67900  0.44300  1.0000
  O   O7        1.0  0.67100  0.67900  0.44300  1.0000
  O   O8        1.0  0.32900  0.32100  0.55700  1.0000
  O   O9        1.0  0.90700  0.32100  0.55700  1.0000
  O   O10       1.0  0.75000  0.10100  0.60100  1.0000
  O   O11       1.0  0.17100  0.05720  0.82100  1.0000
  O   O12       1.0  0.59300  0.05720  0.82100  1.0000
  O   O13       1.0  0.09510  0.63600  0.82600  1.0000
  O   O14       1.0  0.59500  0.67400  0.86400  1.0000
  Sb  Sb1       1.0  0.50000  0.00000  0.00000  1.0000
  Sb  Sb2       1.0  0.00000  0.50000  0.50000  1.0000
  Sb  Sb3       1.0  0.00000  0.00000  0.50000  1.0000
  Sb  Sb4       1.0  0.50000  0.00000  0.50000  1.0000
