data_image0
_chemical_formula_structural       P6Pt12Sm4
_chemical_formula_sum              "P6 Pt12 Sm4"
_cell_length_a       23.1027
_cell_length_b       4.13859
_cell_length_c       4.13859
_cell_angle_alpha    90
_cell_angle_beta     95.1388
_cell_angle_gamma    95.1388

_space_group_name_H-M_alt    "P 1"
_space_group_IT_number       1

loop_
  _space_group_symop_operation_xyz
  'x, y, z'

loop_
  _atom_site_type_symbol
  _atom_site_label
  _atom_site_symmetry_multiplicity
  _atom_site_fract_x
  _atom_site_fract_y
  _atom_site_fract_z
  _atom_site_occupancy
  P   P1        1.0  0.59900  0.80000  0.04970  1.0000
  P   P2        1.0  0.75000  0.37500  0.12500  1.0000
  P   P3        1.0  0.09930  0.55000  0.30000  1.0000
  P   P4        1.0  0.90100  0.45000  0.70000  1.0000
  P   P5        1.0  0.25000  0.62500  0.87500  1.0000
  P   P6        1.0  0.40100  0.20000  0.95000  1.0000
  Pt  Pt1       1.0  0.54500  0.27300  0.02270  1.0000
  Pt  Pt2       1.0  0.70200  0.85100  0.10100  1.0000
  Pt  Pt3       1.0  0.95500  0.47700  0.22700  1.0000
  Pt  Pt4       1.0  0.04900  0.02450  0.27400  1.0000
  Pt  Pt5       1.0  0.20200  0.60100  0.35100  1.0000
  Pt  Pt6       1.0  0.45100  0.22600  0.47600  1.0000
  Pt  Pt7       1.0  0.54900  0.77400  0.52400  1.0000
  Pt  Pt8       1.0  0.79800  0.39900  0.64900  1.0000
  Pt  Pt9       1.0  0.95100  0.97600  0.72600  1.0000
  Pt  Pt10      1.0  0.04540  0.52300  0.77300  1.0000
  Pt  Pt11      1.0  0.29800  0.14900  0.89900  1.0000
  Pt  Pt12      1.0  0.45500  0.72700  0.97700  1.0000
  Sm  Sm1       1.0  0.84900  0.92500  0.17500  1.0000
  Sm  Sm2       1.0  0.34900  0.67500  0.42500  1.0000
  Sm  Sm3       1.0  0.65100  0.32500  0.57500  1.0000
  Sm  Sm4       1.0  0.15100  0.07550  0.82500  1.0000
