data_image0
_chemical_formula_structural       Fe4Pb6
_chemical_formula_sum              "Fe4 Pb6"
_cell_length_a       6.71883
_cell_length_b       6.71883
_cell_length_c       7.06737
_cell_angle_alpha    118.382
_cell_angle_beta     61.6184
_cell_angle_gamma    120

_space_group_name_H-M_alt    "P 1"
_space_group_IT_number       1

loop_
  _space_group_symop_operation_xyz
  'x, y, z'

loop_
  _atom_site_type_symbol
  _atom_site_label
  _atom_site_symmetry_multiplicity
  _atom_site_fract_x
  _atom_site_fract_y
  _atom_site_fract_z
  _atom_site_occupancy
  Fe  Fe1       1.0  0.31600  0.68400  0.05180  1.0000
  Fe  Fe2       1.0  0.18400  0.81600  0.44800  1.0000
  Fe  Fe3       1.0  0.81600  0.18400  0.55200  1.0000
  Fe  Fe4       1.0  0.68400  0.31600  0.94800  1.0000
  Pb  Pb1       1.0  0.87600  0.37600  0.25000  1.0000
  Pb  Pb2       1.0  0.62400  0.75000  0.25000  1.0000
  Pb  Pb3       1.0  0.25000  0.12400  0.25000  1.0000
  Pb  Pb4       1.0  0.75000  0.87600  0.75000  1.0000
  Pb  Pb5       1.0  0.37600  0.25000  0.75000  1.0000
  Pb  Pb6       1.0  0.12400  0.62400  0.75000  1.0000
