data_image0
_chemical_formula_structural       B4Ti6
_chemical_formula_sum              "B4 Ti6"
_cell_length_a       5.60077
_cell_length_b       5.60077
_cell_length_c       5.74948
_cell_angle_alpha    119.148
_cell_angle_beta     60.852
_cell_angle_gamma    120

_space_group_name_H-M_alt    "P 1"
_space_group_IT_number       1

loop_
  _space_group_symop_operation_xyz
  'x, y, z'

loop_
  _atom_site_type_symbol
  _atom_site_label
  _atom_site_symmetry_multiplicity
  _atom_site_fract_x
  _atom_site_fract_y
  _atom_site_fract_z
  _atom_site_occupancy
  B   B1        1.0  0.31400  0.68600  0.05820  1.0000
  B   B2        1.0  0.18600  0.81400  0.44200  1.0000
  B   B3        1.0  0.81400  0.18600  0.55800  1.0000
  B   B4        1.0  0.68600  0.31400  0.94200  1.0000
  Ti  Ti1       1.0  0.61000  0.75000  0.25000  1.0000
  Ti  Ti2       1.0  0.89000  0.39000  0.25000  1.0000
  Ti  Ti3       1.0  0.25000  0.11000  0.25000  1.0000
  Ti  Ti4       1.0  0.75000  0.89000  0.75000  1.0000
  Ti  Ti5       1.0  0.11000  0.61000  0.75000  1.0000
  Ti  Ti6       1.0  0.39000  0.25000  0.75000  1.0000
