data_image0
_chemical_formula_structural       B4Ni6
_chemical_formula_sum              "B4 Ni6"
_cell_length_a       5.08893
_cell_length_b       5.08893
_cell_length_c       5.08919
_cell_angle_alpha    119.998
_cell_angle_beta     60.0016
_cell_angle_gamma    120

_space_group_name_H-M_alt    "P 1"
_space_group_IT_number       1

loop_
  _space_group_symop_operation_xyz
  'x, y, z'

loop_
  _atom_site_type_symbol
  _atom_site_label
  _atom_site_symmetry_multiplicity
  _atom_site_fract_x
  _atom_site_fract_y
  _atom_site_fract_z
  _atom_site_occupancy
  B   B1        1.0  0.32300  0.67700  0.02970  1.0000
  B   B2        1.0  0.17700  0.82300  0.47000  1.0000
  B   B3        1.0  0.82300  0.17700  0.53000  1.0000
  B   B4        1.0  0.67700  0.32300  0.97000  1.0000
  Ni  Ni1       1.0  0.60400  0.75000  0.25000  1.0000
  Ni  Ni2       1.0  0.89600  0.39600  0.25000  1.0000
  Ni  Ni3       1.0  0.25000  0.10400  0.25000  1.0000
  Ni  Ni4       1.0  0.75000  0.89600  0.75000  1.0000
  Ni  Ni5       1.0  0.10400  0.60400  0.75000  1.0000
  Ni  Ni6       1.0  0.39600  0.25000  0.75000  1.0000
