data_image0
_chemical_formula_structural       Ga4Mg6
_chemical_formula_sum              "Ga4 Mg6"
_cell_length_a       6.42865
_cell_length_b       6.42865
_cell_length_c       7.22071
_cell_angle_alpha    116.433
_cell_angle_beta     63.5669
_cell_angle_gamma    120

_space_group_name_H-M_alt    "P 1"
_space_group_IT_number       1

loop_
  _space_group_symop_operation_xyz
  'x, y, z'

loop_
  _atom_site_type_symbol
  _atom_site_label
  _atom_site_symmetry_multiplicity
  _atom_site_fract_x
  _atom_site_fract_y
  _atom_site_fract_z
  _atom_site_occupancy
  Ga  Ga1       1.0  0.31600  0.68400  0.05300  1.0000
  Ga  Ga2       1.0  0.18400  0.81600  0.44700  1.0000
  Ga  Ga3       1.0  0.81600  0.18400  0.55300  1.0000
  Ga  Ga4       1.0  0.68400  0.31600  0.94700  1.0000
  Mg  Mg1       1.0  0.25000  0.16000  0.25000  1.0000
  Mg  Mg2       1.0  0.84000  0.34000  0.25000  1.0000
  Mg  Mg3       1.0  0.66000  0.75000  0.25000  1.0000
  Mg  Mg4       1.0  0.34000  0.25000  0.75000  1.0000
  Mg  Mg5       1.0  0.16000  0.66000  0.75000  1.0000
  Mg  Mg6       1.0  0.75000  0.84000  0.75000  1.0000
