data_image0
_chemical_formula_structural       Ni2O12Rh2Sr6
_chemical_formula_sum              "Ni2 O12 Rh2 Sr6"
_cell_length_a       6.64236
_cell_length_b       6.64236
_cell_length_c       6.64236
_cell_angle_alpha    92.2678
_cell_angle_beta     92.2678
_cell_angle_gamma    92.2678

_space_group_name_H-M_alt    "P 1"
_space_group_IT_number       1

loop_
  _space_group_symop_operation_xyz
  'x, y, z'

loop_
  _atom_site_type_symbol
  _atom_site_label
  _atom_site_symmetry_multiplicity
  _atom_site_fract_x
  _atom_site_fract_y
  _atom_site_fract_z
  _atom_site_occupancy
  Ni  Ni1       1.0  0.25000  0.25000  0.25000  1.0000
  Ni  Ni2       1.0  0.75000  0.75000  0.75000  1.0000
  O   O1        1.0  0.91100  0.70900  0.03500  1.0000
  O   O2        1.0  0.29100  0.96500  0.08930  1.0000
  O   O3        1.0  0.41100  0.53500  0.20900  1.0000
  O   O4        1.0  0.96500  0.08930  0.29100  1.0000
  O   O5        1.0  0.53500  0.20900  0.41100  1.0000
  O   O6        1.0  0.79100  0.58900  0.46500  1.0000
  O   O7        1.0  0.20900  0.41100  0.53500  1.0000
  O   O8        1.0  0.46500  0.79100  0.58900  1.0000
  O   O9        1.0  0.03500  0.91100  0.70900  1.0000
  O   O10       1.0  0.58900  0.46500  0.79100  1.0000
  O   O11       1.0  0.70900  0.03500  0.91100  1.0000
  O   O12       1.0  0.08930  0.29100  0.96500  1.0000
  Rh  Rh1       1.0  0.00000  0.00000  0.00000  1.0000
  Rh  Rh2       1.0  0.50000  0.50000  0.50000  1.0000
  Sr  Sr1       1.0  0.75000  0.38300  0.11700  1.0000
  Sr  Sr2       1.0  0.61700  0.88300  0.25000  1.0000
  Sr  Sr3       1.0  0.11700  0.75000  0.38300  1.0000
  Sr  Sr4       1.0  0.88300  0.25000  0.61700  1.0000
  Sr  Sr5       1.0  0.38300  0.11700  0.75000  1.0000
  Sr  Sr6       1.0  0.25000  0.61700  0.88300  1.0000
