data_image0
_chemical_formula_structural       Cr4Ga12Hf6
_chemical_formula_sum              "Cr4 Ga12 Hf6"
_cell_length_a       8.71849
_cell_length_b       5.32023
_cell_length_c       7.72299
_cell_angle_alpha    90
_cell_angle_beta     90
_cell_angle_gamma    90

_space_group_name_H-M_alt    "P 1"
_space_group_IT_number       1

loop_
  _space_group_symop_operation_xyz
  'x, y, z'

loop_
  _atom_site_type_symbol
  _atom_site_label
  _atom_site_symmetry_multiplicity
  _atom_site_fract_x
  _atom_site_fract_y
  _atom_site_fract_z
  _atom_site_occupancy
  Cr  Cr1       1.0  0.00000  0.00000  0.50000  1.0000
  Cr  Cr2       1.0  0.50000  0.00000  0.50000  1.0000
  Cr  Cr3       1.0  0.00000  0.50000  0.50000  1.0000
  Cr  Cr4       1.0  0.50000  0.50000  0.50000  1.0000
  Ga  Ga1       1.0  0.25000  0.01070  0.03810  1.0000
  Ga  Ga2       1.0  0.25000  0.48900  0.03810  1.0000
  Ga  Ga3       1.0  0.06280  0.75000  0.23300  1.0000
  Ga  Ga4       1.0  0.43700  0.75000  0.23300  1.0000
  Ga  Ga5       1.0  0.25000  0.25000  0.36600  1.0000
  Ga  Ga6       1.0  0.75000  0.25000  0.43800  1.0000
  Ga  Ga7       1.0  0.25000  0.75000  0.56200  1.0000
  Ga  Ga8       1.0  0.75000  0.75000  0.63400  1.0000
  Ga  Ga9       1.0  0.56300  0.25000  0.76700  1.0000
  Ga  Ga10      1.0  0.93700  0.25000  0.76700  1.0000
  Ga  Ga11      1.0  0.75000  0.51100  0.96200  1.0000
  Ga  Ga12      1.0  0.75000  0.98900  0.96200  1.0000
  Hf  Hf1       1.0  0.52900  0.25000  0.15700  1.0000
  Hf  Hf2       1.0  0.97100  0.25000  0.15700  1.0000
  Hf  Hf3       1.0  0.75000  0.75000  0.28500  1.0000
  Hf  Hf4       1.0  0.25000  0.25000  0.71500  1.0000
  Hf  Hf5       1.0  0.02910  0.75000  0.84300  1.0000
  Hf  Hf6       1.0  0.47100  0.75000  0.84300  1.0000
