data_image0
_chemical_formula_structural       Cr4Na4O14
_chemical_formula_sum              "Cr4 Na4 O14"
_cell_length_a       6.74032
_cell_length_b       6.80035
_cell_length_c       7.06862
_cell_angle_alpha    66.1464
_cell_angle_beta     89.7211
_cell_angle_gamma    94.71

_space_group_name_H-M_alt    "P 1"
_space_group_IT_number       1

loop_
  _space_group_symop_operation_xyz
  'x, y, z'

loop_
  _atom_site_type_symbol
  _atom_site_label
  _atom_site_symmetry_multiplicity
  _atom_site_fract_x
  _atom_site_fract_y
  _atom_site_fract_z
  _atom_site_occupancy
  Cr  Cr1       1.0  0.88700  0.65100  0.19100  1.0000
  Cr  Cr2       1.0  0.34500  0.24400  0.23700  1.0000
  Cr  Cr3       1.0  0.65500  0.75600  0.76300  1.0000
  Cr  Cr4       1.0  0.11300  0.34900  0.80900  1.0000
  Na  Na1       1.0  0.86000  0.13400  0.23300  1.0000
  Na  Na2       1.0  0.38500  0.74400  0.34200  1.0000
  Na  Na3       1.0  0.61500  0.25600  0.65800  1.0000
  Na  Na4       1.0  0.14000  0.86600  0.76700  1.0000
  O   O1        1.0  0.18000  0.37900  0.04120  1.0000
  O   O2        1.0  0.52400  0.16100  0.14300  1.0000
  O   O3        1.0  0.11000  0.77800  0.14400  1.0000
  O   O4        1.0  0.73400  0.79400  0.24600  1.0000
  O   O5        1.0  0.43600  0.40600  0.33900  1.0000
  O   O6        1.0  0.88200  0.40900  0.37400  1.0000
  O   O7        1.0  0.21800  0.03270  0.41200  1.0000
  O   O8        1.0  0.78200  0.96700  0.58800  1.0000
  O   O9        1.0  0.11800  0.59100  0.62600  1.0000
  O   O10       1.0  0.56400  0.59400  0.66100  1.0000
  O   O11       1.0  0.26600  0.20600  0.75400  1.0000
  O   O12       1.0  0.89000  0.22200  0.85600  1.0000
  O   O13       1.0  0.47600  0.83900  0.85700  1.0000
  O   O14       1.0  0.82000  0.62100  0.95900  1.0000
