data_image0
_chemical_formula_structural       Al4Br16Ti2
_chemical_formula_sum              "Al4 Br16 Ti2"
_cell_length_a       6.34456
_cell_length_b       12.983
_cell_length_c       9.20136
_cell_angle_alpha    90
_cell_angle_beta     90
_cell_angle_gamma    90

_space_group_name_H-M_alt    "P 1"
_space_group_IT_number       1

loop_
  _space_group_symop_operation_xyz
  'x, y, z'

loop_
  _atom_site_type_symbol
  _atom_site_label
  _atom_site_symmetry_multiplicity
  _atom_site_fract_x
  _atom_site_fract_y
  _atom_site_fract_z
  _atom_site_occupancy
  Al  Al1       1.0  0.10700  0.31700  0.49200  1.0000
  Al  Al2       1.0  0.89300  0.68300  0.49200  1.0000
  Al  Al3       1.0  0.60700  0.18300  0.99200  1.0000
  Al  Al4       1.0  0.39300  0.81700  0.99200  1.0000
  Br  Br1       1.0  0.74700  0.09000  0.19000  1.0000
  Br  Br2       1.0  0.25300  0.91000  0.19000  1.0000
  Br  Br3       1.0  0.24800  0.41000  0.29400  1.0000
  Br  Br4       1.0  0.75200  0.59000  0.29400  1.0000
  Br  Br5       1.0  0.20700  0.14900  0.49100  1.0000
  Br  Br6       1.0  0.79300  0.85100  0.49100  1.0000
  Br  Br7       1.0  0.73400  0.32500  0.49200  1.0000
  Br  Br8       1.0  0.26600  0.67500  0.49200  1.0000
  Br  Br9       1.0  0.24700  0.41000  0.69000  1.0000
  Br  Br10      1.0  0.75300  0.59000  0.69000  1.0000
  Br  Br11      1.0  0.74800  0.08980  0.79400  1.0000
  Br  Br12      1.0  0.25200  0.91000  0.79400  1.0000
  Br  Br13      1.0  0.70700  0.35100  0.99100  1.0000
  Br  Br14      1.0  0.29300  0.64900  0.99100  1.0000
  Br  Br15      1.0  0.23400  0.17500  0.99200  1.0000
  Br  Br16      1.0  0.76600  0.82500  0.99200  1.0000
  Ti  Ti1       1.0  0.50000  0.50000  0.49100  1.0000
  Ti  Ti2       1.0  0.00000  0.00000  0.99100  1.0000
