data_image0
_chemical_formula_structural       Bi8O14
_chemical_formula_sum              "Bi8 O14"
_cell_length_a       6.73179
_cell_length_b       6.93355
_cell_length_c       7.82678
_cell_angle_alpha    72.6076
_cell_angle_beta     89.0511
_cell_angle_gamma    77.7115

_space_group_name_H-M_alt    "P 1"
_space_group_IT_number       1

loop_
  _space_group_symop_operation_xyz
  'x, y, z'

loop_
  _atom_site_type_symbol
  _atom_site_label
  _atom_site_symmetry_multiplicity
  _atom_site_fract_x
  _atom_site_fract_y
  _atom_site_fract_z
  _atom_site_occupancy
  Bi  Bi1       1.0  0.00000  0.00000  0.00000  1.0000
  Bi  Bi2       1.0  0.73500  0.52300  0.11700  1.0000
  Bi  Bi3       1.0  0.47400  0.00632  0.25600  1.0000
  Bi  Bi4       1.0  0.26700  0.50900  0.37700  1.0000
  Bi  Bi5       1.0  0.00000  0.00000  0.50000  1.0000
  Bi  Bi6       1.0  0.73300  0.49100  0.62300  1.0000
  Bi  Bi7       1.0  0.52600  0.99400  0.74400  1.0000
  Bi  Bi8       1.0  0.26500  0.47700  0.88300  1.0000
  O   O1        1.0  0.09530  0.67600  0.03950  1.0000
  O   O2        1.0  0.70900  0.94700  0.05810  1.0000
  O   O3        1.0  0.47000  0.37200  0.18600  1.0000
  O   O4        1.0  0.11500  0.90900  0.27400  1.0000
  O   O5        1.0  0.53000  0.65600  0.36000  1.0000
  O   O6        1.0  0.89900  0.32300  0.37100  1.0000
  O   O7        1.0  0.71400  0.92300  0.48000  1.0000
  O   O8        1.0  0.28600  0.07660  0.52000  1.0000
  O   O9        1.0  0.10100  0.67700  0.62900  1.0000
  O   O10       1.0  0.47000  0.34400  0.64000  1.0000
  O   O11       1.0  0.88500  0.09070  0.72600  1.0000
  O   O12       1.0  0.53000  0.62800  0.81400  1.0000
  O   O13       1.0  0.29100  0.05320  0.94200  1.0000
  O   O14       1.0  0.90500  0.32400  0.96000  1.0000
