data_image0
_chemical_formula_structural       Fe4V6
_chemical_formula_sum              "Fe4 V6"
_cell_length_a       5.08145
_cell_length_b       5.08146
_cell_length_c       6.2969
_cell_angle_alpha    113.796
_cell_angle_beta     66.2035
_cell_angle_gamma    120

_space_group_name_H-M_alt    "P 1"
_space_group_IT_number       1

loop_
  _space_group_symop_operation_xyz
  'x, y, z'

loop_
  _atom_site_type_symbol
  _atom_site_label
  _atom_site_symmetry_multiplicity
  _atom_site_fract_x
  _atom_site_fract_y
  _atom_site_fract_z
  _atom_site_occupancy
  Fe  Fe1       1.0  0.31500  0.68500  0.05410  1.0000
  Fe  Fe2       1.0  0.18500  0.81500  0.44600  1.0000
  Fe  Fe3       1.0  0.81500  0.18500  0.55400  1.0000
  Fe  Fe4       1.0  0.68500  0.31500  0.94600  1.0000
  V   V1        1.0  0.75100  0.25100  0.25000  1.0000
  V   V2        1.0  0.74900  0.75000  0.25000  1.0000
  V   V3        1.0  0.25000  0.24900  0.25000  1.0000
  V   V4        1.0  0.75000  0.75100  0.75000  1.0000
  V   V5        1.0  0.25100  0.25000  0.75000  1.0000
  V   V6        1.0  0.24900  0.74900  0.75000  1.0000
