data_image0
_chemical_formula_structural       K4Mg6
_chemical_formula_sum              "K4 Mg6"
_cell_length_a       8.72176
_cell_length_b       8.72176
_cell_length_c       8.31293
_cell_angle_alpha    121.641
_cell_angle_beta     58.3593
_cell_angle_gamma    120

_space_group_name_H-M_alt    "P 1"
_space_group_IT_number       1

loop_
  _space_group_symop_operation_xyz
  'x, y, z'

loop_
  _atom_site_type_symbol
  _atom_site_label
  _atom_site_symmetry_multiplicity
  _atom_site_fract_x
  _atom_site_fract_y
  _atom_site_fract_z
  _atom_site_occupancy
  K   K1        1.0  0.59000  0.41000  0.23100  1.0000
  K   K2        1.0  0.91000  0.08950  0.26900  1.0000
  K   K3        1.0  0.08950  0.91000  0.73100  1.0000
  K   K4        1.0  0.41000  0.59000  0.76900  1.0000
  Mg  Mg1       1.0  0.45600  0.75000  0.25000  1.0000
  Mg  Mg2       1.0  0.04450  0.54400  0.25000  1.0000
  Mg  Mg3       1.0  0.25000  0.95600  0.25000  1.0000
  Mg  Mg4       1.0  0.54400  0.25000  0.75000  1.0000
  Mg  Mg5       1.0  0.95600  0.45600  0.75000  1.0000
  Mg  Mg6       1.0  0.75000  0.04450  0.75000  1.0000
