data_image0
_chemical_formula_structural       Fe4Mo6
_chemical_formula_sum              "Fe4 Mo6"
_cell_length_a       6.18251
_cell_length_b       6.18251
_cell_length_c       5.60384
_cell_angle_alpha    123.479
_cell_angle_beta     56.521
_cell_angle_gamma    120

_space_group_name_H-M_alt    "P 1"
_space_group_IT_number       1

loop_
  _space_group_symop_operation_xyz
  'x, y, z'

loop_
  _atom_site_type_symbol
  _atom_site_label
  _atom_site_symmetry_multiplicity
  _atom_site_fract_x
  _atom_site_fract_y
  _atom_site_fract_z
  _atom_site_occupancy
  Fe  Fe1       1.0  0.58800  0.41200  0.23600  1.0000
  Fe  Fe2       1.0  0.91200  0.08800  0.26400  1.0000
  Fe  Fe3       1.0  0.08800  0.91200  0.73600  1.0000
  Fe  Fe4       1.0  0.41200  0.58800  0.76400  1.0000
  Mo  Mo1       1.0  0.51100  0.75000  0.25000  1.0000
  Mo  Mo2       1.0  0.98900  0.48900  0.25000  1.0000
  Mo  Mo3       1.0  0.25000  0.01060  0.25000  1.0000
  Mo  Mo4       1.0  0.01060  0.51100  0.75000  1.0000
  Mo  Mo5       1.0  0.48900  0.25000  0.75000  1.0000
  Mo  Mo6       1.0  0.75000  0.98900  0.75000  1.0000
