data_image0
_chemical_formula_structural       Mg4Mn6
_chemical_formula_sum              "Mg4 Mn6"
_cell_length_a       6.23037
_cell_length_b       6.23037
_cell_length_c       5.97716
_cell_angle_alpha    121.412
_cell_angle_beta     58.5884
_cell_angle_gamma    120

_space_group_name_H-M_alt    "P 1"
_space_group_IT_number       1

loop_
  _space_group_symop_operation_xyz
  'x, y, z'

loop_
  _atom_site_type_symbol
  _atom_site_label
  _atom_site_symmetry_multiplicity
  _atom_site_fract_x
  _atom_site_fract_y
  _atom_site_fract_z
  _atom_site_occupancy
  Mg  Mg1       1.0  0.59100  0.40900  0.22600  1.0000
  Mg  Mg2       1.0  0.90900  0.09130  0.27400  1.0000
  Mg  Mg3       1.0  0.09130  0.90900  0.72600  1.0000
  Mg  Mg4       1.0  0.40900  0.59100  0.77400  1.0000
  Mn  Mn1       1.0  0.46200  0.75000  0.25000  1.0000
  Mn  Mn2       1.0  0.03810  0.53800  0.25000  1.0000
  Mn  Mn3       1.0  0.25000  0.96200  0.25000  1.0000
  Mn  Mn4       1.0  0.53800  0.25000  0.75000  1.0000
  Mn  Mn5       1.0  0.75000  0.03810  0.75000  1.0000
  Mn  Mn6       1.0  0.96200  0.46200  0.75000  1.0000
