data_image0
_chemical_formula_structural       Fe4Ru6
_chemical_formula_sum              "Fe4 Ru6"
_cell_length_a       6.15609
_cell_length_b       6.15609
_cell_length_c       5.34541
_cell_angle_alpha    125.158
_cell_angle_beta     54.8423
_cell_angle_gamma    120

_space_group_name_H-M_alt    "P 1"
_space_group_IT_number       1

loop_
  _space_group_symop_operation_xyz
  'x, y, z'

loop_
  _atom_site_type_symbol
  _atom_site_label
  _atom_site_symmetry_multiplicity
  _atom_site_fract_x
  _atom_site_fract_y
  _atom_site_fract_z
  _atom_site_occupancy
  Fe  Fe1       1.0  0.59200  0.40800  0.22500  1.0000
  Fe  Fe2       1.0  0.90800  0.09170  0.27500  1.0000
  Fe  Fe3       1.0  0.09170  0.90800  0.72500  1.0000
  Fe  Fe4       1.0  0.40800  0.59200  0.77500  1.0000
  Ru  Ru1       1.0  0.25000  0.01120  0.25000  1.0000
  Ru  Ru2       1.0  0.51100  0.75000  0.25000  1.0000
  Ru  Ru3       1.0  0.98900  0.48900  0.25000  1.0000
  Ru  Ru4       1.0  0.75000  0.98900  0.75000  1.0000
  Ru  Ru5       1.0  0.48900  0.25000  0.75000  1.0000
  Ru  Ru6       1.0  0.01120  0.51100  0.75000  1.0000
