data_image0
_chemical_formula_structural       Al4V6
_chemical_formula_sum              "Al4 V6"
_cell_length_a       5.0412
_cell_length_b       5.0412
_cell_length_c       7.33746
_cell_angle_alpha    110.092
_cell_angle_beta     69.9082
_cell_angle_gamma    120

_space_group_name_H-M_alt    "P 1"
_space_group_IT_number       1

loop_
  _space_group_symop_operation_xyz
  'x, y, z'

loop_
  _atom_site_type_symbol
  _atom_site_label
  _atom_site_symmetry_multiplicity
  _atom_site_fract_x
  _atom_site_fract_y
  _atom_site_fract_z
  _atom_site_occupancy
  Al  Al1       1.0  0.31000  0.69000  0.07070  1.0000
  Al  Al2       1.0  0.19000  0.81000  0.42900  1.0000
  Al  Al3       1.0  0.81000  0.19000  0.57100  1.0000
  Al  Al4       1.0  0.69000  0.31000  0.92900  1.0000
  V   V1        1.0  0.25000  0.25000  0.25000  1.0000
  V   V2        1.0  0.75000  0.25000  0.25000  1.0000
  V   V3        1.0  0.75000  0.75000  0.25000  1.0000
  V   V4        1.0  0.25000  0.25000  0.75000  1.0000
  V   V5        1.0  0.25000  0.75000  0.75000  1.0000
  V   V6        1.0  0.75000  0.75000  0.75000  1.0000
