data_image0
_chemical_formula_structural       Cr4O14Rb4
_chemical_formula_sum              "Cr4 O14 Rb4"
_cell_length_a       7.43788
_cell_length_b       7.57152
_cell_length_c       7.62895
_cell_angle_alpha    91.3814
_cell_angle_beta     90
_cell_angle_gamma    119.418

_space_group_name_H-M_alt    "P 1"
_space_group_IT_number       1

loop_
  _space_group_symop_operation_xyz
  'x, y, z'

loop_
  _atom_site_type_symbol
  _atom_site_label
  _atom_site_symmetry_multiplicity
  _atom_site_fract_x
  _atom_site_fract_y
  _atom_site_fract_z
  _atom_site_occupancy
  Cr  Cr1       1.0  0.57000  0.79700  0.14200  1.0000
  Cr  Cr2       1.0  0.77300  0.20300  0.35800  1.0000
  Cr  Cr3       1.0  0.22700  0.79700  0.64200  1.0000
  Cr  Cr4       1.0  0.43000  0.20300  0.85800  1.0000
  O   O1        1.0  0.25000  0.11500  0.00603  1.0000
  O   O2        1.0  0.34700  0.63900  0.05390  1.0000
  O   O3        1.0  0.95300  0.31900  0.21500  1.0000
  O   O4        1.0  0.55200  0.00000  0.25000  1.0000
  O   O5        1.0  0.63400  0.68100  0.28500  1.0000
  O   O6        1.0  0.70800  0.36100  0.44600  1.0000
  O   O7        1.0  0.13500  0.88500  0.49400  1.0000
  O   O8        1.0  0.86500  0.11500  0.50600  1.0000
  O   O9        1.0  0.29200  0.63900  0.55400  1.0000
  O   O10       1.0  0.36600  0.31900  0.71500  1.0000
  O   O11       1.0  0.44800  0.00000  0.75000  1.0000
  O   O12       1.0  0.04670  0.68100  0.78500  1.0000
  O   O13       1.0  0.65300  0.36100  0.94600  1.0000
  O   O14       1.0  0.75000  0.88500  0.99400  1.0000
  Rb  Rb1       1.0  0.00645  0.71200  0.15300  1.0000
  Rb  Rb2       1.0  0.29400  0.28800  0.34700  1.0000
  Rb  Rb3       1.0  0.70600  0.71200  0.65300  1.0000
  Rb  Rb4       1.0  0.99400  0.28800  0.84700  1.0000
