data_image0
_chemical_formula_structural       Fe4Th6
_chemical_formula_sum              "Fe4 Th6"
_cell_length_a       6.75299
_cell_length_b       6.75299
_cell_length_c       7.315
_cell_angle_alpha    117.489
_cell_angle_beta     62.5106
_cell_angle_gamma    120

_space_group_name_H-M_alt    "P 1"
_space_group_IT_number       1

loop_
  _space_group_symop_operation_xyz
  'x, y, z'

loop_
  _atom_site_type_symbol
  _atom_site_label
  _atom_site_symmetry_multiplicity
  _atom_site_fract_x
  _atom_site_fract_y
  _atom_site_fract_z
  _atom_site_occupancy
  Fe  Fe1       1.0  0.32700  0.67300  0.01770  1.0000
  Fe  Fe2       1.0  0.17300  0.82700  0.48200  1.0000
  Fe  Fe3       1.0  0.82700  0.17300  0.51800  1.0000
  Fe  Fe4       1.0  0.67300  0.32700  0.98200  1.0000
  Th  Th1       1.0  0.25000  0.09200  0.25000  1.0000
  Th  Th2       1.0  0.90800  0.40800  0.25000  1.0000
  Th  Th3       1.0  0.59200  0.75000  0.25000  1.0000
  Th  Th4       1.0  0.40800  0.25000  0.75000  1.0000
  Th  Th5       1.0  0.09200  0.59200  0.75000  1.0000
  Th  Th6       1.0  0.75000  0.90800  0.75000  1.0000
