data_image0
_chemical_formula_structural       Fe4Ti6
_chemical_formula_sum              "Fe4 Ti6"
_cell_length_a       5.52454
_cell_length_b       5.52454
_cell_length_c       6.49439
_cell_angle_alpha    115.172
_cell_angle_beta     64.8283
_cell_angle_gamma    120

_space_group_name_H-M_alt    "P 1"
_space_group_IT_number       1

loop_
  _space_group_symop_operation_xyz
  'x, y, z'

loop_
  _atom_site_type_symbol
  _atom_site_label
  _atom_site_symmetry_multiplicity
  _atom_site_fract_x
  _atom_site_fract_y
  _atom_site_fract_z
  _atom_site_occupancy
  Fe  Fe1       1.0  0.32400  0.67600  0.02860  1.0000
  Fe  Fe2       1.0  0.17600  0.82400  0.47100  1.0000
  Fe  Fe3       1.0  0.82400  0.17600  0.52900  1.0000
  Fe  Fe4       1.0  0.67600  0.32400  0.97100  1.0000
  Ti  Ti1       1.0  0.25000  0.12700  0.25000  1.0000
  Ti  Ti2       1.0  0.87300  0.37300  0.25000  1.0000
  Ti  Ti3       1.0  0.62700  0.75000  0.25000  1.0000
  Ti  Ti4       1.0  0.37300  0.25000  0.75000  1.0000
  Ti  Ti5       1.0  0.12700  0.62700  0.75000  1.0000
  Ti  Ti6       1.0  0.75000  0.87300  0.75000  1.0000
