data_image0
_chemical_formula_structural       Br16Nb6
_chemical_formula_sum              "Br16 Nb6"
_cell_length_a       7.12093
_cell_length_b       7.1214
_cell_length_c       13.7748
_cell_angle_alpha    104.985
_cell_angle_beta     90.0011
_cell_angle_gamma    120.002

_space_group_name_H-M_alt    "P 1"
_space_group_IT_number       1

loop_
  _space_group_symop_operation_xyz
  'x, y, z'

loop_
  _atom_site_type_symbol
  _atom_site_label
  _atom_site_symmetry_multiplicity
  _atom_site_fract_x
  _atom_site_fract_y
  _atom_site_fract_z
  _atom_site_occupancy
  Br  Br1       1.0  0.36500  0.73100  0.09580  1.0000
  Br  Br2       1.0  0.37400  0.25500  0.13700  1.0000
  Br  Br3       1.0  0.88200  0.76300  0.13700  1.0000
  Br  Br4       1.0  0.88200  0.25500  0.13700  1.0000
  Br  Br5       1.0  0.78500  0.57000  0.35400  1.0000
  Br  Br6       1.0  0.29400  0.58900  0.38100  1.0000
  Br  Br7       1.0  0.79200  0.08630  0.38100  1.0000
  Br  Br8       1.0  0.29400  0.08630  0.38100  1.0000
  Br  Br9       1.0  0.70600  0.91400  0.61900  1.0000
  Br  Br10      1.0  0.20800  0.91400  0.61900  1.0000
  Br  Br11      1.0  0.70600  0.41100  0.61900  1.0000
  Br  Br12      1.0  0.21500  0.43000  0.64600  1.0000
  Br  Br13      1.0  0.11800  0.74500  0.86300  1.0000
  Br  Br14      1.0  0.11800  0.23700  0.86300  1.0000
  Br  Br15      1.0  0.62600  0.74500  0.86300  1.0000
  Br  Br16      1.0  0.63500  0.26900  0.90400  1.0000
  Nb  Nb1       1.0  0.55000  0.10100  0.24700  1.0000
  Nb  Nb2       1.0  0.55000  0.69600  0.24700  1.0000
  Nb  Nb3       1.0  0.14600  0.69600  0.24700  1.0000
  Nb  Nb4       1.0  0.85400  0.30400  0.75300  1.0000
  Nb  Nb5       1.0  0.45000  0.30400  0.75300  1.0000
  Nb  Nb6       1.0  0.45000  0.89900  0.75300  1.0000
