data_image0
_chemical_formula_structural       In9Pt13
_chemical_formula_sum              "In9 Pt13"
_cell_length_a       7.22005
_cell_length_b       7.22005
_cell_length_c       9.0259
_cell_angle_alpha    108.04
_cell_angle_beta     107.759
_cell_angle_gamma    103.389

_space_group_name_H-M_alt    "P 1"
_space_group_IT_number       1

loop_
  _space_group_symop_operation_xyz
  'x, y, z'

loop_
  _atom_site_type_symbol
  _atom_site_label
  _atom_site_symmetry_multiplicity
  _atom_site_fract_x
  _atom_site_fract_y
  _atom_site_fract_z
  _atom_site_occupancy
  In  In1       1.0  0.17800  0.94000  0.11800  1.0000
  In  In2       1.0  0.70500  0.46200  0.16700  1.0000
  In  In3       1.0  0.24900  0.48300  0.30900  1.0000
  In  In4       1.0  0.82600  0.06040  0.30900  1.0000
  In  In5       1.0  0.50000  0.00000  0.50000  1.0000
  In  In6       1.0  0.17400  0.94000  0.69100  1.0000
  In  In7       1.0  0.75100  0.51700  0.69100  1.0000
  In  In8       1.0  0.29500  0.53800  0.83300  1.0000
  In  In9       1.0  0.82200  0.06000  0.88200  1.0000
  Pt  Pt1       1.0  0.50000  0.00000  0.00000  1.0000
  Pt  Pt2       1.0  0.24900  0.24900  0.00000  1.0000
  Pt  Pt3       1.0  0.00000  0.50000  0.00000  1.0000
  Pt  Pt4       1.0  0.75100  0.75100  0.00000  1.0000
  Pt  Pt5       1.0  0.45500  0.72300  0.17800  1.0000
  Pt  Pt6       1.0  0.54100  0.28000  0.34100  1.0000
  Pt  Pt7       1.0  0.06150  0.80000  0.34100  1.0000
  Pt  Pt8       1.0  0.74400  0.74800  0.49200  1.0000
  Pt  Pt9       1.0  0.00000  0.50000  0.50000  1.0000
  Pt  Pt10      1.0  0.25600  0.25200  0.50800  1.0000
  Pt  Pt11      1.0  0.45900  0.72000  0.65900  1.0000
  Pt  Pt12      1.0  0.93800  0.20000  0.65900  1.0000
  Pt  Pt13      1.0  0.54500  0.27700  0.82200  1.0000
