data_image0
_chemical_formula_structural       Cd4Ni6
_chemical_formula_sum              "Cd4 Ni6"
_cell_length_a       6.17538
_cell_length_b       6.17538
_cell_length_c       5.94052
_cell_angle_alpha    121.317
_cell_angle_beta     58.6833
_cell_angle_gamma    120

_space_group_name_H-M_alt    "P 1"
_space_group_IT_number       1

loop_
  _space_group_symop_operation_xyz
  'x, y, z'

loop_
  _atom_site_type_symbol
  _atom_site_label
  _atom_site_symmetry_multiplicity
  _atom_site_fract_x
  _atom_site_fract_y
  _atom_site_fract_z
  _atom_site_occupancy
  Cd  Cd1       1.0  0.59400  0.40600  0.21700  1.0000
  Cd  Cd2       1.0  0.90600  0.09430  0.28300  1.0000
  Cd  Cd3       1.0  0.09430  0.90600  0.71700  1.0000
  Cd  Cd4       1.0  0.40600  0.59400  0.78300  1.0000
  Ni  Ni1       1.0  0.02810  0.52800  0.25000  1.0000
  Ni  Ni2       1.0  0.47200  0.75000  0.25000  1.0000
  Ni  Ni3       1.0  0.25000  0.97200  0.25000  1.0000
  Ni  Ni4       1.0  0.75000  0.02810  0.75000  1.0000
  Ni  Ni5       1.0  0.52800  0.25000  0.75000  1.0000
  Ni  Ni6       1.0  0.97200  0.47200  0.75000  1.0000
