data_image0
_chemical_formula_structural       Ga12Hf6V4
_chemical_formula_sum              "Ga12 Hf6 V4"
_cell_length_a       8.82727
_cell_length_b       5.3796
_cell_length_c       7.76408
_cell_angle_alpha    90
_cell_angle_beta     90
_cell_angle_gamma    90

_space_group_name_H-M_alt    "P 1"
_space_group_IT_number       1

loop_
  _space_group_symop_operation_xyz
  'x, y, z'

loop_
  _atom_site_type_symbol
  _atom_site_label
  _atom_site_symmetry_multiplicity
  _atom_site_fract_x
  _atom_site_fract_y
  _atom_site_fract_z
  _atom_site_occupancy
  Ga  Ga1       1.0  0.25000  0.01000  0.03910  1.0000
  Ga  Ga2       1.0  0.25000  0.49000  0.03910  1.0000
  Ga  Ga3       1.0  0.06160  0.75000  0.22900  1.0000
  Ga  Ga4       1.0  0.43800  0.75000  0.22900  1.0000
  Ga  Ga5       1.0  0.25000  0.25000  0.36600  1.0000
  Ga  Ga6       1.0  0.75000  0.25000  0.43600  1.0000
  Ga  Ga7       1.0  0.25000  0.75000  0.56400  1.0000
  Ga  Ga8       1.0  0.75000  0.75000  0.63400  1.0000
  Ga  Ga9       1.0  0.56200  0.25000  0.77100  1.0000
  Ga  Ga10      1.0  0.93800  0.25000  0.77100  1.0000
  Ga  Ga11      1.0  0.75000  0.51000  0.96100  1.0000
  Ga  Ga12      1.0  0.75000  0.99000  0.96100  1.0000
  Hf  Hf1       1.0  0.52900  0.25000  0.15500  1.0000
  Hf  Hf2       1.0  0.97100  0.25000  0.15500  1.0000
  Hf  Hf3       1.0  0.75000  0.75000  0.28300  1.0000
  Hf  Hf4       1.0  0.25000  0.25000  0.71700  1.0000
  Hf  Hf5       1.0  0.02920  0.75000  0.84500  1.0000
  Hf  Hf6       1.0  0.47100  0.75000  0.84500  1.0000
  V   V1        1.0  0.00000  0.00000  0.50000  1.0000
  V   V2        1.0  0.50000  0.00000  0.50000  1.0000
  V   V3        1.0  0.00000  0.50000  0.50000  1.0000
  V   V4        1.0  0.50000  0.50000  0.50000  1.0000
