data_image0
_chemical_formula_structural       K3O14V5
_chemical_formula_sum              "K3 O14 V5"
_cell_length_a       8.70358
_cell_length_b       8.7036
_cell_length_c       4.86983
_cell_angle_alpha    90.0002
_cell_angle_beta     89.9999
_cell_angle_gamma    120

_space_group_name_H-M_alt    "P 1"
_space_group_IT_number       1

loop_
  _space_group_symop_operation_xyz
  'x, y, z'

loop_
  _atom_site_type_symbol
  _atom_site_label
  _atom_site_symmetry_multiplicity
  _atom_site_fract_x
  _atom_site_fract_y
  _atom_site_fract_z
  _atom_site_occupancy
  K   K1        1.0  0.00000  0.60600  0.99200  1.0000
  K   K2        1.0  0.39400  0.39400  0.99200  1.0000
  K   K3        1.0  0.60600  0.00000  0.99200  1.0000
  O   O1        1.0  0.53800  0.70500  0.34700  1.0000
  O   O2        1.0  0.46200  0.16700  0.34700  1.0000
  O   O3        1.0  0.29500  0.83300  0.34700  1.0000
  O   O4        1.0  0.70500  0.53800  0.34700  1.0000
  O   O5        1.0  0.16700  0.46200  0.34700  1.0000
  O   O6        1.0  0.83300  0.29500  0.34700  1.0000
  O   O7        1.0  0.00000  0.82900  0.38600  1.0000
  O   O8        1.0  0.17100  0.17100  0.38600  1.0000
  O   O9        1.0  0.82900  0.00000  0.38600  1.0000
  O   O10       1.0  0.76300  0.76300  0.80300  1.0000
  O   O11       1.0  0.23700  0.00000  0.80300  1.0000
  O   O12       1.0  0.00000  0.23700  0.80300  1.0000
  O   O13       1.0  0.33300  0.66700  0.81000  1.0000
  O   O14       1.0  0.66700  0.33300  0.81000  1.0000
  V   V1        1.0  0.77400  0.77400  0.46900  1.0000
  V   V2        1.0  0.22600  0.00000  0.46900  1.0000
  V   V3        1.0  0.00000  0.22600  0.46900  1.0000
  V   V4        1.0  0.66700  0.33300  0.47100  1.0000
  V   V5        1.0  0.33300  0.66700  0.47100  1.0000
