data_image0
_chemical_formula_structural       Ag10O8P2Te2
_chemical_formula_sum              "Ag10 O8 P2 Te2"
_cell_length_a       7.00446
_cell_length_b       7.00446
_cell_length_c       7.36349
_cell_angle_alpha    90
_cell_angle_beta     90
_cell_angle_gamma    90

_space_group_name_H-M_alt    "P 1"
_space_group_IT_number       1

loop_
  _space_group_symop_operation_xyz
  'x, y, z'

loop_
  _atom_site_type_symbol
  _atom_site_label
  _atom_site_symmetry_multiplicity
  _atom_site_fract_x
  _atom_site_fract_y
  _atom_site_fract_z
  _atom_site_occupancy
  Ag  Ag1       1.0  0.52800  0.52800  0.19700  1.0000
  Ag  Ag2       1.0  0.97200  0.52800  0.19700  1.0000
  Ag  Ag3       1.0  0.52800  0.97200  0.19700  1.0000
  Ag  Ag4       1.0  0.97200  0.97200  0.19700  1.0000
  Ag  Ag5       1.0  0.75000  0.75000  0.46100  1.0000
  Ag  Ag6       1.0  0.25000  0.25000  0.53900  1.0000
  Ag  Ag7       1.0  0.02760  0.02760  0.80300  1.0000
  Ag  Ag8       1.0  0.47200  0.02760  0.80300  1.0000
  Ag  Ag9       1.0  0.02760  0.47200  0.80300  1.0000
  Ag  Ag10      1.0  0.47200  0.47200  0.80300  1.0000
  O   O1        1.0  0.56700  0.25000  0.37900  1.0000
  O   O2        1.0  0.93300  0.25000  0.37900  1.0000
  O   O3        1.0  0.25000  0.56700  0.37900  1.0000
  O   O4        1.0  0.25000  0.93300  0.37900  1.0000
  O   O5        1.0  0.75000  0.06650  0.62100  1.0000
  O   O6        1.0  0.75000  0.43300  0.62100  1.0000
  O   O7        1.0  0.06650  0.75000  0.62100  1.0000
  O   O8        1.0  0.43300  0.75000  0.62100  1.0000
  P   P1        1.0  0.75000  0.25000  0.50000  1.0000
  P   P2        1.0  0.25000  0.75000  0.50000  1.0000
  Te  Te1       1.0  0.25000  0.25000  0.01570  1.0000
  Te  Te2       1.0  0.75000  0.75000  0.98400  1.0000
