data_image0
_chemical_formula_structural       Au4Mg6
_chemical_formula_sum              "Au4 Mg6"
_cell_length_a       6.31678
_cell_length_b       6.31678
_cell_length_c       7.25001
_cell_angle_alpha    115.826
_cell_angle_beta     64.174
_cell_angle_gamma    120

_space_group_name_H-M_alt    "P 1"
_space_group_IT_number       1

loop_
  _space_group_symop_operation_xyz
  'x, y, z'

loop_
  _atom_site_type_symbol
  _atom_site_label
  _atom_site_symmetry_multiplicity
  _atom_site_fract_x
  _atom_site_fract_y
  _atom_site_fract_z
  _atom_site_occupancy
  Au  Au1       1.0  0.32300  0.67700  0.03050  1.0000
  Au  Au2       1.0  0.17700  0.82300  0.46900  1.0000
  Au  Au3       1.0  0.82300  0.17700  0.53100  1.0000
  Au  Au4       1.0  0.67700  0.32300  0.96900  1.0000
  Mg  Mg1       1.0  0.25000  0.13500  0.25000  1.0000
  Mg  Mg2       1.0  0.86500  0.36500  0.25000  1.0000
  Mg  Mg3       1.0  0.63500  0.75000  0.25000  1.0000
  Mg  Mg4       1.0  0.36500  0.25000  0.75000  1.0000
  Mg  Mg5       1.0  0.13500  0.63500  0.75000  1.0000
  Mg  Mg6       1.0  0.75000  0.86500  0.75000  1.0000
