data_image0
_chemical_formula_structural       Hg4Mg6
_chemical_formula_sum              "Hg4 Mg6"
_cell_length_a       7.00842
_cell_length_b       7.00842
_cell_length_c       7.50154
_cell_angle_alpha    117.848
_cell_angle_beta     62.1517
_cell_angle_gamma    120

_space_group_name_H-M_alt    "P 1"
_space_group_IT_number       1

loop_
  _space_group_symop_operation_xyz
  'x, y, z'

loop_
  _atom_site_type_symbol
  _atom_site_label
  _atom_site_symmetry_multiplicity
  _atom_site_fract_x
  _atom_site_fract_y
  _atom_site_fract_z
  _atom_site_occupancy
  Hg  Hg1       1.0  0.65000  0.35000  0.05100  1.0000
  Hg  Hg2       1.0  0.85000  0.15000  0.44900  1.0000
  Hg  Hg3       1.0  0.15000  0.85000  0.55100  1.0000
  Hg  Hg4       1.0  0.35000  0.65000  0.94900  1.0000
  Mg  Mg1       1.0  0.55200  0.75000  0.25000  1.0000
  Mg  Mg2       1.0  0.94800  0.44800  0.25000  1.0000
  Mg  Mg3       1.0  0.25000  0.05250  0.25000  1.0000
  Mg  Mg4       1.0  0.75000  0.94800  0.75000  1.0000
  Mg  Mg5       1.0  0.05250  0.55200  0.75000  1.0000
  Mg  Mg6       1.0  0.44800  0.25000  0.75000  1.0000
