data_image0
_chemical_formula_structural       CuK2N6O12Pb
_chemical_formula_sum              "Cu1 K2 N6 O12 Pb1"
_cell_length_a       7.13592
_cell_length_b       7.13592
_cell_length_c       7.13592
_cell_angle_alpha    60
_cell_angle_beta     60
_cell_angle_gamma    60

_space_group_name_H-M_alt    "P 1"
_space_group_IT_number       1

loop_
  _space_group_symop_operation_xyz
  'x, y, z'

loop_
  _atom_site_type_symbol
  _atom_site_label
  _atom_site_symmetry_multiplicity
  _atom_site_fract_x
  _atom_site_fract_y
  _atom_site_fract_z
  _atom_site_occupancy
  Cu  Cu1       1.0  0.00000  0.00000  0.00000  1.0000
  K   K1        1.0  0.25000  0.25000  0.25000  1.0000
  K   K2        1.0  0.75000  0.75000  0.75000  1.0000
  N   N1        1.0  0.79900  0.20100  0.20100  1.0000
  N   N2        1.0  0.20100  0.79900  0.79900  1.0000
  N   N3        1.0  0.20100  0.79900  0.20100  1.0000
  N   N4        1.0  0.20100  0.20100  0.79900  1.0000
  N   N5        1.0  0.79900  0.20100  0.79900  1.0000
  N   N6        1.0  0.79900  0.79900  0.20100  1.0000
  O   O1        1.0  0.37200  0.15700  0.84300  1.0000
  O   O2        1.0  0.15700  0.37200  0.62800  1.0000
  O   O3        1.0  0.62800  0.84300  0.15700  1.0000
  O   O4        1.0  0.84300  0.62800  0.37200  1.0000
  O   O5        1.0  0.84300  0.37200  0.15700  1.0000
  O   O6        1.0  0.15700  0.84300  0.37200  1.0000
  O   O7        1.0  0.37200  0.84300  0.62800  1.0000
  O   O8        1.0  0.37200  0.62800  0.15700  1.0000
  O   O9        1.0  0.62800  0.15700  0.37200  1.0000
  O   O10       1.0  0.84300  0.15700  0.62800  1.0000
  O   O11       1.0  0.15700  0.62800  0.84300  1.0000
  O   O12       1.0  0.62800  0.37200  0.84300  1.0000
  Pb  Pb1       1.0  0.50000  0.50000  0.50000  1.0000
