data_image0
_chemical_formula_structural       Fe4Tm6
_chemical_formula_sum              "Fe4 Tm6"
_cell_length_a       6.71393
_cell_length_b       6.71393
_cell_length_c       6.91684
_cell_angle_alpha    119.034
_cell_angle_beta     60.9658
_cell_angle_gamma    120

_space_group_name_H-M_alt    "P 1"
_space_group_IT_number       1

loop_
  _space_group_symop_operation_xyz
  'x, y, z'

loop_
  _atom_site_type_symbol
  _atom_site_label
  _atom_site_symmetry_multiplicity
  _atom_site_fract_x
  _atom_site_fract_y
  _atom_site_fract_z
  _atom_site_occupancy
  Fe  Fe1       1.0  0.31900  0.68100  0.04350  1.0000
  Fe  Fe2       1.0  0.18100  0.81900  0.45700  1.0000
  Fe  Fe3       1.0  0.81900  0.18100  0.54300  1.0000
  Fe  Fe4       1.0  0.68100  0.31900  0.95700  1.0000
  Tm  Tm1       1.0  0.91700  0.41700  0.25000  1.0000
  Tm  Tm2       1.0  0.58300  0.75000  0.25000  1.0000
  Tm  Tm3       1.0  0.25000  0.08260  0.25000  1.0000
  Tm  Tm4       1.0  0.75000  0.91700  0.75000  1.0000
  Tm  Tm5       1.0  0.41700  0.25000  0.75000  1.0000
  Tm  Tm6       1.0  0.08260  0.58300  0.75000  1.0000
