data_image0
_chemical_formula_structural       Ba8Cl4N8W2
_chemical_formula_sum              "Ba8 Cl4 N8 W2"
_cell_length_a       6.19055
_cell_length_b       8.50662
_cell_length_c       10.7923
_cell_angle_alpha    98.9944
_cell_angle_beta     90
_cell_angle_gamma    90

_space_group_name_H-M_alt    "P 1"
_space_group_IT_number       1

loop_
  _space_group_symop_operation_xyz
  'x, y, z'

loop_
  _atom_site_type_symbol
  _atom_site_label
  _atom_site_symmetry_multiplicity
  _atom_site_fract_x
  _atom_site_fract_y
  _atom_site_fract_z
  _atom_site_occupancy
  Ba  Ba1       1.0  0.75000  0.18600  0.08890  1.0000
  Ba  Ba2       1.0  0.75000  0.71300  0.29100  1.0000
  Ba  Ba3       1.0  0.25000  0.00273  0.37200  1.0000
  Ba  Ba4       1.0  0.25000  0.44500  0.37700  1.0000
  Ba  Ba5       1.0  0.75000  0.55500  0.62300  1.0000
  Ba  Ba6       1.0  0.75000  0.99700  0.62800  1.0000
  Ba  Ba7       1.0  0.25000  0.28700  0.70900  1.0000
  Ba  Ba8       1.0  0.25000  0.81400  0.91100  1.0000
  Cl  Cl1       1.0  0.25000  0.16000  0.09800  1.0000
  Cl  Cl2       1.0  0.25000  0.67200  0.16400  1.0000
  Cl  Cl3       1.0  0.75000  0.32800  0.83600  1.0000
  Cl  Cl4       1.0  0.75000  0.84000  0.90200  1.0000
  N   N1        1.0  0.75000  0.03540  0.28900  1.0000
  N   N2        1.0  0.75000  0.39000  0.29800  1.0000
  N   N3        1.0  0.00200  0.75400  0.49700  1.0000
  N   N4        1.0  0.49800  0.75400  0.49700  1.0000
  N   N5        1.0  0.50200  0.24600  0.50300  1.0000
  N   N6        1.0  0.99800  0.24600  0.50300  1.0000
  N   N7        1.0  0.25000  0.61000  0.70200  1.0000
  N   N8        1.0  0.25000  0.96500  0.71100  1.0000
  W   W1        1.0  0.75000  0.22900  0.40000  1.0000
  W   W2        1.0  0.25000  0.77100  0.60000  1.0000
