data_image0
_chemical_formula_structural       Be4Ni6
_chemical_formula_sum              "Be4 Ni6"
_cell_length_a       4.80107
_cell_length_b       4.80107
_cell_length_c       5.64151
_cell_angle_alpha    115.183
_cell_angle_beta     64.8169
_cell_angle_gamma    120

_space_group_name_H-M_alt    "P 1"
_space_group_IT_number       1

loop_
  _space_group_symop_operation_xyz
  'x, y, z'

loop_
  _atom_site_type_symbol
  _atom_site_label
  _atom_site_symmetry_multiplicity
  _atom_site_fract_x
  _atom_site_fract_y
  _atom_site_fract_z
  _atom_site_occupancy
  Be  Be1       1.0  0.31500  0.68500  0.05410  1.0000
  Be  Be2       1.0  0.18500  0.81500  0.44600  1.0000
  Be  Be3       1.0  0.81500  0.18500  0.55400  1.0000
  Be  Be4       1.0  0.68500  0.31500  0.94600  1.0000
  Ni  Ni1       1.0  0.25000  0.16600  0.25000  1.0000
  Ni  Ni2       1.0  0.83400  0.33400  0.25000  1.0000
  Ni  Ni3       1.0  0.66600  0.75000  0.25000  1.0000
  Ni  Ni4       1.0  0.33400  0.25000  0.75000  1.0000
  Ni  Ni5       1.0  0.16600  0.66600  0.75000  1.0000
  Ni  Ni6       1.0  0.75000  0.83400  0.75000  1.0000
