data_image0
_chemical_formula_structural       Li2O14P4V2
_chemical_formula_sum              "Li2 O14 P4 V2"
_cell_length_a       4.79313
_cell_length_b       8.09779
_cell_length_c       6.944
_cell_angle_alpha    90
_cell_angle_beta     109.672
_cell_angle_gamma    90

_space_group_name_H-M_alt    "P 1"
_space_group_IT_number       1

loop_
  _space_group_symop_operation_xyz
  'x, y, z'

loop_
  _atom_site_type_symbol
  _atom_site_label
  _atom_site_symmetry_multiplicity
  _atom_site_fract_x
  _atom_site_fract_y
  _atom_site_fract_z
  _atom_site_occupancy
  Li  Li1       1.0  0.81300  0.30700  0.31400  1.0000
  Li  Li2       1.0  0.18700  0.80700  0.68600  1.0000
  O   O1        1.0  0.37600  0.87800  0.07460  1.0000
  O   O2        1.0  0.88500  0.13300  0.12200  1.0000
  O   O3        1.0  0.92900  0.75600  0.14400  1.0000
  O   O4        1.0  0.40100  0.59100  0.24300  1.0000
  O   O5        1.0  0.60900  0.12100  0.39400  1.0000
  O   O6        1.0  0.19200  0.97300  0.48200  1.0000
  O   O7        1.0  0.75400  0.78600  0.49800  1.0000
  O   O8        1.0  0.24600  0.28600  0.50200  1.0000
  O   O9        1.0  0.80800  0.47300  0.51800  1.0000
  O   O10       1.0  0.39100  0.62100  0.60600  1.0000
  O   O11       1.0  0.59900  0.09120  0.75700  1.0000
  O   O12       1.0  0.07150  0.25600  0.85600  1.0000
  O   O13       1.0  0.11500  0.63300  0.87800  1.0000
  O   O14       1.0  0.62400  0.37800  0.92500  1.0000
  P   P1        1.0  0.19800  0.72300  0.08110  1.0000
  P   P2        1.0  0.59800  0.62000  0.47900  1.0000
  P   P3        1.0  0.40200  0.12000  0.52100  1.0000
  P   P4        1.0  0.80200  0.22300  0.91900  1.0000
  V   V1        1.0  0.78000  0.93800  0.27000  1.0000
  V   V2        1.0  0.22000  0.43800  0.73000  1.0000
