data_image0
_chemical_formula_structural       Be4Mg6
_chemical_formula_sum              "Be4 Mg6"
_cell_length_a       5.80509
_cell_length_b       5.80509
_cell_length_c       6.8934
_cell_angle_alpha    114.902
_cell_angle_beta     65.0984
_cell_angle_gamma    120

_space_group_name_H-M_alt    "P 1"
_space_group_IT_number       1

loop_
  _space_group_symop_operation_xyz
  'x, y, z'

loop_
  _atom_site_type_symbol
  _atom_site_label
  _atom_site_symmetry_multiplicity
  _atom_site_fract_x
  _atom_site_fract_y
  _atom_site_fract_z
  _atom_site_occupancy
  Be  Be1       1.0  0.30800  0.69200  0.07640  1.0000
  Be  Be2       1.0  0.19200  0.80800  0.42400  1.0000
  Be  Be3       1.0  0.80800  0.19200  0.57600  1.0000
  Be  Be4       1.0  0.69200  0.30800  0.92400  1.0000
  Mg  Mg1       1.0  0.25000  0.17600  0.25000  1.0000
  Mg  Mg2       1.0  0.82400  0.32400  0.25000  1.0000
  Mg  Mg3       1.0  0.67600  0.75000  0.25000  1.0000
  Mg  Mg4       1.0  0.32400  0.25000  0.75000  1.0000
  Mg  Mg5       1.0  0.17600  0.67600  0.75000  1.0000
  Mg  Mg6       1.0  0.75000  0.82400  0.75000  1.0000
