data_image0
_chemical_formula_structural       Mg4Pb6
_chemical_formula_sum              "Mg4 Pb6"
_cell_length_a       6.91257
_cell_length_b       6.91257
_cell_length_c       7.96984
_cell_angle_alpha    115.701
_cell_angle_beta     64.2993
_cell_angle_gamma    120

_space_group_name_H-M_alt    "P 1"
_space_group_IT_number       1

loop_
  _space_group_symop_operation_xyz
  'x, y, z'

loop_
  _atom_site_type_symbol
  _atom_site_label
  _atom_site_symmetry_multiplicity
  _atom_site_fract_x
  _atom_site_fract_y
  _atom_site_fract_z
  _atom_site_occupancy
  Mg  Mg1       1.0  0.31700  0.68300  0.04980  1.0000
  Mg  Mg2       1.0  0.18300  0.81700  0.45000  1.0000
  Mg  Mg3       1.0  0.81700  0.18300  0.55000  1.0000
  Mg  Mg4       1.0  0.68300  0.31700  0.95000  1.0000
  Pb  Pb1       1.0  0.83400  0.33400  0.25000  1.0000
  Pb  Pb2       1.0  0.25000  0.16600  0.25000  1.0000
  Pb  Pb3       1.0  0.66600  0.75000  0.25000  1.0000
  Pb  Pb4       1.0  0.33400  0.25000  0.75000  1.0000
  Pb  Pb5       1.0  0.75000  0.83400  0.75000  1.0000
  Pb  Pb6       1.0  0.16600  0.66600  0.75000  1.0000
