data_image0
_chemical_formula_structural       Fe4Hf6
_chemical_formula_sum              "Fe4 Hf6"
_cell_length_a       6.06154
_cell_length_b       6.06154
_cell_length_c       6.69318
_cell_angle_alpha    116.924
_cell_angle_beta     63.0756
_cell_angle_gamma    120

_space_group_name_H-M_alt    "P 1"
_space_group_IT_number       1

loop_
  _space_group_symop_operation_xyz
  'x, y, z'

loop_
  _atom_site_type_symbol
  _atom_site_label
  _atom_site_symmetry_multiplicity
  _atom_site_fract_x
  _atom_site_fract_y
  _atom_site_fract_z
  _atom_site_occupancy
  Fe  Fe1       1.0  0.31800  0.68200  0.04640  1.0000
  Fe  Fe2       1.0  0.18200  0.81800  0.45400  1.0000
  Fe  Fe3       1.0  0.81800  0.18200  0.54600  1.0000
  Fe  Fe4       1.0  0.68200  0.31800  0.95400  1.0000
  Hf  Hf1       1.0  0.86200  0.36200  0.25000  1.0000
  Hf  Hf2       1.0  0.25000  0.13800  0.25000  1.0000
  Hf  Hf3       1.0  0.63800  0.75000  0.25000  1.0000
  Hf  Hf4       1.0  0.36200  0.25000  0.75000  1.0000
  Hf  Hf5       1.0  0.75000  0.86200  0.75000  1.0000
  Hf  Hf6       1.0  0.13800  0.63800  0.75000  1.0000
