data_image0
_chemical_formula_structural       I14Se2Ta6
_chemical_formula_sum              "I14 Se2 Ta6"
_cell_length_a       7.63557
_cell_length_b       7.63393
_cell_length_c       14.3214
_cell_angle_alpha    90
_cell_angle_beta     90
_cell_angle_gamma    120.007

_space_group_name_H-M_alt    "P 1"
_space_group_IT_number       1

loop_
  _space_group_symop_operation_xyz
  'x, y, z'

loop_
  _atom_site_type_symbol
  _atom_site_label
  _atom_site_symmetry_multiplicity
  _atom_site_fract_x
  _atom_site_fract_y
  _atom_site_fract_z
  _atom_site_occupancy
  I   I1        1.0  0.16800  0.83200  0.11900  1.0000
  I   I2        1.0  0.66400  0.83200  0.11900  1.0000
  I   I3        1.0  0.16800  0.33600  0.11900  1.0000
  I   I4        1.0  0.66700  0.33300  0.15000  1.0000
  I   I5        1.0  0.00422  0.50200  0.35800  1.0000
  I   I6        1.0  0.49800  0.50200  0.35800  1.0000
  I   I7        1.0  0.49800  0.99600  0.35800  1.0000
  I   I8        1.0  0.33600  0.16800  0.61900  1.0000
  I   I9        1.0  0.83200  0.16800  0.61900  1.0000
  I   I10       1.0  0.83200  0.66400  0.61900  1.0000
  I   I11       1.0  0.33300  0.66700  0.65000  1.0000
  I   I12       1.0  0.50200  0.00418  0.85800  1.0000
  I   I13       1.0  0.50200  0.49800  0.85800  1.0000
  I   I14       1.0  0.99600  0.49800  0.85800  1.0000
  Se  Se1       1.0  0.00000  0.00000  0.38200  1.0000
  Se  Se2       1.0  0.00000  0.00000  0.88200  1.0000
  Ta  Ta1       1.0  0.87000  0.74000  0.25000  1.0000
  Ta  Ta2       1.0  0.26000  0.13000  0.25000  1.0000
  Ta  Ta3       1.0  0.87000  0.13000  0.25000  1.0000
  Ta  Ta4       1.0  0.13000  0.26000  0.75000  1.0000
  Ta  Ta5       1.0  0.13000  0.87000  0.75000  1.0000
  Ta  Ta6       1.0  0.74000  0.87000  0.75000  1.0000
