data_image0
_chemical_formula_structural       Au6F16
_chemical_formula_sum              "Au6 F16"
_cell_length_a       4.94666
_cell_length_b       10.6244
_cell_length_c       5.53207
_cell_angle_alpha    90
_cell_angle_beta     89.3725
_cell_angle_gamma    90

_space_group_name_H-M_alt    "P 1"
_space_group_IT_number       1

loop_
  _space_group_symop_operation_xyz
  'x, y, z'

loop_
  _atom_site_type_symbol
  _atom_site_label
  _atom_site_symmetry_multiplicity
  _atom_site_fract_x
  _atom_site_fract_y
  _atom_site_fract_z
  _atom_site_occupancy
  Au  Au1       1.0  0.50000  0.00000  0.00000  1.0000
  Au  Au2       1.0  0.68200  0.32100  0.04280  1.0000
  Au  Au3       1.0  0.81800  0.82100  0.45700  1.0000
  Au  Au4       1.0  0.00000  0.50000  0.50000  1.0000
  Au  Au5       1.0  0.18200  0.17900  0.54300  1.0000
  Au  Au6       1.0  0.31800  0.67900  0.95700  1.0000
  F   F1        1.0  0.26800  0.51600  0.11600  1.0000
  F   F2        1.0  0.83700  0.90400  0.13300  1.0000
  F   F3        1.0  0.66500  0.15500  0.21100  1.0000
  F   F4        1.0  0.17600  0.27100  0.23600  1.0000
  F   F5        1.0  0.32400  0.77100  0.26400  1.0000
  F   F6        1.0  0.83500  0.65500  0.28900  1.0000
  F   F7        1.0  0.66300  0.40400  0.36700  1.0000
  F   F8        1.0  0.23200  0.01630  0.38400  1.0000
  F   F9        1.0  0.76800  0.98400  0.61600  1.0000
  F   F10       1.0  0.33700  0.59600  0.63300  1.0000
  F   F11       1.0  0.16500  0.34500  0.71100  1.0000
  F   F12       1.0  0.67600  0.22900  0.73600  1.0000
  F   F13       1.0  0.82400  0.72900  0.76400  1.0000
  F   F14       1.0  0.33500  0.84500  0.78900  1.0000
  F   F15       1.0  0.16300  0.09590  0.86700  1.0000
  F   F16       1.0  0.73200  0.48400  0.88400  1.0000
