data_image0
_chemical_formula_structural       Cl2F12K6Re2
_chemical_formula_sum              "Cl2 F12 K6 Re2"
_cell_length_a       7.99314
_cell_length_b       7.99314
_cell_length_c       5.85051
_cell_angle_alpha    90
_cell_angle_beta     90
_cell_angle_gamma    90

_space_group_name_H-M_alt    "P 1"
_space_group_IT_number       1

loop_
  _space_group_symop_operation_xyz
  'x, y, z'

loop_
  _atom_site_type_symbol
  _atom_site_label
  _atom_site_symmetry_multiplicity
  _atom_site_fract_x
  _atom_site_fract_y
  _atom_site_fract_z
  _atom_site_occupancy
  Cl  Cl1       1.0  0.00000  0.00000  0.50000  1.0000
  Cl  Cl2       1.0  0.50000  0.50000  0.50000  1.0000
  F   F1        1.0  0.32400  0.17600  0.00000  1.0000
  F   F2        1.0  0.82400  0.32400  0.00000  1.0000
  F   F3        1.0  0.17600  0.67600  0.00000  1.0000
  F   F4        1.0  0.67600  0.82400  0.00000  1.0000
  F   F5        1.0  0.61800  0.11800  0.25000  1.0000
  F   F6        1.0  0.11800  0.38200  0.25000  1.0000
  F   F7        1.0  0.88200  0.61800  0.25000  1.0000
  F   F8        1.0  0.38200  0.88200  0.25000  1.0000
  F   F9        1.0  0.61800  0.11800  0.75000  1.0000
  F   F10       1.0  0.11800  0.38200  0.75000  1.0000
  F   F11       1.0  0.88200  0.61800  0.75000  1.0000
  F   F12       1.0  0.38200  0.88200  0.75000  1.0000
  K   K1        1.0  0.00000  0.00000  0.00000  1.0000
  K   K2        1.0  0.50000  0.50000  0.00000  1.0000
  K   K3        1.0  0.32000  0.18000  0.50000  1.0000
  K   K4        1.0  0.82000  0.32000  0.50000  1.0000
  K   K5        1.0  0.18000  0.68000  0.50000  1.0000
  K   K6        1.0  0.68000  0.82000  0.50000  1.0000
  Re  Re1       1.0  0.50000  0.00000  0.00000  1.0000
  Re  Re2       1.0  0.00000  0.50000  0.00000  1.0000
