data_image0
_chemical_formula_structural       Hg8S12Si2
_chemical_formula_sum              "Hg8 S12 Si2"
_cell_length_a       7.26829
_cell_length_b       7.26829
_cell_length_c       12.529
_cell_angle_alpha    90.5412
_cell_angle_beta     106.242
_cell_angle_gamma    120.105

_space_group_name_H-M_alt    "P 1"
_space_group_IT_number       1

loop_
  _space_group_symop_operation_xyz
  'x, y, z'

loop_
  _atom_site_type_symbol
  _atom_site_label
  _atom_site_symmetry_multiplicity
  _atom_site_fract_x
  _atom_site_fract_y
  _atom_site_fract_z
  _atom_site_occupancy
  Hg  Hg1       1.0  0.27100  0.53900  0.04180  1.0000
  Hg  Hg2       1.0  0.91800  0.66900  0.19400  1.0000
  Hg  Hg3       1.0  0.56500  0.90400  0.34800  1.0000
  Hg  Hg4       1.0  0.27400  0.27400  0.35500  1.0000
  Hg  Hg5       1.0  0.00265  0.77100  0.54200  1.0000
  Hg  Hg6       1.0  0.02500  0.27500  0.69400  1.0000
  Hg  Hg7       1.0  0.94500  0.78400  0.84800  1.0000
  Hg  Hg8       1.0  0.58100  0.08060  0.85500  1.0000
  S   S1        1.0  0.54900  0.42200  0.02710  1.0000
  S   S2        1.0  0.57100  0.96700  0.05300  1.0000
  S   S3        1.0  0.07530  0.97000  0.05580  1.0000
  S   S4        1.0  0.21200  0.54800  0.23300  1.0000
  S   S5        1.0  0.57800  0.24600  0.28300  1.0000
  S   S6        1.0  0.93800  0.90800  0.35400  1.0000
  S   S7        1.0  0.10500  0.47800  0.52700  1.0000
  S   S8        1.0  0.58600  0.48200  0.55300  1.0000
  S   S9        1.0  0.58600  0.98100  0.55600  1.0000
  S   S10       1.0  0.18600  0.02170  0.73300  1.0000
  S   S11       1.0  0.53700  0.70500  0.78300  1.0000
  S   S12       1.0  0.94600  0.41700  0.85400  1.0000
  Si  Si1       1.0  0.43200  0.13700  0.10400  1.0000
  Si  Si2       1.0  0.46700  0.67200  0.60400  1.0000
