data_image0
_chemical_formula_structural       Hf4Ti6
_chemical_formula_sum              "Hf4 Ti6"
_cell_length_a       7.63993
_cell_length_b       7.63993
_cell_length_c       5.73475
_cell_angle_alpha    131.767
_cell_angle_beta     48.2326
_cell_angle_gamma    120

_space_group_name_H-M_alt    "P 1"
_space_group_IT_number       1

loop_
  _space_group_symop_operation_xyz
  'x, y, z'

loop_
  _atom_site_type_symbol
  _atom_site_label
  _atom_site_symmetry_multiplicity
  _atom_site_fract_x
  _atom_site_fract_y
  _atom_site_fract_z
  _atom_site_occupancy
  Hf  Hf1       1.0  0.62200  0.37800  0.13300  1.0000
  Hf  Hf2       1.0  0.87800  0.12200  0.36700  1.0000
  Hf  Hf3       1.0  0.12200  0.87800  0.63300  1.0000
  Hf  Hf4       1.0  0.37800  0.62200  0.86700  1.0000
  Ti  Ti1       1.0  0.25000  0.07630  0.25000  1.0000
  Ti  Ti2       1.0  0.92400  0.42400  0.25000  1.0000
  Ti  Ti3       1.0  0.57600  0.75000  0.25000  1.0000
  Ti  Ti4       1.0  0.07630  0.57600  0.75000  1.0000
  Ti  Ti5       1.0  0.75000  0.92400  0.75000  1.0000
  Ti  Ti6       1.0  0.42400  0.25000  0.75000  1.0000
