data_image0
_chemical_formula_structural       Mg4Yb6
_chemical_formula_sum              "Mg4 Yb6"
_cell_length_a       9.93147
_cell_length_b       9.93147
_cell_length_c       6.93912
_cell_angle_alpha    135.694
_cell_angle_beta     44.3064
_cell_angle_gamma    120

_space_group_name_H-M_alt    "P 1"
_space_group_IT_number       1

loop_
  _space_group_symop_operation_xyz
  'x, y, z'

loop_
  _atom_site_type_symbol
  _atom_site_label
  _atom_site_symmetry_multiplicity
  _atom_site_fract_x
  _atom_site_fract_y
  _atom_site_fract_z
  _atom_site_occupancy
  Mg  Mg1       1.0  0.62500  0.37500  0.12600  1.0000
  Mg  Mg2       1.0  0.87500  0.12500  0.37400  1.0000
  Mg  Mg3       1.0  0.12500  0.87500  0.62600  1.0000
  Mg  Mg4       1.0  0.37500  0.62500  0.87400  1.0000
  Yb  Yb1       1.0  0.57700  0.75000  0.25000  1.0000
  Yb  Yb2       1.0  0.92300  0.42300  0.25000  1.0000
  Yb  Yb3       1.0  0.25000  0.07710  0.25000  1.0000
  Yb  Yb4       1.0  0.75000  0.92300  0.75000  1.0000
  Yb  Yb5       1.0  0.07710  0.57700  0.75000  1.0000
  Yb  Yb6       1.0  0.42300  0.25000  0.75000  1.0000
