data_image0
_chemical_formula_structural       Fe4Sm6
_chemical_formula_sum              "Fe4 Sm6"
_cell_length_a       6.78296
_cell_length_b       6.78296
_cell_length_c       7.37682
_cell_angle_alpha    117.371
_cell_angle_beta     62.6291
_cell_angle_gamma    120

_space_group_name_H-M_alt    "P 1"
_space_group_IT_number       1

loop_
  _space_group_symop_operation_xyz
  'x, y, z'

loop_
  _atom_site_type_symbol
  _atom_site_label
  _atom_site_symmetry_multiplicity
  _atom_site_fract_x
  _atom_site_fract_y
  _atom_site_fract_z
  _atom_site_occupancy
  Fe  Fe1       1.0  0.30900  0.69100  0.07170  1.0000
  Fe  Fe2       1.0  0.19100  0.80900  0.42800  1.0000
  Fe  Fe3       1.0  0.80900  0.19100  0.57200  1.0000
  Fe  Fe4       1.0  0.69100  0.30900  0.92800  1.0000
  Sm  Sm1       1.0  0.25000  0.13600  0.25000  1.0000
  Sm  Sm2       1.0  0.86400  0.36400  0.25000  1.0000
  Sm  Sm3       1.0  0.63600  0.75000  0.25000  1.0000
  Sm  Sm4       1.0  0.36400  0.25000  0.75000  1.0000
  Sm  Sm5       1.0  0.13600  0.63600  0.75000  1.0000
  Sm  Sm6       1.0  0.75000  0.86400  0.75000  1.0000
