data_image0
_chemical_formula_structural       Rh4Ti6
_chemical_formula_sum              "Rh4 Ti6"
_cell_length_a       5.59185
_cell_length_b       5.59185
_cell_length_c       6.83414
_cell_angle_alpha    114.149
_cell_angle_beta     65.851
_cell_angle_gamma    120

_space_group_name_H-M_alt    "P 1"
_space_group_IT_number       1

loop_
  _space_group_symop_operation_xyz
  'x, y, z'

loop_
  _atom_site_type_symbol
  _atom_site_label
  _atom_site_symmetry_multiplicity
  _atom_site_fract_x
  _atom_site_fract_y
  _atom_site_fract_z
  _atom_site_occupancy
  Rh  Rh1       1.0  0.31800  0.68200  0.04550  1.0000
  Rh  Rh2       1.0  0.18200  0.81800  0.45400  1.0000
  Rh  Rh3       1.0  0.81800  0.18200  0.54600  1.0000
  Rh  Rh4       1.0  0.68200  0.31800  0.95400  1.0000
  Ti  Ti1       1.0  0.25000  0.23100  0.25000  1.0000
  Ti  Ti2       1.0  0.76900  0.26900  0.25000  1.0000
  Ti  Ti3       1.0  0.73100  0.75000  0.25000  1.0000
  Ti  Ti4       1.0  0.26900  0.25000  0.75000  1.0000
  Ti  Ti5       1.0  0.23100  0.73100  0.75000  1.0000
  Ti  Ti6       1.0  0.75000  0.76900  0.75000  1.0000
