data_image0
_chemical_formula_structural       Pb4Ti6
_chemical_formula_sum              "Pb4 Ti6"
_cell_length_a       7.43382
_cell_length_b       7.43382
_cell_length_c       6.3936
_cell_angle_alpha    125.545
_cell_angle_beta     54.4545
_cell_angle_gamma    120

_space_group_name_H-M_alt    "P 1"
_space_group_IT_number       1

loop_
  _space_group_symop_operation_xyz
  'x, y, z'

loop_
  _atom_site_type_symbol
  _atom_site_label
  _atom_site_symmetry_multiplicity
  _atom_site_fract_x
  _atom_site_fract_y
  _atom_site_fract_z
  _atom_site_occupancy
  Pb  Pb1       1.0  0.62500  0.37500  0.12600  1.0000
  Pb  Pb2       1.0  0.87500  0.12500  0.37400  1.0000
  Pb  Pb3       1.0  0.12500  0.87500  0.62600  1.0000
  Pb  Pb4       1.0  0.37500  0.62500  0.87400  1.0000
  Ti  Ti1       1.0  0.52200  0.75000  0.25000  1.0000
  Ti  Ti2       1.0  0.97800  0.47800  0.25000  1.0000
  Ti  Ti3       1.0  0.25000  0.02230  0.25000  1.0000
  Ti  Ti4       1.0  0.75000  0.97800  0.75000  1.0000
  Ti  Ti5       1.0  0.02230  0.52200  0.75000  1.0000
  Ti  Ti6       1.0  0.47800  0.25000  0.75000  1.0000
