data_image0
_chemical_formula_structural       Cr8Sc4Si10
_chemical_formula_sum              "Cr8 Sc4 Si10"
_cell_length_a       4.88611
_cell_length_b       7.55424
_cell_length_c       9.22902
_cell_angle_alpha    114.159
_cell_angle_beta     105.35
_cell_angle_gamma    90

_space_group_name_H-M_alt    "P 1"
_space_group_IT_number       1

loop_
  _space_group_symop_operation_xyz
  'x, y, z'

loop_
  _atom_site_type_symbol
  _atom_site_label
  _atom_site_symmetry_multiplicity
  _atom_site_fract_x
  _atom_site_fract_y
  _atom_site_fract_z
  _atom_site_occupancy
  Cr  Cr1       1.0  0.06200  0.31600  0.12400  1.0000
  Cr  Cr2       1.0  0.56200  0.80800  0.12400  1.0000
  Cr  Cr3       1.0  0.44100  0.69100  0.38100  1.0000
  Cr  Cr4       1.0  0.94100  0.69100  0.38100  1.0000
  Cr  Cr5       1.0  0.05930  0.30900  0.61900  1.0000
  Cr  Cr6       1.0  0.55900  0.30900  0.61900  1.0000
  Cr  Cr7       1.0  0.43800  0.19200  0.87600  1.0000
  Cr  Cr8       1.0  0.93800  0.68400  0.87600  1.0000
  Sc  Sc1       1.0  0.14200  0.02300  0.28400  1.0000
  Sc  Sc2       1.0  0.64200  0.26100  0.28400  1.0000
  Sc  Sc3       1.0  0.35800  0.73900  0.71600  1.0000
  Sc  Sc4       1.0  0.85800  0.97700  0.71600  1.0000
  Si  Si1       1.0  0.25000  0.00000  0.00000  1.0000
  Si  Si2       1.0  0.75000  0.00000  0.00000  1.0000
  Si  Si3       1.0  0.56400  0.48600  0.12800  1.0000
  Si  Si4       1.0  0.06380  0.64200  0.12800  1.0000
  Si  Si5       1.0  0.71100  0.00357  0.42200  1.0000
  Si  Si6       1.0  0.21100  0.41800  0.42200  1.0000
  Si  Si7       1.0  0.78900  0.58200  0.57800  1.0000
  Si  Si8       1.0  0.28900  0.99600  0.57800  1.0000
  Si  Si9       1.0  0.93600  0.35800  0.87200  1.0000
  Si  Si10      1.0  0.43600  0.51400  0.87200  1.0000
