data_image0
_chemical_formula_structural       Ga12Mn4Zr6
_chemical_formula_sum              "Ga12 Mn4 Zr6"
_cell_length_a       8.77643
_cell_length_b       5.4198
_cell_length_c       7.73396
_cell_angle_alpha    90
_cell_angle_beta     90
_cell_angle_gamma    90

_space_group_name_H-M_alt    "P 1"
_space_group_IT_number       1

loop_
  _space_group_symop_operation_xyz
  'x, y, z'

loop_
  _atom_site_type_symbol
  _atom_site_label
  _atom_site_symmetry_multiplicity
  _atom_site_fract_x
  _atom_site_fract_y
  _atom_site_fract_z
  _atom_site_occupancy
  Ga  Ga1       1.0  0.25000  0.00950  0.04390  1.0000
  Ga  Ga2       1.0  0.25000  0.49000  0.04390  1.0000
  Ga  Ga3       1.0  0.06310  0.75000  0.23700  1.0000
  Ga  Ga4       1.0  0.43700  0.75000  0.23700  1.0000
  Ga  Ga5       1.0  0.25000  0.25000  0.36900  1.0000
  Ga  Ga6       1.0  0.75000  0.25000  0.43600  1.0000
  Ga  Ga7       1.0  0.25000  0.75000  0.56400  1.0000
  Ga  Ga8       1.0  0.75000  0.75000  0.63100  1.0000
  Ga  Ga9       1.0  0.56300  0.25000  0.76300  1.0000
  Ga  Ga10      1.0  0.93700  0.25000  0.76300  1.0000
  Ga  Ga11      1.0  0.75000  0.50900  0.95600  1.0000
  Ga  Ga12      1.0  0.75000  0.99000  0.95600  1.0000
  Mn  Mn1       1.0  0.00000  0.00000  0.50000  1.0000
  Mn  Mn2       1.0  0.50000  0.00000  0.50000  1.0000
  Mn  Mn3       1.0  0.00000  0.50000  0.50000  1.0000
  Mn  Mn4       1.0  0.50000  0.50000  0.50000  1.0000
  Zr  Zr1       1.0  0.53000  0.25000  0.15300  1.0000
  Zr  Zr2       1.0  0.97000  0.25000  0.15300  1.0000
  Zr  Zr3       1.0  0.75000  0.75000  0.27900  1.0000
  Zr  Zr4       1.0  0.25000  0.25000  0.72100  1.0000
  Zr  Zr5       1.0  0.02970  0.75000  0.84700  1.0000
  Zr  Zr6       1.0  0.47000  0.75000  0.84700  1.0000
