data_image0
_chemical_formula_structural       Ba10Cr2N10
_chemical_formula_sum              "Ba10 Cr2 N10"
_cell_length_a       7.91811
_cell_length_b       7.91811
_cell_length_c       9.32999
_cell_angle_alpha    103.824
_cell_angle_beta     103.824
_cell_angle_gamma    96.3088

_space_group_name_H-M_alt    "P 1"
_space_group_IT_number       1

loop_
  _space_group_symop_operation_xyz
  'x, y, z'

loop_
  _atom_site_type_symbol
  _atom_site_label
  _atom_site_symmetry_multiplicity
  _atom_site_fract_x
  _atom_site_fract_y
  _atom_site_fract_z
  _atom_site_occupancy
  Ba  Ba1       1.0  0.33600  0.33600  0.00643  1.0000
  Ba  Ba2       1.0  0.07370  0.07370  0.20400  1.0000
  Ba  Ba3       1.0  0.56500  0.09370  0.24700  1.0000
  Ba  Ba4       1.0  0.09370  0.56500  0.24700  1.0000
  Ba  Ba5       1.0  0.61500  0.61500  0.38400  1.0000
  Ba  Ba6       1.0  0.38500  0.38500  0.61600  1.0000
  Ba  Ba7       1.0  0.90600  0.43500  0.75300  1.0000
  Ba  Ba8       1.0  0.43500  0.90600  0.75300  1.0000
  Ba  Ba9       1.0  0.92600  0.92600  0.79600  1.0000
  Ba  Ba10      1.0  0.66400  0.66400  0.99400  1.0000
  Cr  Cr1       1.0  0.75800  0.24200  0.00000  1.0000
  Cr  Cr2       1.0  0.24200  0.75800  0.00000  1.0000
  N   N1        1.0  0.71700  0.02190  0.00804  1.0000
  N   N2        1.0  0.02190  0.71700  0.00804  1.0000
  N   N3        1.0  0.73200  0.38700  0.16500  1.0000
  N   N4        1.0  0.38700  0.73200  0.16500  1.0000
  N   N5        1.0  0.34900  0.34900  0.31200  1.0000
  N   N6        1.0  0.65100  0.65100  0.68800  1.0000
  N   N7        1.0  0.61300  0.26800  0.83500  1.0000
  N   N8        1.0  0.26800  0.61300  0.83500  1.0000
  N   N9        1.0  0.97800  0.28300  0.99200  1.0000
  N   N10       1.0  0.28300  0.97800  0.99200  1.0000
