data_image0
_chemical_formula_structural       I14Ta6Te2
_chemical_formula_sum              "I14 Ta6 Te2"
_cell_length_a       7.67373
_cell_length_b       7.67369
_cell_length_c       14.5579
_cell_angle_alpha    90
_cell_angle_beta     90
_cell_angle_gamma    120

_space_group_name_H-M_alt    "P 1"
_space_group_IT_number       1

loop_
  _space_group_symop_operation_xyz
  'x, y, z'

loop_
  _atom_site_type_symbol
  _atom_site_label
  _atom_site_symmetry_multiplicity
  _atom_site_fract_x
  _atom_site_fract_y
  _atom_site_fract_z
  _atom_site_occupancy
  I   I1        1.0  0.16800  0.33600  0.12200  1.0000
  I   I2        1.0  0.16800  0.83200  0.12200  1.0000
  I   I3        1.0  0.66400  0.83200  0.12200  1.0000
  I   I4        1.0  0.66700  0.33300  0.15100  1.0000
  I   I5        1.0  0.00360  0.50200  0.35500  1.0000
  I   I6        1.0  0.49800  0.50200  0.35500  1.0000
  I   I7        1.0  0.49800  0.99600  0.35500  1.0000
  I   I8        1.0  0.83200  0.66400  0.62200  1.0000
  I   I9        1.0  0.33600  0.16800  0.62200  1.0000
  I   I10       1.0  0.83200  0.16800  0.62200  1.0000
  I   I11       1.0  0.33300  0.66700  0.65100  1.0000
  I   I12       1.0  0.50200  0.49800  0.85500  1.0000
  I   I13       1.0  0.99600  0.49800  0.85500  1.0000
  I   I14       1.0  0.50200  0.00356  0.85500  1.0000
  Ta  Ta1       1.0  0.86900  0.73800  0.25000  1.0000
  Ta  Ta2       1.0  0.26200  0.13100  0.25000  1.0000
  Ta  Ta3       1.0  0.86900  0.13100  0.25000  1.0000
  Ta  Ta4       1.0  0.13100  0.26200  0.75000  1.0000
  Ta  Ta5       1.0  0.13100  0.86900  0.75000  1.0000
  Ta  Ta6       1.0  0.73800  0.86900  0.75000  1.0000
  Te  Te1       1.0  0.00000  0.00000  0.39600  1.0000
  Te  Te2       1.0  0.00000  0.00000  0.89600  1.0000
