data_image0
_chemical_formula_structural       Gd4Ni6
_chemical_formula_sum              "Gd4 Ni6"
_cell_length_a       6.46896
_cell_length_b       6.46896
_cell_length_c       6.70832
_cell_angle_alpha    118.827
_cell_angle_beta     61.1735
_cell_angle_gamma    120

_space_group_name_H-M_alt    "P 1"
_space_group_IT_number       1

loop_
  _space_group_symop_operation_xyz
  'x, y, z'

loop_
  _atom_site_type_symbol
  _atom_site_label
  _atom_site_symmetry_multiplicity
  _atom_site_fract_x
  _atom_site_fract_y
  _atom_site_fract_z
  _atom_site_occupancy
  Gd  Gd1       1.0  0.60400  0.39600  0.18800  1.0000
  Gd  Gd2       1.0  0.89600  0.10400  0.31200  1.0000
  Gd  Gd3       1.0  0.10400  0.89600  0.68800  1.0000
  Gd  Gd4       1.0  0.39600  0.60400  0.81200  1.0000
  Ni  Ni1       1.0  0.03880  0.53900  0.25000  1.0000
  Ni  Ni2       1.0  0.46100  0.75000  0.25000  1.0000
  Ni  Ni3       1.0  0.25000  0.96100  0.25000  1.0000
  Ni  Ni4       1.0  0.75000  0.03880  0.75000  1.0000
  Ni  Ni5       1.0  0.53900  0.25000  0.75000  1.0000
  Ni  Ni6       1.0  0.96100  0.46100  0.75000  1.0000
