data_image0
_chemical_formula_structural       Ca4O6
_chemical_formula_sum              "Ca4 O6"
_cell_length_a       5.90812
_cell_length_b       5.90812
_cell_length_c       6.00858
_cell_angle_alpha    119.448
_cell_angle_beta     60.5515
_cell_angle_gamma    120

_space_group_name_H-M_alt    "P 1"
_space_group_IT_number       1

loop_
  _space_group_symop_operation_xyz
  'x, y, z'

loop_
  _atom_site_type_symbol
  _atom_site_label
  _atom_site_symmetry_multiplicity
  _atom_site_fract_x
  _atom_site_fract_y
  _atom_site_fract_z
  _atom_site_occupancy
  Ca  Ca1       1.0  0.64000  0.36000  0.07980  1.0000
  Ca  Ca2       1.0  0.86000  0.14000  0.42000  1.0000
  Ca  Ca3       1.0  0.14000  0.86000  0.58000  1.0000
  Ca  Ca4       1.0  0.36000  0.64000  0.92000  1.0000
  O   O1        1.0  0.53200  0.75000  0.25000  1.0000
  O   O2        1.0  0.25000  0.03210  0.25000  1.0000
  O   O3        1.0  0.96800  0.46800  0.25000  1.0000
  O   O4        1.0  0.03210  0.53200  0.75000  1.0000
  O   O5        1.0  0.75000  0.96800  0.75000  1.0000
  O   O6        1.0  0.46800  0.25000  0.75000  1.0000
