data_image0
_chemical_formula_structural       Mn4Ti6
_chemical_formula_sum              "Mn4 Ti6"
_cell_length_a       5.46272
_cell_length_b       5.46272
_cell_length_c       6.44558
_cell_angle_alpha    115.072
_cell_angle_beta     64.9279
_cell_angle_gamma    120

_space_group_name_H-M_alt    "P 1"
_space_group_IT_number       1

loop_
  _space_group_symop_operation_xyz
  'x, y, z'

loop_
  _atom_site_type_symbol
  _atom_site_label
  _atom_site_symmetry_multiplicity
  _atom_site_fract_x
  _atom_site_fract_y
  _atom_site_fract_z
  _atom_site_occupancy
  Mn  Mn1       1.0  0.30900  0.69100  0.07160  1.0000
  Mn  Mn2       1.0  0.19100  0.80900  0.42800  1.0000
  Mn  Mn3       1.0  0.80900  0.19100  0.57200  1.0000
  Mn  Mn4       1.0  0.69100  0.30900  0.92800  1.0000
  Ti  Ti1       1.0  0.25000  0.24500  0.25000  1.0000
  Ti  Ti2       1.0  0.75500  0.25500  0.25000  1.0000
  Ti  Ti3       1.0  0.74500  0.75000  0.25000  1.0000
  Ti  Ti4       1.0  0.25500  0.25000  0.75000  1.0000
  Ti  Ti5       1.0  0.24500  0.74500  0.75000  1.0000
  Ti  Ti6       1.0  0.75000  0.75500  0.75000  1.0000
