data_image0
_chemical_formula_structural       Fe8Re12
_chemical_formula_sum              "Fe8 Re12"
_cell_length_a       6.37747
_cell_length_b       6.37747
_cell_length_c       6.37747
_cell_angle_alpha    90
_cell_angle_beta     90
_cell_angle_gamma    90

_space_group_name_H-M_alt    "P 1"
_space_group_IT_number       1

loop_
  _space_group_symop_operation_xyz
  'x, y, z'

loop_
  _atom_site_type_symbol
  _atom_site_label
  _atom_site_symmetry_multiplicity
  _atom_site_fract_x
  _atom_site_fract_y
  _atom_site_fract_z
  _atom_site_occupancy
  Fe  Fe1       1.0  0.05890  0.05890  0.05890  1.0000
  Fe  Fe2       1.0  0.80900  0.30900  0.19100  1.0000
  Fe  Fe3       1.0  0.19100  0.80900  0.30900  1.0000
  Fe  Fe4       1.0  0.94100  0.55900  0.44100  1.0000
  Fe  Fe5       1.0  0.44100  0.94100  0.55900  1.0000
  Fe  Fe6       1.0  0.69100  0.69100  0.69100  1.0000
  Fe  Fe7       1.0  0.30900  0.19100  0.80900  1.0000
  Fe  Fe8       1.0  0.55900  0.44100  0.94100  1.0000
  Re  Re1       1.0  0.87500  0.69800  0.05200  1.0000
  Re  Re2       1.0  0.19800  0.44800  0.12500  1.0000
  Re  Re3       1.0  0.44800  0.12500  0.19800  1.0000
  Re  Re4       1.0  0.55200  0.62500  0.30200  1.0000
  Re  Re5       1.0  0.80200  0.94800  0.37500  1.0000
  Re  Re6       1.0  0.12500  0.19800  0.44800  1.0000
  Re  Re7       1.0  0.62500  0.30200  0.55200  1.0000
  Re  Re8       1.0  0.30200  0.55200  0.62500  1.0000
  Re  Re9       1.0  0.05200  0.87500  0.69800  1.0000
  Re  Re10      1.0  0.94800  0.37500  0.80200  1.0000
  Re  Re11      1.0  0.69800  0.05200  0.87500  1.0000
  Re  Re12      1.0  0.37500  0.80200  0.94800  1.0000
