data_image0
_chemical_formula_structural       Mg4Ta6
_chemical_formula_sum              "Mg4 Ta6"
_cell_length_a       6.87336
_cell_length_b       6.87336
_cell_length_c       6.38302
_cell_angle_alpha    122.575
_cell_angle_beta     57.4245
_cell_angle_gamma    120

_space_group_name_H-M_alt    "P 1"
_space_group_IT_number       1

loop_
  _space_group_symop_operation_xyz
  'x, y, z'

loop_
  _atom_site_type_symbol
  _atom_site_label
  _atom_site_symmetry_multiplicity
  _atom_site_fract_x
  _atom_site_fract_y
  _atom_site_fract_z
  _atom_site_occupancy
  Mg  Mg1       1.0  0.58700  0.41300  0.23900  1.0000
  Mg  Mg2       1.0  0.91300  0.08690  0.26100  1.0000
  Mg  Mg3       1.0  0.08690  0.91300  0.73900  1.0000
  Mg  Mg4       1.0  0.41300  0.58700  0.76100  1.0000
  Ta  Ta1       1.0  0.47100  0.75000  0.25000  1.0000
  Ta  Ta2       1.0  0.02890  0.52900  0.25000  1.0000
  Ta  Ta3       1.0  0.25000  0.97100  0.25000  1.0000
  Ta  Ta4       1.0  0.97100  0.47100  0.75000  1.0000
  Ta  Ta5       1.0  0.52900  0.25000  0.75000  1.0000
  Ta  Ta6       1.0  0.75000  0.02890  0.75000  1.0000
