data_image0
_chemical_formula_structural       Ni4Tl6
_chemical_formula_sum              "Ni4 Tl6"
_cell_length_a       6.55873
_cell_length_b       6.55873
_cell_length_c       7.00366
_cell_angle_alpha    117.92
_cell_angle_beta     62.0801
_cell_angle_gamma    120

_space_group_name_H-M_alt    "P 1"
_space_group_IT_number       1

loop_
  _space_group_symop_operation_xyz
  'x, y, z'

loop_
  _atom_site_type_symbol
  _atom_site_label
  _atom_site_symmetry_multiplicity
  _atom_site_fract_x
  _atom_site_fract_y
  _atom_site_fract_z
  _atom_site_occupancy
  Ni  Ni1       1.0  0.32100  0.67900  0.03640  1.0000
  Ni  Ni2       1.0  0.17900  0.82100  0.46400  1.0000
  Ni  Ni3       1.0  0.82100  0.17900  0.53600  1.0000
  Ni  Ni4       1.0  0.67900  0.32100  0.96400  1.0000
  Tl  Tl1       1.0  0.61600  0.75000  0.25000  1.0000
  Tl  Tl2       1.0  0.25000  0.11600  0.25000  1.0000
  Tl  Tl3       1.0  0.88400  0.38400  0.25000  1.0000
  Tl  Tl4       1.0  0.11600  0.61600  0.75000  1.0000
  Tl  Tl5       1.0  0.75000  0.88400  0.75000  1.0000
  Tl  Tl6       1.0  0.38400  0.25000  0.75000  1.0000
