data_image0
_chemical_formula_structural       Au4F16Hg2
_chemical_formula_sum              "Au4 F16 Hg2"
_cell_length_a       5.49296
_cell_length_b       5.49296
_cell_length_c       10.284
_cell_angle_alpha    90
_cell_angle_beta     90
_cell_angle_gamma    90

_space_group_name_H-M_alt    "P 1"
_space_group_IT_number       1

loop_
  _space_group_symop_operation_xyz
  'x, y, z'

loop_
  _atom_site_type_symbol
  _atom_site_label
  _atom_site_symmetry_multiplicity
  _atom_site_fract_x
  _atom_site_fract_y
  _atom_site_fract_z
  _atom_site_occupancy
  Au  Au1       1.0  0.50000  0.00000  0.00000  1.0000
  Au  Au2       1.0  0.00000  0.50000  0.00000  1.0000
  Au  Au3       1.0  0.50000  0.00000  0.50000  1.0000
  Au  Au4       1.0  0.00000  0.50000  0.50000  1.0000
  F   F1        1.0  0.67700  0.18400  0.13300  1.0000
  F   F2        1.0  0.18400  0.32300  0.13300  1.0000
  F   F3        1.0  0.81600  0.67700  0.13300  1.0000
  F   F4        1.0  0.32300  0.81600  0.13300  1.0000
  F   F5        1.0  0.32300  0.18400  0.36700  1.0000
  F   F6        1.0  0.81600  0.32300  0.36700  1.0000
  F   F7        1.0  0.18400  0.67700  0.36700  1.0000
  F   F8        1.0  0.67700  0.81600  0.36700  1.0000
  F   F9        1.0  0.32300  0.18400  0.63300  1.0000
  F   F10       1.0  0.81600  0.32300  0.63300  1.0000
  F   F11       1.0  0.18400  0.67700  0.63300  1.0000
  F   F12       1.0  0.67700  0.81600  0.63300  1.0000
  F   F13       1.0  0.67700  0.18400  0.86700  1.0000
  F   F14       1.0  0.18400  0.32300  0.86700  1.0000
  F   F15       1.0  0.81600  0.67700  0.86700  1.0000
  F   F16       1.0  0.32300  0.81600  0.86700  1.0000
  Hg  Hg1       1.0  0.00000  0.00000  0.25000  1.0000
  Hg  Hg2       1.0  0.00000  0.00000  0.75000  1.0000
