data_image0
_chemical_formula_structural       Mg4Tl6
_chemical_formula_sum              "Mg4 Tl6"
_cell_length_a       6.82622
_cell_length_b       6.82622
_cell_length_c       7.9414
_cell_angle_alpha    115.454
_cell_angle_beta     64.546
_cell_angle_gamma    120

_space_group_name_H-M_alt    "P 1"
_space_group_IT_number       1

loop_
  _space_group_symop_operation_xyz
  'x, y, z'

loop_
  _atom_site_type_symbol
  _atom_site_label
  _atom_site_symmetry_multiplicity
  _atom_site_fract_x
  _atom_site_fract_y
  _atom_site_fract_z
  _atom_site_occupancy
  Mg  Mg1       1.0  0.31800  0.68200  0.04460  1.0000
  Mg  Mg2       1.0  0.18200  0.81800  0.45500  1.0000
  Mg  Mg3       1.0  0.81800  0.18200  0.54500  1.0000
  Mg  Mg4       1.0  0.68200  0.31800  0.95500  1.0000
  Tl  Tl1       1.0  0.25000  0.15300  0.25000  1.0000
  Tl  Tl2       1.0  0.84700  0.34700  0.25000  1.0000
  Tl  Tl3       1.0  0.65300  0.75000  0.25000  1.0000
  Tl  Tl4       1.0  0.34700  0.25000  0.75000  1.0000
  Tl  Tl5       1.0  0.15300  0.65300  0.75000  1.0000
  Tl  Tl6       1.0  0.75000  0.84700  0.75000  1.0000
