data_image0
_chemical_formula_structural       Mn8Si10Ta4
_chemical_formula_sum              "Mn8 Si10 Ta4"
_cell_length_a       5.1631
_cell_length_b       7.26166
_cell_length_c       9.40727
_cell_angle_alpha    112.703
_cell_angle_beta     105.928
_cell_angle_gamma    90

_space_group_name_H-M_alt    "P 1"
_space_group_IT_number       1

loop_
  _space_group_symop_operation_xyz
  'x, y, z'

loop_
  _atom_site_type_symbol
  _atom_site_label
  _atom_site_symmetry_multiplicity
  _atom_site_fract_x
  _atom_site_fract_y
  _atom_site_fract_z
  _atom_site_occupancy
  Mn  Mn1       1.0  0.56500  0.81400  0.13000  1.0000
  Mn  Mn2       1.0  0.06480  0.31600  0.13000  1.0000
  Mn  Mn3       1.0  0.64800  0.26900  0.29700  1.0000
  Mn  Mn4       1.0  0.14800  0.02730  0.29700  1.0000
  Mn  Mn5       1.0  0.85200  0.97300  0.70300  1.0000
  Mn  Mn6       1.0  0.35200  0.73100  0.70300  1.0000
  Mn  Mn7       1.0  0.93500  0.68400  0.87000  1.0000
  Mn  Mn8       1.0  0.43500  0.18600  0.87000  1.0000
  Si  Si1       1.0  0.25000  0.00000  0.00000  1.0000
  Si  Si2       1.0  0.75000  0.00000  0.00000  1.0000
  Si  Si3       1.0  0.05830  0.65900  0.11700  1.0000
  Si  Si4       1.0  0.55800  0.45700  0.11700  1.0000
  Si  Si5       1.0  0.20600  0.39700  0.41100  1.0000
  Si  Si6       1.0  0.70600  0.01480  0.41100  1.0000
  Si  Si7       1.0  0.29400  0.98500  0.58900  1.0000
  Si  Si8       1.0  0.79400  0.60300  0.58900  1.0000
  Si  Si9       1.0  0.44200  0.54300  0.88300  1.0000
  Si  Si10      1.0  0.94200  0.34100  0.88300  1.0000
  Ta  Ta1       1.0  0.43700  0.68700  0.37300  1.0000
  Ta  Ta2       1.0  0.93700  0.68700  0.37300  1.0000
  Ta  Ta3       1.0  0.06350  0.31300  0.62700  1.0000
  Ta  Ta4       1.0  0.56300  0.31300  0.62700  1.0000
