data_image0
_chemical_formula_structural       Mn4Ni6
_chemical_formula_sum              "Mn4 Ni6"
_cell_length_a       5.69359
_cell_length_b       5.69359
_cell_length_c       5.13792
_cell_angle_alpha    123.647
_cell_angle_beta     56.353
_cell_angle_gamma    120

_space_group_name_H-M_alt    "P 1"
_space_group_IT_number       1

loop_
  _space_group_symop_operation_xyz
  'x, y, z'

loop_
  _atom_site_type_symbol
  _atom_site_label
  _atom_site_symmetry_multiplicity
  _atom_site_fract_x
  _atom_site_fract_y
  _atom_site_fract_z
  _atom_site_occupancy
  Mn  Mn1       1.0  0.92200  0.07780  0.23300  1.0000
  Mn  Mn2       1.0  0.57800  0.42200  0.26700  1.0000
  Mn  Mn3       1.0  0.42200  0.57800  0.73300  1.0000
  Mn  Mn4       1.0  0.07780  0.92200  0.76700  1.0000
  Ni  Ni1       1.0  0.00660  0.50700  0.25000  1.0000
  Ni  Ni2       1.0  0.49300  0.75000  0.25000  1.0000
  Ni  Ni3       1.0  0.25000  0.99300  0.25000  1.0000
  Ni  Ni4       1.0  0.75000  0.00660  0.75000  1.0000
  Ni  Ni5       1.0  0.50700  0.25000  0.75000  1.0000
  Ni  Ni6       1.0  0.99300  0.49300  0.75000  1.0000
