data_image0
_chemical_formula_structural       Mo4Ti6
_chemical_formula_sum              "Mo4 Ti6"
_cell_length_a       7.25188
_cell_length_b       7.25188
_cell_length_c       5.45614
_cell_angle_alpha    131.649
_cell_angle_beta     48.3514
_cell_angle_gamma    120

_space_group_name_H-M_alt    "P 1"
_space_group_IT_number       1

loop_
  _space_group_symop_operation_xyz
  'x, y, z'

loop_
  _atom_site_type_symbol
  _atom_site_label
  _atom_site_symmetry_multiplicity
  _atom_site_fract_x
  _atom_site_fract_y
  _atom_site_fract_z
  _atom_site_occupancy
  Mo  Mo1       1.0  0.62400  0.37600  0.12900  1.0000
  Mo  Mo2       1.0  0.87600  0.12400  0.37100  1.0000
  Mo  Mo3       1.0  0.12400  0.87600  0.62900  1.0000
  Mo  Mo4       1.0  0.37600  0.62400  0.87100  1.0000
  Ti  Ti1       1.0  0.92900  0.42900  0.25000  1.0000
  Ti  Ti2       1.0  0.57100  0.75000  0.25000  1.0000
  Ti  Ti3       1.0  0.25000  0.07140  0.25000  1.0000
  Ti  Ti4       1.0  0.75000  0.92900  0.75000  1.0000
  Ti  Ti5       1.0  0.42900  0.25000  0.75000  1.0000
  Ti  Ti6       1.0  0.07140  0.57100  0.75000  1.0000
