data_image0
_chemical_formula_structural       Fe4Rb6
_chemical_formula_sum              "Fe4 Rb6"
_cell_length_a       9.08605
_cell_length_b       9.08605
_cell_length_c       9.57365
_cell_angle_alpha    118.329
_cell_angle_beta     61.671
_cell_angle_gamma    120

_space_group_name_H-M_alt    "P 1"
_space_group_IT_number       1

loop_
  _space_group_symop_operation_xyz
  'x, y, z'

loop_
  _atom_site_type_symbol
  _atom_site_label
  _atom_site_symmetry_multiplicity
  _atom_site_fract_x
  _atom_site_fract_y
  _atom_site_fract_z
  _atom_site_occupancy
  Fe  Fe1       1.0  0.65300  0.34700  0.04210  1.0000
  Fe  Fe2       1.0  0.84700  0.15300  0.45800  1.0000
  Fe  Fe3       1.0  0.15300  0.84700  0.54200  1.0000
  Fe  Fe4       1.0  0.34700  0.65300  0.95800  1.0000
  Rb  Rb1       1.0  0.55400  0.75000  0.25000  1.0000
  Rb  Rb2       1.0  0.94600  0.44600  0.25000  1.0000
  Rb  Rb3       1.0  0.25000  0.05430  0.25000  1.0000
  Rb  Rb4       1.0  0.75000  0.94600  0.75000  1.0000
  Rb  Rb5       1.0  0.05430  0.55400  0.75000  1.0000
  Rb  Rb6       1.0  0.44600  0.25000  0.75000  1.0000
