data_image0
_chemical_formula_structural       Ru4Ti6
_chemical_formula_sum              "Ru4 Ti6"
_cell_length_a       5.59979
_cell_length_b       5.59979
_cell_length_c       6.797
_cell_angle_alpha    114.326
_cell_angle_beta     65.6738
_cell_angle_gamma    120

_space_group_name_H-M_alt    "P 1"
_space_group_IT_number       1

loop_
  _space_group_symop_operation_xyz
  'x, y, z'

loop_
  _atom_site_type_symbol
  _atom_site_label
  _atom_site_symmetry_multiplicity
  _atom_site_fract_x
  _atom_site_fract_y
  _atom_site_fract_z
  _atom_site_occupancy
  Ru  Ru1       1.0  0.31900  0.68100  0.04290  1.0000
  Ru  Ru2       1.0  0.18100  0.81900  0.45700  1.0000
  Ru  Ru3       1.0  0.81900  0.18100  0.54300  1.0000
  Ru  Ru4       1.0  0.68100  0.31900  0.95700  1.0000
  Ti  Ti1       1.0  0.25000  0.21200  0.25000  1.0000
  Ti  Ti2       1.0  0.78800  0.28800  0.25000  1.0000
  Ti  Ti3       1.0  0.71200  0.75000  0.25000  1.0000
  Ti  Ti4       1.0  0.28800  0.25000  0.75000  1.0000
  Ti  Ti5       1.0  0.21200  0.71200  0.75000  1.0000
  Ti  Ti6       1.0  0.75000  0.78800  0.75000  1.0000
