data_image0
_chemical_formula_structural       Fe4Nd6
_chemical_formula_sum              "Fe4 Nd6"
_cell_length_a       6.92918
_cell_length_b       6.92918
_cell_length_c       7.30295
_cell_angle_alpha    118.321
_cell_angle_beta     61.6791
_cell_angle_gamma    120

_space_group_name_H-M_alt    "P 1"
_space_group_IT_number       1

loop_
  _space_group_symop_operation_xyz
  'x, y, z'

loop_
  _atom_site_type_symbol
  _atom_site_label
  _atom_site_symmetry_multiplicity
  _atom_site_fract_x
  _atom_site_fract_y
  _atom_site_fract_z
  _atom_site_occupancy
  Fe  Fe1       1.0  0.31200  0.68800  0.06510  1.0000
  Fe  Fe2       1.0  0.18800  0.81200  0.43500  1.0000
  Fe  Fe3       1.0  0.81200  0.18800  0.56500  1.0000
  Fe  Fe4       1.0  0.68800  0.31200  0.93500  1.0000
  Nd  Nd1       1.0  0.62100  0.75000  0.25000  1.0000
  Nd  Nd2       1.0  0.25000  0.12100  0.25000  1.0000
  Nd  Nd3       1.0  0.87900  0.37900  0.25000  1.0000
  Nd  Nd4       1.0  0.12100  0.62100  0.75000  1.0000
  Nd  Nd5       1.0  0.75000  0.87900  0.75000  1.0000
  Nd  Nd6       1.0  0.37900  0.25000  0.75000  1.0000
