data_image0
_chemical_formula_structural       Ni4Re6
_chemical_formula_sum              "Ni4 Re6"
_cell_length_a       6.18785
_cell_length_b       6.18785
_cell_length_c       5.47369
_cell_angle_alpha    124.419
_cell_angle_beta     55.5814
_cell_angle_gamma    120

_space_group_name_H-M_alt    "P 1"
_space_group_IT_number       1

loop_
  _space_group_symop_operation_xyz
  'x, y, z'

loop_
  _atom_site_type_symbol
  _atom_site_label
  _atom_site_symmetry_multiplicity
  _atom_site_fract_x
  _atom_site_fract_y
  _atom_site_fract_z
  _atom_site_occupancy
  Ni  Ni1       1.0  0.58900  0.41100  0.23400  1.0000
  Ni  Ni2       1.0  0.91100  0.08860  0.26600  1.0000
  Ni  Ni3       1.0  0.08860  0.91100  0.73400  1.0000
  Ni  Ni4       1.0  0.41100  0.58900  0.76600  1.0000
  Re  Re1       1.0  0.49500  0.75000  0.25000  1.0000
  Re  Re2       1.0  0.25000  0.99500  0.25000  1.0000
  Re  Re3       1.0  0.00478  0.50500  0.25000  1.0000
  Re  Re4       1.0  0.75000  0.00478  0.75000  1.0000
  Re  Re5       1.0  0.50500  0.25000  0.75000  1.0000
  Re  Re6       1.0  0.99500  0.49500  0.75000  1.0000
