data_image0
_chemical_formula_structural       Au4F16Zn2
_chemical_formula_sum              "Au4 F16 Zn2"
_cell_length_a       5.38624
_cell_length_b       5.19979
_cell_length_c       10.5846
_cell_angle_alpha    90
_cell_angle_beta     109.5
_cell_angle_gamma    90

_space_group_name_H-M_alt    "P 1"
_space_group_IT_number       1

loop_
  _space_group_symop_operation_xyz
  'x, y, z'

loop_
  _atom_site_type_symbol
  _atom_site_label
  _atom_site_symmetry_multiplicity
  _atom_site_fract_x
  _atom_site_fract_y
  _atom_site_fract_z
  _atom_site_occupancy
  Au  Au1       1.0  0.14400  0.18800  0.15700  1.0000
  Au  Au2       1.0  0.85600  0.68800  0.34300  1.0000
  Au  Au3       1.0  0.14400  0.31200  0.65700  1.0000
  Au  Au4       1.0  0.85600  0.81200  0.84300  1.0000
  F   F1        1.0  0.83600  0.30900  0.01020  1.0000
  F   F2        1.0  0.34700  0.16800  0.03160  1.0000
  F   F3        1.0  0.54200  0.57400  0.19600  1.0000
  F   F4        1.0  0.05650  0.69400  0.22100  1.0000
  F   F5        1.0  0.94400  0.19400  0.27900  1.0000
  F   F6        1.0  0.45800  0.07400  0.30400  1.0000
  F   F7        1.0  0.65300  0.66800  0.46800  1.0000
  F   F8        1.0  0.16400  0.80900  0.49000  1.0000
  F   F9        1.0  0.83600  0.19100  0.51000  1.0000
  F   F10       1.0  0.34700  0.33200  0.53200  1.0000
  F   F11       1.0  0.54200  0.92600  0.69600  1.0000
  F   F12       1.0  0.05650  0.80600  0.72100  1.0000
  F   F13       1.0  0.94400  0.30600  0.77900  1.0000
  F   F14       1.0  0.45800  0.42600  0.80400  1.0000
  F   F15       1.0  0.65300  0.83200  0.96800  1.0000
  F   F16       1.0  0.16400  0.69100  0.99000  1.0000
  Zn  Zn1       1.0  0.50000  0.50000  0.00000  1.0000
  Zn  Zn2       1.0  0.50000  0.00000  0.50000  1.0000
