data_image0
_chemical_formula_structural       Ba4Fe6
_chemical_formula_sum              "Ba4 Fe6"
_cell_length_a       7.43649
_cell_length_b       7.4365
_cell_length_c       7.80428
_cell_angle_alpha    118.453
_cell_angle_beta     61.5471
_cell_angle_gamma    120

_space_group_name_H-M_alt    "P 1"
_space_group_IT_number       1

loop_
  _space_group_symop_operation_xyz
  'x, y, z'

loop_
  _atom_site_type_symbol
  _atom_site_label
  _atom_site_symmetry_multiplicity
  _atom_site_fract_x
  _atom_site_fract_y
  _atom_site_fract_z
  _atom_site_occupancy
  Ba  Ba1       1.0  0.59600  0.40400  0.21100  1.0000
  Ba  Ba2       1.0  0.90400  0.09620  0.28900  1.0000
  Ba  Ba3       1.0  0.09620  0.90400  0.71100  1.0000
  Ba  Ba4       1.0  0.40400  0.59600  0.78900  1.0000
  Fe  Fe1       1.0  0.25000  0.92300  0.25000  1.0000
  Fe  Fe2       1.0  0.07700  0.57700  0.25000  1.0000
  Fe  Fe3       1.0  0.42300  0.75000  0.25000  1.0000
  Fe  Fe4       1.0  0.75000  0.07700  0.75000  1.0000
  Fe  Fe5       1.0  0.57700  0.25000  0.75000  1.0000
  Fe  Fe6       1.0  0.92300  0.42300  0.75000  1.0000
