data_image0
_chemical_formula_structural       Fe4Y6
_chemical_formula_sum              "Fe4 Y6"
_cell_length_a       6.65175
_cell_length_b       6.65175
_cell_length_c       7.3075
_cell_angle_alpha    117.073
_cell_angle_beta     62.9266
_cell_angle_gamma    120

_space_group_name_H-M_alt    "P 1"
_space_group_IT_number       1

loop_
  _space_group_symop_operation_xyz
  'x, y, z'

loop_
  _atom_site_type_symbol
  _atom_site_label
  _atom_site_symmetry_multiplicity
  _atom_site_fract_x
  _atom_site_fract_y
  _atom_site_fract_z
  _atom_site_occupancy
  Fe  Fe1       1.0  0.30900  0.69100  0.07260  1.0000
  Fe  Fe2       1.0  0.19100  0.80900  0.42700  1.0000
  Fe  Fe3       1.0  0.80900  0.19100  0.57300  1.0000
  Fe  Fe4       1.0  0.69100  0.30900  0.92700  1.0000
  Y   Y1        1.0  0.25000  0.14200  0.25000  1.0000
  Y   Y2        1.0  0.85800  0.35800  0.25000  1.0000
  Y   Y3        1.0  0.64200  0.75000  0.25000  1.0000
  Y   Y4        1.0  0.35800  0.25000  0.75000  1.0000
  Y   Y5        1.0  0.14200  0.64200  0.75000  1.0000
  Y   Y6        1.0  0.75000  0.85800  0.75000  1.0000
