data_image0
_chemical_formula_structural       Ca7CuO12Pt2
_chemical_formula_sum              "Ca7 Cu1 O12 Pt2"
_cell_length_a       6.51591
_cell_length_b       6.51591
_cell_length_c       6.48589
_cell_angle_alpha    90.6469
_cell_angle_beta     90.6469
_cell_angle_gamma    90.8858

_space_group_name_H-M_alt    "P 1"
_space_group_IT_number       1

loop_
  _space_group_symop_operation_xyz
  'x, y, z'

loop_
  _atom_site_type_symbol
  _atom_site_label
  _atom_site_symmetry_multiplicity
  _atom_site_fract_x
  _atom_site_fract_y
  _atom_site_fract_z
  _atom_site_occupancy
  Ca  Ca1       1.0  0.75200  0.24800  0.00000  1.0000
  Ca  Ca2       1.0  0.11300  0.88700  0.00000  1.0000
  Ca  Ca3       1.0  0.61100  0.75200  0.13500  1.0000
  Ca  Ca4       1.0  0.38200  0.24400  0.36800  1.0000
  Ca  Ca5       1.0  0.89900  0.10100  0.50000  1.0000
  Ca  Ca6       1.0  0.75600  0.61800  0.63200  1.0000
  Ca  Ca7       1.0  0.24800  0.38900  0.86500  1.0000
  Cu  Cu1       1.0  0.30300  0.69700  0.50000  1.0000
  O   O1        1.0  0.44600  0.07820  0.05090  1.0000
  O   O2        1.0  0.06010  0.20900  0.18000  1.0000
  O   O3        1.0  0.29600  0.59400  0.20600  1.0000
  O   O4        1.0  0.70000  0.42500  0.30500  1.0000
  O   O5        1.0  0.92700  0.80500  0.31700  1.0000
  O   O6        1.0  0.52400  0.90500  0.45300  1.0000
  O   O7        1.0  0.09490  0.47600  0.54700  1.0000
  O   O8        1.0  0.19500  0.07250  0.68300  1.0000
  O   O9        1.0  0.57500  0.30000  0.69500  1.0000
  O   O10       1.0  0.40600  0.70400  0.79400  1.0000
  O   O11       1.0  0.79100  0.94000  0.82000  1.0000
  O   O12       1.0  0.92200  0.55400  0.94900  1.0000
  Pt  Pt1       1.0  0.99800  0.51000  0.25100  1.0000
  Pt  Pt2       1.0  0.49000  0.00247  0.74900  1.0000
