data_image0
_chemical_formula_structural       Cr4Ni6
_chemical_formula_sum              "Cr4 Ni6"
_cell_length_a       5.85359
_cell_length_b       5.85359
_cell_length_c       5.08967
_cell_angle_alpha    125.103
_cell_angle_beta     54.8971
_cell_angle_gamma    120

_space_group_name_H-M_alt    "P 1"
_space_group_IT_number       1

loop_
  _space_group_symop_operation_xyz
  'x, y, z'

loop_
  _atom_site_type_symbol
  _atom_site_label
  _atom_site_symmetry_multiplicity
  _atom_site_fract_x
  _atom_site_fract_y
  _atom_site_fract_z
  _atom_site_occupancy
  Cr  Cr1       1.0  0.63100  0.36900  0.10700  1.0000
  Cr  Cr2       1.0  0.86900  0.13100  0.39300  1.0000
  Cr  Cr3       1.0  0.13100  0.86900  0.60700  1.0000
  Cr  Cr4       1.0  0.36900  0.63100  0.89300  1.0000
  Ni  Ni1       1.0  0.01290  0.51300  0.25000  1.0000
  Ni  Ni2       1.0  0.48700  0.75000  0.25000  1.0000
  Ni  Ni3       1.0  0.25000  0.98700  0.25000  1.0000
  Ni  Ni4       1.0  0.75000  0.01290  0.75000  1.0000
  Ni  Ni5       1.0  0.51300  0.25000  0.75000  1.0000
  Ni  Ni6       1.0  0.98700  0.48700  0.75000  1.0000
