data_image0
_chemical_formula_structural       Ni4Tc6
_chemical_formula_sum              "Ni4 Tc6"
_cell_length_a       6.15555
_cell_length_b       6.15555
_cell_length_c       5.46193
_cell_angle_alpha    124.298
_cell_angle_beta     55.7021
_cell_angle_gamma    120

_space_group_name_H-M_alt    "P 1"
_space_group_IT_number       1

loop_
  _space_group_symop_operation_xyz
  'x, y, z'

loop_
  _atom_site_type_symbol
  _atom_site_label
  _atom_site_symmetry_multiplicity
  _atom_site_fract_x
  _atom_site_fract_y
  _atom_site_fract_z
  _atom_site_occupancy
  Ni  Ni1       1.0  0.58900  0.41100  0.23200  1.0000
  Ni  Ni2       1.0  0.91100  0.08930  0.26800  1.0000
  Ni  Ni3       1.0  0.08930  0.91100  0.73200  1.0000
  Ni  Ni4       1.0  0.41100  0.58900  0.76800  1.0000
  Tc  Tc1       1.0  0.49700  0.75000  0.25000  1.0000
  Tc  Tc2       1.0  0.25000  0.99700  0.25000  1.0000
  Tc  Tc3       1.0  0.00308  0.50300  0.25000  1.0000
  Tc  Tc4       1.0  0.75000  0.00309  0.75000  1.0000
  Tc  Tc5       1.0  0.50300  0.25000  0.75000  1.0000
  Tc  Tc6       1.0  0.99700  0.49700  0.75000  1.0000
