data_image0
_chemical_formula_structural       B4Eu6O12
_chemical_formula_sum              "B4 Eu6 O12"
_cell_length_a       6.41687
_cell_length_b       6.41687
_cell_length_c       6.41687
_cell_angle_alpha    93.486
_cell_angle_beta     93.486
_cell_angle_gamma    86.514

_space_group_name_H-M_alt    "P 1"
_space_group_IT_number       1

loop_
  _space_group_symop_operation_xyz
  'x, y, z'

loop_
  _atom_site_type_symbol
  _atom_site_label
  _atom_site_symmetry_multiplicity
  _atom_site_fract_x
  _atom_site_fract_y
  _atom_site_fract_z
  _atom_site_occupancy
  B   B1        1.0  0.88400  0.88400  0.11600  1.0000
  B   B2        1.0  0.61600  0.61600  0.38400  1.0000
  B   B3        1.0  0.38400  0.38400  0.61600  1.0000
  B   B4        1.0  0.11600  0.11600  0.88400  1.0000
  Eu  Eu1       1.0  0.25000  0.60900  0.10900  1.0000
  Eu  Eu2       1.0  0.39100  0.10900  0.25000  1.0000
  Eu  Eu3       1.0  0.89100  0.25000  0.39100  1.0000
  Eu  Eu4       1.0  0.10900  0.75000  0.60900  1.0000
  Eu  Eu5       1.0  0.60900  0.89100  0.75000  1.0000
  Eu  Eu6       1.0  0.75000  0.39100  0.89100  1.0000
  O   O1        1.0  0.10100  0.27800  0.03780  1.0000
  O   O2        1.0  0.72200  0.03780  0.10100  1.0000
  O   O3        1.0  0.60100  0.46200  0.22200  1.0000
  O   O4        1.0  0.03780  0.89900  0.27800  1.0000
  O   O5        1.0  0.46200  0.77800  0.39900  1.0000
  O   O6        1.0  0.22200  0.39900  0.46200  1.0000
  O   O7        1.0  0.77800  0.60100  0.53800  1.0000
  O   O8        1.0  0.53800  0.22200  0.60100  1.0000
  O   O9        1.0  0.96200  0.10100  0.72200  1.0000
  O   O10       1.0  0.39900  0.53800  0.77800  1.0000
  O   O11       1.0  0.27800  0.96200  0.89900  1.0000
  O   O12       1.0  0.89900  0.72200  0.96200  1.0000
