data_image0
_chemical_formula_structural       B2Br6P8S6
_chemical_formula_sum              "B2 Br6 P8 S6"
_cell_length_a       9.01892
_cell_length_b       11.292
_cell_length_c       6.76485
_cell_angle_alpha    90
_cell_angle_beta     109.472
_cell_angle_gamma    90

_space_group_name_H-M_alt    "P 1"
_space_group_IT_number       1

loop_
  _space_group_symop_operation_xyz
  'x, y, z'

loop_
  _atom_site_type_symbol
  _atom_site_label
  _atom_site_symmetry_multiplicity
  _atom_site_fract_x
  _atom_site_fract_y
  _atom_site_fract_z
  _atom_site_occupancy
  B   B1        1.0  0.72100  0.75000  0.32100  1.0000
  B   B2        1.0  0.27900  0.25000  0.67900  1.0000
  Br  Br1       1.0  0.75900  0.75000  0.04200  1.0000
  Br  Br2       1.0  0.79800  0.60100  0.48500  1.0000
  Br  Br3       1.0  0.79800  0.89900  0.48500  1.0000
  Br  Br4       1.0  0.20200  0.10100  0.51500  1.0000
  Br  Br5       1.0  0.20200  0.39900  0.51500  1.0000
  Br  Br6       1.0  0.24100  0.25000  0.95800  1.0000
  P   P1        1.0  0.13800  0.64900  0.05680  1.0000
  P   P2        1.0  0.13800  0.85100  0.05680  1.0000
  P   P3        1.0  0.48600  0.75000  0.25200  1.0000
  P   P4        1.0  0.16900  0.75000  0.36000  1.0000
  P   P5        1.0  0.83100  0.25000  0.64000  1.0000
  P   P6        1.0  0.51400  0.25000  0.74800  1.0000
  P   P7        1.0  0.86200  0.14900  0.94300  1.0000
  P   P8        1.0  0.86200  0.35100  0.94300  1.0000
  S   S1        1.0  0.37000  0.60400  0.07750  1.0000
  S   S2        1.0  0.37000  0.89600  0.07750  1.0000
  S   S3        1.0  0.58600  0.25000  0.48500  1.0000
  S   S4        1.0  0.41400  0.75000  0.51500  1.0000
  S   S5        1.0  0.63000  0.10400  0.92200  1.0000
  S   S6        1.0  0.63000  0.39600  0.92200  1.0000
