data_image0
_chemical_formula_structural       Hg8Se12Si2
_chemical_formula_sum              "Hg8 Se12 Si2"
_cell_length_a       7.60147
_cell_length_b       7.60147
_cell_length_c       13.0769
_cell_angle_alpha    90.2834
_cell_angle_beta     106.577
_cell_angle_gamma    120.044

_space_group_name_H-M_alt    "P 1"
_space_group_IT_number       1

loop_
  _space_group_symop_operation_xyz
  'x, y, z'

loop_
  _atom_site_type_symbol
  _atom_site_label
  _atom_site_symmetry_multiplicity
  _atom_site_fract_x
  _atom_site_fract_y
  _atom_site_fract_z
  _atom_site_occupancy
  Hg  Hg1       1.0  0.26900  0.54600  0.04250  1.0000
  Hg  Hg2       1.0  0.91500  0.67300  0.19000  1.0000
  Hg  Hg3       1.0  0.55100  0.90200  0.34600  1.0000
  Hg  Hg4       1.0  0.27800  0.26800  0.35800  1.0000
  Hg  Hg5       1.0  0.99600  0.77300  0.54200  1.0000
  Hg  Hg6       1.0  0.01680  0.27500  0.69000  1.0000
  Hg  Hg7       1.0  0.94300  0.79500  0.84600  1.0000
  Hg  Hg8       1.0  0.59000  0.08000  0.85800  1.0000
  Se  Se1       1.0  0.54500  0.43000  0.01980  1.0000
  Se  Se2       1.0  0.06280  0.97600  0.05410  1.0000
  Se  Se3       1.0  0.57800  0.97100  0.05640  1.0000
  Se  Se4       1.0  0.20300  0.54400  0.23300  1.0000
  Se  Se5       1.0  0.58500  0.25800  0.28700  1.0000
  Se  Se6       1.0  0.92800  0.90800  0.35200  1.0000
  Se  Se7       1.0  0.08950  0.47500  0.52000  1.0000
  Se  Se8       1.0  0.57800  0.99100  0.55400  1.0000
  Se  Se9       1.0  0.58500  0.47900  0.55600  1.0000
  Se  Se10      1.0  0.18900  0.03000  0.73300  1.0000
  Se  Se11      1.0  0.52900  0.70200  0.78700  1.0000
  Se  Se12      1.0  0.94400  0.42400  0.85200  1.0000
  Si  Si1       1.0  0.42800  0.14300  0.10200  1.0000
  Si  Si2       1.0  0.45900  0.67400  0.60200  1.0000
