data_image0
_chemical_formula_structural       Eu4Mg6
_chemical_formula_sum              "Eu4 Mg6"
_cell_length_a       9.49765
_cell_length_b       9.49765
_cell_length_c       6.86128
_cell_angle_alpha    133.798
_cell_angle_beta     46.2019
_cell_angle_gamma    120

_space_group_name_H-M_alt    "P 1"
_space_group_IT_number       1

loop_
  _space_group_symop_operation_xyz
  'x, y, z'

loop_
  _atom_site_type_symbol
  _atom_site_label
  _atom_site_symmetry_multiplicity
  _atom_site_fract_x
  _atom_site_fract_y
  _atom_site_fract_z
  _atom_site_occupancy
  Eu  Eu1       1.0  0.62400  0.37600  0.12800  1.0000
  Eu  Eu2       1.0  0.87600  0.12400  0.37200  1.0000
  Eu  Eu3       1.0  0.12400  0.87600  0.62800  1.0000
  Eu  Eu4       1.0  0.37600  0.62400  0.87200  1.0000
  Mg  Mg1       1.0  0.93000  0.43000  0.25000  1.0000
  Mg  Mg2       1.0  0.57000  0.75000  0.25000  1.0000
  Mg  Mg3       1.0  0.25000  0.07000  0.25000  1.0000
  Mg  Mg4       1.0  0.75000  0.93000  0.75000  1.0000
  Mg  Mg5       1.0  0.43000  0.25000  0.75000  1.0000
  Mg  Mg6       1.0  0.07000  0.57000  0.75000  1.0000
