data_image0
_chemical_formula_structural       Bi2Cs2Nb4O14
_chemical_formula_sum              "Bi2 Cs2 Nb4 O14"
_cell_length_a       5.51607
_cell_length_b       5.43584
_cell_length_c       11.3758
_cell_angle_alpha    90
_cell_angle_beta     90
_cell_angle_gamma    90

_space_group_name_H-M_alt    "P 1"
_space_group_IT_number       1

loop_
  _space_group_symop_operation_xyz
  'x, y, z'

loop_
  _atom_site_type_symbol
  _atom_site_label
  _atom_site_symmetry_multiplicity
  _atom_site_fract_x
  _atom_site_fract_y
  _atom_site_fract_z
  _atom_site_occupancy
  Bi  Bi1       1.0  0.30700  0.27000  0.00000  1.0000
  Bi  Bi2       1.0  0.80700  0.73000  0.00000  1.0000
  Cs  Cs1       1.0  0.25200  0.26100  0.50000  1.0000
  Cs  Cs2       1.0  0.75200  0.73900  0.50000  1.0000
  Nb  Nb1       1.0  0.74600  0.24700  0.20900  1.0000
  Nb  Nb2       1.0  0.24600  0.75300  0.20900  1.0000
  Nb  Nb3       1.0  0.74600  0.24700  0.79100  1.0000
  Nb  Nb4       1.0  0.24600  0.75300  0.79100  1.0000
  O   O1        1.0  0.70800  0.32500  0.00000  1.0000
  O   O2        1.0  0.20800  0.67500  0.00000  1.0000
  O   O3        1.0  0.01800  0.03620  0.15700  1.0000
  O   O4        1.0  0.51800  0.96400  0.15700  1.0000
  O   O5        1.0  0.42300  0.44100  0.18900  1.0000
  O   O6        1.0  0.92300  0.55900  0.18900  1.0000
  O   O7        1.0  0.75100  0.21800  0.36600  1.0000
  O   O8        1.0  0.25100  0.78200  0.36600  1.0000
  O   O9        1.0  0.75100  0.21800  0.63400  1.0000
  O   O10       1.0  0.25100  0.78200  0.63400  1.0000
  O   O11       1.0  0.42300  0.44100  0.81100  1.0000
  O   O12       1.0  0.92300  0.55900  0.81100  1.0000
  O   O13       1.0  0.01800  0.03620  0.84300  1.0000
  O   O14       1.0  0.51800  0.96400  0.84300  1.0000
