data_image0
_chemical_formula_structural       Pd8Si6Sm8
_chemical_formula_sum              "Pd8 Si6 Sm8"
_cell_length_a       5.59146
_cell_length_b       7.93272
_cell_length_c       10.9887
_cell_angle_alpha    108.273
_cell_angle_beta     104.739
_cell_angle_gamma    90

_space_group_name_H-M_alt    "P 1"
_space_group_IT_number       1

loop_
  _space_group_symop_operation_xyz
  'x, y, z'

loop_
  _atom_site_type_symbol
  _atom_site_label
  _atom_site_symmetry_multiplicity
  _atom_site_fract_x
  _atom_site_fract_y
  _atom_site_fract_z
  _atom_site_occupancy
  Pd  Pd1       1.0  0.43800  0.01500  0.13100  1.0000
  Pd  Pd2       1.0  0.69300  0.51500  0.13100  1.0000
  Pd  Pd3       1.0  0.08340  0.30100  0.44900  1.0000
  Pd  Pd4       1.0  0.36500  0.80100  0.44900  1.0000
  Pd  Pd5       1.0  0.63500  0.19900  0.55100  1.0000
  Pd  Pd6       1.0  0.91700  0.69900  0.55100  1.0000
  Pd  Pd7       1.0  0.30700  0.48500  0.86900  1.0000
  Pd  Pd8       1.0  0.56200  0.98500  0.86900  1.0000
  Si  Si1       1.0  0.33900  0.25000  0.00000  1.0000
  Si  Si2       1.0  0.66100  0.75000  0.00000  1.0000
  Si  Si3       1.0  0.29400  0.04670  0.34100  1.0000
  Si  Si4       1.0  0.04760  0.54700  0.34100  1.0000
  Si  Si5       1.0  0.95200  0.45300  0.65900  1.0000
  Si  Si6       1.0  0.70600  0.95300  0.65900  1.0000
  Sm  Sm1       1.0  0.93500  0.16700  0.13500  1.0000
  Sm  Sm2       1.0  0.20000  0.66700  0.13500  1.0000
  Sm  Sm3       1.0  0.79400  0.89500  0.33900  1.0000
  Sm  Sm4       1.0  0.54500  0.39500  0.33900  1.0000
  Sm  Sm5       1.0  0.20600  0.10500  0.66100  1.0000
  Sm  Sm6       1.0  0.45500  0.60500  0.66100  1.0000
  Sm  Sm7       1.0  0.80000  0.33300  0.86500  1.0000
  Sm  Sm8       1.0  0.06510  0.83300  0.86500  1.0000
