data_image0
_chemical_formula_structural       Ti4Tm6
_chemical_formula_sum              "Ti4 Tm6"
_cell_length_a       6.53887
_cell_length_b       6.53887
_cell_length_c       7.75737
_cell_angle_alpha    114.927
_cell_angle_beta     65.0731
_cell_angle_gamma    120

_space_group_name_H-M_alt    "P 1"
_space_group_IT_number       1

loop_
  _space_group_symop_operation_xyz
  'x, y, z'

loop_
  _atom_site_type_symbol
  _atom_site_label
  _atom_site_symmetry_multiplicity
  _atom_site_fract_x
  _atom_site_fract_y
  _atom_site_fract_z
  _atom_site_occupancy
  Ti  Ti1       1.0  0.30100  0.69900  0.09760  1.0000
  Ti  Ti2       1.0  0.19900  0.80100  0.40200  1.0000
  Ti  Ti3       1.0  0.80100  0.19900  0.59800  1.0000
  Ti  Ti4       1.0  0.69900  0.30100  0.90200  1.0000
  Tm  Tm1       1.0  0.25000  0.23300  0.25000  1.0000
  Tm  Tm2       1.0  0.73300  0.75000  0.25000  1.0000
  Tm  Tm3       1.0  0.76700  0.26700  0.25000  1.0000
  Tm  Tm4       1.0  0.23300  0.73300  0.75000  1.0000
  Tm  Tm5       1.0  0.26700  0.25000  0.75000  1.0000
  Tm  Tm6       1.0  0.75000  0.76700  0.75000  1.0000
