data_image0
_chemical_formula_structural       Fe4Tb6
_chemical_formula_sum              "Fe4 Tb6"
_cell_length_a       6.66348
_cell_length_b       6.66348
_cell_length_c       7.2703
_cell_angle_alpha    117.275
_cell_angle_beta     62.7246
_cell_angle_gamma    120

_space_group_name_H-M_alt    "P 1"
_space_group_IT_number       1

loop_
  _space_group_symop_operation_xyz
  'x, y, z'

loop_
  _atom_site_type_symbol
  _atom_site_label
  _atom_site_symmetry_multiplicity
  _atom_site_fract_x
  _atom_site_fract_y
  _atom_site_fract_z
  _atom_site_occupancy
  Fe  Fe1       1.0  0.31000  0.69000  0.06920  1.0000
  Fe  Fe2       1.0  0.19000  0.81000  0.43100  1.0000
  Fe  Fe3       1.0  0.81000  0.19000  0.56900  1.0000
  Fe  Fe4       1.0  0.69000  0.31000  0.93100  1.0000
  Tb  Tb1       1.0  0.86500  0.36500  0.25000  1.0000
  Tb  Tb2       1.0  0.63500  0.75000  0.25000  1.0000
  Tb  Tb3       1.0  0.25000  0.13500  0.25000  1.0000
  Tb  Tb4       1.0  0.75000  0.86500  0.75000  1.0000
  Tb  Tb5       1.0  0.36500  0.25000  0.75000  1.0000
  Tb  Tb6       1.0  0.13500  0.63500  0.75000  1.0000
