data_image0
_chemical_formula_structural       Cl12O2Sm8
_chemical_formula_sum              "Cl12 O2 Sm8"
_cell_length_a       9.1724
_cell_length_b       9.17135
_cell_length_c       7.21045
_cell_angle_alpha    90
_cell_angle_beta     90
_cell_angle_gamma    120.004

_space_group_name_H-M_alt    "P 1"
_space_group_IT_number       1

loop_
  _space_group_symop_operation_xyz
  'x, y, z'

loop_
  _atom_site_type_symbol
  _atom_site_label
  _atom_site_symmetry_multiplicity
  _atom_site_fract_x
  _atom_site_fract_y
  _atom_site_fract_z
  _atom_site_occupancy
  Cl  Cl1       1.0  0.50900  0.01700  0.22600  1.0000
  Cl  Cl2       1.0  0.50800  0.49100  0.22600  1.0000
  Cl  Cl3       1.0  0.98300  0.49100  0.22600  1.0000
  Cl  Cl4       1.0  0.13500  0.86500  0.41000  1.0000
  Cl  Cl5       1.0  0.72900  0.86500  0.41000  1.0000
  Cl  Cl6       1.0  0.13500  0.27100  0.41000  1.0000
  Cl  Cl7       1.0  0.49100  0.98300  0.72600  1.0000
  Cl  Cl8       1.0  0.01700  0.50900  0.72600  1.0000
  Cl  Cl9       1.0  0.49200  0.50900  0.72600  1.0000
  Cl  Cl10      1.0  0.27100  0.13500  0.91000  1.0000
  Cl  Cl11      1.0  0.86500  0.13500  0.91000  1.0000
  Cl  Cl12      1.0  0.86500  0.72900  0.91000  1.0000
  O   O1        1.0  0.33300  0.66700  0.02680  1.0000
  O   O2        1.0  0.66700  0.33300  0.52700  1.0000
  Sm  Sm1       1.0  0.19200  0.80700  0.02080  1.0000
  Sm  Sm2       1.0  0.61500  0.80700  0.02080  1.0000
  Sm  Sm3       1.0  0.19200  0.38500  0.02090  1.0000
  Sm  Sm4       1.0  0.33300  0.66700  0.36000  1.0000
  Sm  Sm5       1.0  0.38500  0.19300  0.52100  1.0000
  Sm  Sm6       1.0  0.80800  0.19300  0.52100  1.0000
  Sm  Sm7       1.0  0.80800  0.61500  0.52100  1.0000
  Sm  Sm8       1.0  0.66700  0.33300  0.86000  1.0000
