data_image0
_chemical_formula_structural       Cr4Fe6
_chemical_formula_sum              "Cr4 Fe6"
_cell_length_a       6.1176
_cell_length_b       6.1176
_cell_length_c       4.84788
_cell_angle_alpha    129.121
_cell_angle_beta     50.8793
_cell_angle_gamma    120

_space_group_name_H-M_alt    "P 1"
_space_group_IT_number       1

loop_
  _space_group_symop_operation_xyz
  'x, y, z'

loop_
  _atom_site_type_symbol
  _atom_site_label
  _atom_site_symmetry_multiplicity
  _atom_site_fract_x
  _atom_site_fract_y
  _atom_site_fract_z
  _atom_site_occupancy
  Cr  Cr1       1.0  0.62100  0.37900  0.13700  1.0000
  Cr  Cr2       1.0  0.87900  0.12100  0.36300  1.0000
  Cr  Cr3       1.0  0.12100  0.87900  0.63700  1.0000
  Cr  Cr4       1.0  0.37900  0.62100  0.86300  1.0000
  Fe  Fe1       1.0  0.57200  0.75000  0.25000  1.0000
  Fe  Fe2       1.0  0.92800  0.42800  0.25000  1.0000
  Fe  Fe3       1.0  0.25000  0.07160  0.25000  1.0000
  Fe  Fe4       1.0  0.75000  0.92800  0.75000  1.0000
  Fe  Fe5       1.0  0.07160  0.57200  0.75000  1.0000
  Fe  Fe6       1.0  0.42800  0.25000  0.75000  1.0000
