data_image0
_chemical_formula_structural       Ca4Fe6
_chemical_formula_sum              "Ca4 Fe6"
_cell_length_a       6.78147
_cell_length_b       6.78147
_cell_length_c       6.93144
_cell_angle_alpha    119.287
_cell_angle_beta     60.7132
_cell_angle_gamma    120

_space_group_name_H-M_alt    "P 1"
_space_group_IT_number       1

loop_
  _space_group_symop_operation_xyz
  'x, y, z'

loop_
  _atom_site_type_symbol
  _atom_site_label
  _atom_site_symmetry_multiplicity
  _atom_site_fract_x
  _atom_site_fract_y
  _atom_site_fract_z
  _atom_site_occupancy
  Ca  Ca1       1.0  0.59500  0.40500  0.21500  1.0000
  Ca  Ca2       1.0  0.90500  0.09500  0.28500  1.0000
  Ca  Ca3       1.0  0.09500  0.90500  0.71500  1.0000
  Ca  Ca4       1.0  0.40500  0.59500  0.78500  1.0000
  Fe  Fe1       1.0  0.05940  0.55900  0.25000  1.0000
  Fe  Fe2       1.0  0.44100  0.75000  0.25000  1.0000
  Fe  Fe3       1.0  0.25000  0.94100  0.25000  1.0000
  Fe  Fe4       1.0  0.94100  0.44100  0.75000  1.0000
  Fe  Fe5       1.0  0.55900  0.25000  0.75000  1.0000
  Fe  Fe6       1.0  0.75000  0.05940  0.75000  1.0000
