data_image0
_chemical_formula_structural       Os4Ti6
_chemical_formula_sum              "Os4 Ti6"
_cell_length_a       5.5271
_cell_length_b       5.5271
_cell_length_c       6.96849
_cell_angle_alpha    113.364
_cell_angle_beta     66.6356
_cell_angle_gamma    120

_space_group_name_H-M_alt    "P 1"
_space_group_IT_number       1

loop_
  _space_group_symop_operation_xyz
  'x, y, z'

loop_
  _atom_site_type_symbol
  _atom_site_label
  _atom_site_symmetry_multiplicity
  _atom_site_fract_x
  _atom_site_fract_y
  _atom_site_fract_z
  _atom_site_occupancy
  Os  Os1       1.0  0.31600  0.68400  0.05110  1.0000
  Os  Os2       1.0  0.18400  0.81600  0.44900  1.0000
  Os  Os3       1.0  0.81600  0.18400  0.55100  1.0000
  Os  Os4       1.0  0.68400  0.31600  0.94900  1.0000
  Ti  Ti1       1.0  0.25000  0.22200  0.25000  1.0000
  Ti  Ti2       1.0  0.77800  0.27800  0.25000  1.0000
  Ti  Ti3       1.0  0.72200  0.75000  0.25000  1.0000
  Ti  Ti4       1.0  0.27800  0.25000  0.75000  1.0000
  Ti  Ti5       1.0  0.22200  0.72200  0.75000  1.0000
  Ti  Ti6       1.0  0.75000  0.77800  0.75000  1.0000
