data_image0
_chemical_formula_structural       Fe4Tl6
_chemical_formula_sum              "Fe4 Tl6"
_cell_length_a       6.58134
_cell_length_b       6.58135
_cell_length_c       7.16307
_cell_angle_alpha    117.348
_cell_angle_beta     62.652
_cell_angle_gamma    120

_space_group_name_H-M_alt    "P 1"
_space_group_IT_number       1

loop_
  _space_group_symop_operation_xyz
  'x, y, z'

loop_
  _atom_site_type_symbol
  _atom_site_label
  _atom_site_symmetry_multiplicity
  _atom_site_fract_x
  _atom_site_fract_y
  _atom_site_fract_z
  _atom_site_occupancy
  Fe  Fe1       1.0  0.31300  0.68700  0.05980  1.0000
  Fe  Fe2       1.0  0.18700  0.81300  0.44000  1.0000
  Fe  Fe3       1.0  0.81300  0.18700  0.56000  1.0000
  Fe  Fe4       1.0  0.68700  0.31300  0.94000  1.0000
  Tl  Tl1       1.0  0.86100  0.36100  0.25000  1.0000
  Tl  Tl2       1.0  0.63900  0.75000  0.25000  1.0000
  Tl  Tl3       1.0  0.25000  0.13900  0.25000  1.0000
  Tl  Tl4       1.0  0.75000  0.86100  0.75000  1.0000
  Tl  Tl5       1.0  0.36100  0.25000  0.75000  1.0000
  Tl  Tl6       1.0  0.13900  0.63900  0.75000  1.0000
