data_image0
_chemical_formula_structural       Fe4Zr6
_chemical_formula_sum              "Fe4 Zr6"
_cell_length_a       6.15332
_cell_length_b       6.15332
_cell_length_c       6.78505
_cell_angle_alpha    116.965
_cell_angle_beta     63.035
_cell_angle_gamma    120

_space_group_name_H-M_alt    "P 1"
_space_group_IT_number       1

loop_
  _space_group_symop_operation_xyz
  'x, y, z'

loop_
  _atom_site_type_symbol
  _atom_site_label
  _atom_site_symmetry_multiplicity
  _atom_site_fract_x
  _atom_site_fract_y
  _atom_site_fract_z
  _atom_site_occupancy
  Fe  Fe1       1.0  0.32200  0.67800  0.03530  1.0000
  Fe  Fe2       1.0  0.17800  0.82200  0.46500  1.0000
  Fe  Fe3       1.0  0.82200  0.17800  0.53500  1.0000
  Fe  Fe4       1.0  0.67800  0.32200  0.96500  1.0000
  Zr  Zr1       1.0  0.25000  0.11900  0.25000  1.0000
  Zr  Zr2       1.0  0.61900  0.75000  0.25000  1.0000
  Zr  Zr3       1.0  0.88100  0.38100  0.25000  1.0000
  Zr  Zr4       1.0  0.11900  0.61900  0.75000  1.0000
  Zr  Zr5       1.0  0.38100  0.25000  0.75000  1.0000
  Zr  Zr6       1.0  0.75000  0.88100  0.75000  1.0000
