data_image0
_chemical_formula_structural       Mg4Zr6
_chemical_formula_sum              "Mg4 Zr6"
_cell_length_a       5.95513
_cell_length_b       5.95513
_cell_length_c       8.11961
_cell_angle_alpha    111.513
_cell_angle_beta     68.487
_cell_angle_gamma    120

_space_group_name_H-M_alt    "P 1"
_space_group_IT_number       1

loop_
  _space_group_symop_operation_xyz
  'x, y, z'

loop_
  _atom_site_type_symbol
  _atom_site_label
  _atom_site_symmetry_multiplicity
  _atom_site_fract_x
  _atom_site_fract_y
  _atom_site_fract_z
  _atom_site_occupancy
  Mg  Mg1       1.0  0.30800  0.69200  0.07540  1.0000
  Mg  Mg2       1.0  0.19200  0.80800  0.42500  1.0000
  Mg  Mg3       1.0  0.80800  0.19200  0.57500  1.0000
  Mg  Mg4       1.0  0.69200  0.30800  0.92500  1.0000
  Zr  Zr1       1.0  0.25000  0.25000  0.25000  1.0000
  Zr  Zr2       1.0  0.75000  0.25000  0.25000  1.0000
  Zr  Zr3       1.0  0.75000  0.75000  0.25000  1.0000
  Zr  Zr4       1.0  0.25000  0.25000  0.75000  1.0000
  Zr  Zr5       1.0  0.25000  0.75000  0.75000  1.0000
  Zr  Zr6       1.0  0.75000  0.75000  0.75000  1.0000
