data_image0
_chemical_formula_structural       Ti4Y6
_chemical_formula_sum              "Ti4 Y6"
_cell_length_a       6.68068
_cell_length_b       6.68068
_cell_length_c       7.85612
_cell_angle_alpha    115.163
_cell_angle_beta     64.8374
_cell_angle_gamma    120

_space_group_name_H-M_alt    "P 1"
_space_group_IT_number       1

loop_
  _space_group_symop_operation_xyz
  'x, y, z'

loop_
  _atom_site_type_symbol
  _atom_site_label
  _atom_site_symmetry_multiplicity
  _atom_site_fract_x
  _atom_site_fract_y
  _atom_site_fract_z
  _atom_site_occupancy
  Ti  Ti1       1.0  0.30000  0.70000  0.09980  1.0000
  Ti  Ti2       1.0  0.20000  0.80000  0.40000  1.0000
  Ti  Ti3       1.0  0.80000  0.20000  0.60000  1.0000
  Ti  Ti4       1.0  0.70000  0.30000  0.90000  1.0000
  Y   Y1        1.0  0.25000  0.23000  0.25000  1.0000
  Y   Y2        1.0  0.77000  0.27000  0.25000  1.0000
  Y   Y3        1.0  0.73000  0.75000  0.25000  1.0000
  Y   Y4        1.0  0.27000  0.25000  0.75000  1.0000
  Y   Y5        1.0  0.23000  0.73000  0.75000  1.0000
  Y   Y6        1.0  0.75000  0.77000  0.75000  1.0000
