data_image0
_chemical_formula_structural       Ag4Ge2In4Se12
_chemical_formula_sum              "Ag4 Ge2 In4 Se12"
_cell_length_a       7.55499
_cell_length_b       7.55499
_cell_length_c       12.9452
_cell_angle_alpha    106.619
_cell_angle_beta     73.3809
_cell_angle_gamma    118.86

_space_group_name_H-M_alt    "P 1"
_space_group_IT_number       1

loop_
  _space_group_symop_operation_xyz
  'x, y, z'

loop_
  _atom_site_type_symbol
  _atom_site_label
  _atom_site_symmetry_multiplicity
  _atom_site_fract_x
  _atom_site_fract_y
  _atom_site_fract_z
  _atom_site_occupancy
  Ag  Ag1       1.0  0.01710  0.79700  0.25500  1.0000
  Ag  Ag2       1.0  0.19700  0.38300  0.41900  1.0000
  Ag  Ag3       1.0  0.20300  0.98300  0.75500  1.0000
  Ag  Ag4       1.0  0.61700  0.80300  0.91900  1.0000
  Ge  Ge1       1.0  0.06960  0.39600  0.00501  1.0000
  Ge  Ge2       1.0  0.60400  0.93000  0.50500  1.0000
  In  In1       1.0  0.49800  0.31500  0.06440  1.0000
  In  In2       1.0  0.70400  0.16800  0.26200  1.0000
  In  In3       1.0  0.68500  0.50200  0.56400  1.0000
  In  In4       1.0  0.83200  0.29600  0.76200  1.0000
  Se  Se1       1.0  0.88900  0.60000  0.05390  1.0000
  Se  Se2       1.0  0.89800  0.07410  0.06230  1.0000
  Se  Se3       1.0  0.37000  0.59800  0.08630  1.0000
  Se  Se4       1.0  0.35500  0.16100  0.24800  1.0000
  Se  Se5       1.0  0.65200  0.82700  0.31200  1.0000
  Se  Se6       1.0  0.94800  0.51300  0.37600  1.0000
  Se  Se7       1.0  0.40000  0.11100  0.55400  1.0000
  Se  Se8       1.0  0.92600  0.10200  0.56200  1.0000
  Se  Se9       1.0  0.40200  0.63000  0.58600  1.0000
  Se  Se10      1.0  0.83900  0.64500  0.74800  1.0000
  Se  Se11      1.0  0.17300  0.34800  0.81200  1.0000
  Se  Se12      1.0  0.48700  0.05220  0.87600  1.0000
