data_image0
_chemical_formula_structural       Pd4Ti6
_chemical_formula_sum              "Pd4 Ti6"
_cell_length_a       6.438
_cell_length_b       6.438
_cell_length_c       5.99916
_cell_angle_alpha    122.451
_cell_angle_beta     57.5492
_cell_angle_gamma    120

_space_group_name_H-M_alt    "P 1"
_space_group_IT_number       1

loop_
  _space_group_symop_operation_xyz
  'x, y, z'

loop_
  _atom_site_type_symbol
  _atom_site_label
  _atom_site_symmetry_multiplicity
  _atom_site_fract_x
  _atom_site_fract_y
  _atom_site_fract_z
  _atom_site_occupancy
  Pd  Pd1       1.0  0.59500  0.40500  0.21400  1.0000
  Pd  Pd2       1.0  0.90500  0.09520  0.28600  1.0000
  Pd  Pd3       1.0  0.09520  0.90500  0.71400  1.0000
  Pd  Pd4       1.0  0.40500  0.59500  0.78600  1.0000
  Ti  Ti1       1.0  0.50500  0.75000  0.25000  1.0000
  Ti  Ti2       1.0  0.99500  0.49500  0.25000  1.0000
  Ti  Ti3       1.0  0.25000  0.00475  0.25000  1.0000
  Ti  Ti4       1.0  0.00475  0.50500  0.75000  1.0000
  Ti  Ti5       1.0  0.49500  0.25000  0.75000  1.0000
  Ti  Ti6       1.0  0.75000  0.99500  0.75000  1.0000
