data_image0
_chemical_formula_structural       Ni4Ti6
_chemical_formula_sum              "Ni4 Ti6"
_cell_length_a       6.27076
_cell_length_b       6.27076
_cell_length_c       5.60088
_cell_angle_alpha    124.042
_cell_angle_beta     55.958
_cell_angle_gamma    120

_space_group_name_H-M_alt    "P 1"
_space_group_IT_number       1

loop_
  _space_group_symop_operation_xyz
  'x, y, z'

loop_
  _atom_site_type_symbol
  _atom_site_label
  _atom_site_symmetry_multiplicity
  _atom_site_fract_x
  _atom_site_fract_y
  _atom_site_fract_z
  _atom_site_occupancy
  Ni  Ni1       1.0  0.59400  0.40600  0.21800  1.0000
  Ni  Ni2       1.0  0.90600  0.09390  0.28200  1.0000
  Ni  Ni3       1.0  0.09390  0.90600  0.71800  1.0000
  Ni  Ni4       1.0  0.40600  0.59400  0.78200  1.0000
  Ti  Ti1       1.0  0.97700  0.47700  0.25000  1.0000
  Ti  Ti2       1.0  0.25000  0.02260  0.25000  1.0000
  Ti  Ti3       1.0  0.52300  0.75000  0.25000  1.0000
  Ti  Ti4       1.0  0.47700  0.25000  0.75000  1.0000
  Ti  Ti5       1.0  0.75000  0.97700  0.75000  1.0000
  Ti  Ti6       1.0  0.02260  0.52300  0.75000  1.0000
