data_image0
_chemical_formula_structural       Cd8Ge2Se12
_chemical_formula_sum              "Cd8 Ge2 Se12"
_cell_length_a       7.59137
_cell_length_b       7.57836
_cell_length_c       13.1186
_cell_angle_alpha    106.455
_cell_angle_beta     106.818
_cell_angle_gamma    59.9371

_space_group_name_H-M_alt    "P 1"
_space_group_IT_number       1

loop_
  _space_group_symop_operation_xyz
  'x, y, z'

loop_
  _atom_site_type_symbol
  _atom_site_label
  _atom_site_symmetry_multiplicity
  _atom_site_fract_x
  _atom_site_fract_y
  _atom_site_fract_z
  _atom_site_occupancy
  Cd  Cd1       1.0  0.79100  0.15700  0.14400  1.0000
  Cd  Cd2       1.0  0.28700  0.58100  0.30000  1.0000
  Cd  Cd3       1.0  0.59600  0.90400  0.30700  1.0000
  Cd  Cd4       1.0  0.06850  0.14100  0.49300  1.0000
  Cd  Cd5       1.0  0.19600  0.65700  0.64400  1.0000
  Cd  Cd6       1.0  0.43200  0.08100  0.80100  1.0000
  Cd  Cd7       1.0  0.80700  0.40400  0.80700  1.0000
  Cd  Cd8       1.0  0.28400  0.64100  0.99300  1.0000
  Ge  Ge1       1.0  0.19600  0.20400  0.05720  1.0000
  Ge  Ge2       1.0  0.65700  0.70400  0.55700  1.0000
  Se  Se1       1.0  0.99300  0.53300  0.00375  1.0000
  Se  Se2       1.0  0.52300  0.00000  0.00450  1.0000
  Se  Se3       1.0  0.53500  0.57200  0.18600  1.0000
  Se  Se4       1.0  0.22700  0.24000  0.24600  1.0000
  Se  Se5       1.0  0.93000  0.94300  0.30800  1.0000
  Se  Se6       1.0  0.95600  0.53200  0.47400  1.0000
  Se  Se7       1.0  0.47700  0.03320  0.50400  1.0000
  Se  Se8       1.0  0.48200  0.50000  0.50400  1.0000
  Se  Se9       1.0  0.07950  0.07180  0.68600  1.0000
  Se  Se10      1.0  0.77900  0.74000  0.74600  1.0000
  Se  Se11      1.0  0.43500  0.44300  0.80800  1.0000
  Se  Se12      1.0  0.98700  0.03170  0.97400  1.0000
