data_image0
_chemical_formula_structural       Sb4Ti6
_chemical_formula_sum              "Sb4 Ti6"
_cell_length_a       6.96222
_cell_length_b       6.96222
_cell_length_c       6.61125
_cell_angle_alpha    121.772
_cell_angle_beta     58.2278
_cell_angle_gamma    120

_space_group_name_H-M_alt    "P 1"
_space_group_IT_number       1

loop_
  _space_group_symop_operation_xyz
  'x, y, z'

loop_
  _atom_site_type_symbol
  _atom_site_label
  _atom_site_symmetry_multiplicity
  _atom_site_fract_x
  _atom_site_fract_y
  _atom_site_fract_z
  _atom_site_occupancy
  Sb  Sb1       1.0  0.60700  0.39300  0.17900  1.0000
  Sb  Sb2       1.0  0.89300  0.10700  0.32100  1.0000
  Sb  Sb3       1.0  0.10700  0.89300  0.67900  1.0000
  Sb  Sb4       1.0  0.39300  0.60700  0.82100  1.0000
  Ti  Ti1       1.0  0.48300  0.75000  0.25000  1.0000
  Ti  Ti2       1.0  0.01730  0.51700  0.25000  1.0000
  Ti  Ti3       1.0  0.25000  0.98300  0.25000  1.0000
  Ti  Ti4       1.0  0.98300  0.48300  0.75000  1.0000
  Ti  Ti5       1.0  0.51700  0.25000  0.75000  1.0000
  Ti  Ti6       1.0  0.75000  0.01730  0.75000  1.0000
