data_image0
_chemical_formula_structural       Fe4Tc6
_chemical_formula_sum              "Fe4 Tc6"
_cell_length_a       6.16596
_cell_length_b       6.16596
_cell_length_c       5.41814
_cell_angle_alpha    124.681
_cell_angle_beta     55.3187
_cell_angle_gamma    120

_space_group_name_H-M_alt    "P 1"
_space_group_IT_number       1

loop_
  _space_group_symop_operation_xyz
  'x, y, z'

loop_
  _atom_site_type_symbol
  _atom_site_label
  _atom_site_symmetry_multiplicity
  _atom_site_fract_x
  _atom_site_fract_y
  _atom_site_fract_z
  _atom_site_occupancy
  Fe  Fe1       1.0  0.59000  0.41000  0.22900  1.0000
  Fe  Fe2       1.0  0.91000  0.09050  0.27100  1.0000
  Fe  Fe3       1.0  0.09050  0.91000  0.72900  1.0000
  Fe  Fe4       1.0  0.41000  0.59000  0.77100  1.0000
  Tc  Tc1       1.0  0.98800  0.48800  0.25000  1.0000
  Tc  Tc2       1.0  0.51200  0.75000  0.25000  1.0000
  Tc  Tc3       1.0  0.25000  0.01190  0.25000  1.0000
  Tc  Tc4       1.0  0.01190  0.51200  0.75000  1.0000
  Tc  Tc5       1.0  0.48800  0.25000  0.75000  1.0000
  Tc  Tc6       1.0  0.75000  0.98800  0.75000  1.0000
