data_image0
_chemical_formula_structural       Ni4Sc6
_chemical_formula_sum              "Ni4 Sc6"
_cell_length_a       6.16609
_cell_length_b       6.16609
_cell_length_c       6.77355
_cell_angle_alpha    117.075
_cell_angle_beta     62.9248
_cell_angle_gamma    120

_space_group_name_H-M_alt    "P 1"
_space_group_IT_number       1

loop_
  _space_group_symop_operation_xyz
  'x, y, z'

loop_
  _atom_site_type_symbol
  _atom_site_label
  _atom_site_symmetry_multiplicity
  _atom_site_fract_x
  _atom_site_fract_y
  _atom_site_fract_z
  _atom_site_occupancy
  Ni  Ni1       1.0  0.31800  0.68200  0.04580  1.0000
  Ni  Ni2       1.0  0.18200  0.81800  0.45400  1.0000
  Ni  Ni3       1.0  0.81800  0.18200  0.54600  1.0000
  Ni  Ni4       1.0  0.68200  0.31800  0.95400  1.0000
  Sc  Sc1       1.0  0.25000  0.13100  0.25000  1.0000
  Sc  Sc2       1.0  0.86900  0.36900  0.25000  1.0000
  Sc  Sc3       1.0  0.63100  0.75000  0.25000  1.0000
  Sc  Sc4       1.0  0.36900  0.25000  0.75000  1.0000
  Sc  Sc5       1.0  0.13100  0.63100  0.75000  1.0000
  Sc  Sc6       1.0  0.75000  0.86900  0.75000  1.0000
