data_image0
_chemical_formula_structural       Fe4Lu6
_chemical_formula_sum              "Fe4 Lu6"
_cell_length_a       6.46975
_cell_length_b       6.46975
_cell_length_c       7.09875
_cell_angle_alpha    117.11
_cell_angle_beta     62.8903
_cell_angle_gamma    120

_space_group_name_H-M_alt    "P 1"
_space_group_IT_number       1

loop_
  _space_group_symop_operation_xyz
  'x, y, z'

loop_
  _atom_site_type_symbol
  _atom_site_label
  _atom_site_symmetry_multiplicity
  _atom_site_fract_x
  _atom_site_fract_y
  _atom_site_fract_z
  _atom_site_occupancy
  Fe  Fe1       1.0  0.31100  0.68900  0.06560  1.0000
  Fe  Fe2       1.0  0.18900  0.81100  0.43400  1.0000
  Fe  Fe3       1.0  0.81100  0.18900  0.56600  1.0000
  Fe  Fe4       1.0  0.68900  0.31100  0.93400  1.0000
  Lu  Lu1       1.0  0.25000  0.13500  0.25000  1.0000
  Lu  Lu2       1.0  0.86500  0.36500  0.25000  1.0000
  Lu  Lu3       1.0  0.63500  0.75000  0.25000  1.0000
  Lu  Lu4       1.0  0.36500  0.25000  0.75000  1.0000
  Lu  Lu5       1.0  0.13500  0.63500  0.75000  1.0000
  Lu  Lu6       1.0  0.75000  0.86500  0.75000  1.0000
