data_image0
_chemical_formula_structural       Tc4Ti6
_chemical_formula_sum              "Tc4 Ti6"
_cell_length_a       5.55665
_cell_length_b       5.55665
_cell_length_c       6.92098
_cell_angle_alpha    113.668
_cell_angle_beta     66.3321
_cell_angle_gamma    120

_space_group_name_H-M_alt    "P 1"
_space_group_IT_number       1

loop_
  _space_group_symop_operation_xyz
  'x, y, z'

loop_
  _atom_site_type_symbol
  _atom_site_label
  _atom_site_symmetry_multiplicity
  _atom_site_fract_x
  _atom_site_fract_y
  _atom_site_fract_z
  _atom_site_occupancy
  Tc  Tc1       1.0  0.31500  0.68500  0.05520  1.0000
  Tc  Tc2       1.0  0.18500  0.81500  0.44500  1.0000
  Tc  Tc3       1.0  0.81500  0.18500  0.55500  1.0000
  Tc  Tc4       1.0  0.68500  0.31500  0.94500  1.0000
  Ti  Ti1       1.0  0.25000  0.24900  0.25000  1.0000
  Ti  Ti2       1.0  0.75100  0.25100  0.25000  1.0000
  Ti  Ti3       1.0  0.74900  0.75000  0.25000  1.0000
  Ti  Ti4       1.0  0.25100  0.25000  0.75000  1.0000
  Ti  Ti5       1.0  0.24900  0.74900  0.75000  1.0000
  Ti  Ti6       1.0  0.75000  0.75100  0.75000  1.0000
