data_image0
_chemical_formula_structural       F16Sn6
_chemical_formula_sum              "F16 Sn6"
_cell_length_a       4.92356
_cell_length_b       5.15342
_cell_length_c       12.1721
_cell_angle_alpha    90
_cell_angle_beta     91.6918
_cell_angle_gamma    90

_space_group_name_H-M_alt    "P 1"
_space_group_IT_number       1

loop_
  _space_group_symop_operation_xyz
  'x, y, z'

loop_
  _atom_site_type_symbol
  _atom_site_label
  _atom_site_symmetry_multiplicity
  _atom_site_fract_x
  _atom_site_fract_y
  _atom_site_fract_z
  _atom_site_occupancy
  F   F1        1.0  0.16900  0.80900  0.04200  1.0000
  F   F2        1.0  0.34000  0.33100  0.05280  1.0000
  F   F3        1.0  0.67300  0.95600  0.15000  1.0000
  F   F4        1.0  0.15700  0.10000  0.24500  1.0000
  F   F5        1.0  0.34300  0.60000  0.25500  1.0000
  F   F6        1.0  0.82700  0.45600  0.35000  1.0000
  F   F7        1.0  0.16000  0.83100  0.44700  1.0000
  F   F8        1.0  0.33100  0.30900  0.45800  1.0000
  F   F9        1.0  0.66900  0.69100  0.54200  1.0000
  F   F10       1.0  0.84000  0.16900  0.55300  1.0000
  F   F11       1.0  0.17300  0.54400  0.65000  1.0000
  F   F12       1.0  0.65700  0.40000  0.74500  1.0000
  F   F13       1.0  0.84300  0.90000  0.75500  1.0000
  F   F14       1.0  0.32700  0.04390  0.85000  1.0000
  F   F15       1.0  0.66000  0.66900  0.94700  1.0000
  F   F16       1.0  0.83100  0.19100  0.95800  1.0000
  Sn  Sn1       1.0  0.50000  0.00000  0.00000  1.0000
  Sn  Sn2       1.0  0.99700  0.45500  0.16500  1.0000
  Sn  Sn3       1.0  0.50300  0.95500  0.33500  1.0000
  Sn  Sn4       1.0  0.00000  0.50000  0.50000  1.0000
  Sn  Sn5       1.0  0.49700  0.04520  0.66500  1.0000
  Sn  Sn6       1.0  0.00269  0.54500  0.83500  1.0000
