data_image0
_chemical_formula_structural       Si4Ti6
_chemical_formula_sum              "Si4 Ti6"
_cell_length_a       6.00877
_cell_length_b       6.00877
_cell_length_c       6.58613
_cell_angle_alpha    117.14
_cell_angle_beta     62.8599
_cell_angle_gamma    120

_space_group_name_H-M_alt    "P 1"
_space_group_IT_number       1

loop_
  _space_group_symop_operation_xyz
  'x, y, z'

loop_
  _atom_site_type_symbol
  _atom_site_label
  _atom_site_symmetry_multiplicity
  _atom_site_fract_x
  _atom_site_fract_y
  _atom_site_fract_z
  _atom_site_occupancy
  Si  Si1       1.0  0.32200  0.67800  0.03400  1.0000
  Si  Si2       1.0  0.17800  0.82200  0.46600  1.0000
  Si  Si3       1.0  0.82200  0.17800  0.53400  1.0000
  Si  Si4       1.0  0.67800  0.32200  0.96600  1.0000
  Ti  Ti1       1.0  0.25000  0.12000  0.25000  1.0000
  Ti  Ti2       1.0  0.88000  0.38000  0.25000  1.0000
  Ti  Ti3       1.0  0.62000  0.75000  0.25000  1.0000
  Ti  Ti4       1.0  0.38000  0.25000  0.75000  1.0000
  Ti  Ti5       1.0  0.12000  0.62000  0.75000  1.0000
  Ti  Ti6       1.0  0.75000  0.88000  0.75000  1.0000
