data_image0
_chemical_formula_structural       Ba8Br12O2
_chemical_formula_sum              "Ba8 Br12 O2"
_cell_length_a       10.4907
_cell_length_b       10.4903
_cell_length_c       8.03228
_cell_angle_alpha    90
_cell_angle_beta     90
_cell_angle_gamma    120.001

_space_group_name_H-M_alt    "P 1"
_space_group_IT_number       1

loop_
  _space_group_symop_operation_xyz
  'x, y, z'

loop_
  _atom_site_type_symbol
  _atom_site_label
  _atom_site_symmetry_multiplicity
  _atom_site_fract_x
  _atom_site_fract_y
  _atom_site_fract_z
  _atom_site_occupancy
  Ba  Ba1       1.0  0.19900  0.39800  0.00082  1.0000
  Ba  Ba2       1.0  0.19900  0.80100  0.00083  1.0000
  Ba  Ba3       1.0  0.60200  0.80100  0.00083  1.0000
  Ba  Ba4       1.0  0.33300  0.66700  0.42000  1.0000
  Ba  Ba5       1.0  0.80100  0.60200  0.50100  1.0000
  Ba  Ba6       1.0  0.39800  0.19900  0.50100  1.0000
  Ba  Ba7       1.0  0.80100  0.19900  0.50100  1.0000
  Ba  Ba8       1.0  0.66700  0.33300  0.92000  1.0000
  Br  Br1       1.0  0.53100  0.06210  0.20900  1.0000
  Br  Br2       1.0  0.53100  0.46900  0.20900  1.0000
  Br  Br3       1.0  0.93800  0.46900  0.20900  1.0000
  Br  Br4       1.0  0.14300  0.28600  0.39200  1.0000
  Br  Br5       1.0  0.14300  0.85700  0.39200  1.0000
  Br  Br6       1.0  0.71400  0.85700  0.39200  1.0000
  Br  Br7       1.0  0.46900  0.93800  0.70900  1.0000
  Br  Br8       1.0  0.06210  0.53100  0.70900  1.0000
  Br  Br9       1.0  0.46900  0.53100  0.70900  1.0000
  Br  Br10      1.0  0.85700  0.71400  0.89200  1.0000
  Br  Br11      1.0  0.28600  0.14300  0.89200  1.0000
  Br  Br12      1.0  0.85700  0.14300  0.89200  1.0000
  O   O1        1.0  0.33300  0.66700  0.10000  1.0000
  O   O2        1.0  0.66700  0.33300  0.60000  1.0000
