data_image0
_chemical_formula_structural       Cl12O2Yb8
_chemical_formula_sum              "Cl12 O2 Yb8"
_cell_length_a       8.95941
_cell_length_b       8.95924
_cell_length_c       6.77866
_cell_angle_alpha    90
_cell_angle_beta     90
_cell_angle_gamma    120.001

_space_group_name_H-M_alt    "P 1"
_space_group_IT_number       1

loop_
  _space_group_symop_operation_xyz
  'x, y, z'

loop_
  _atom_site_type_symbol
  _atom_site_label
  _atom_site_symmetry_multiplicity
  _atom_site_fract_x
  _atom_site_fract_y
  _atom_site_fract_z
  _atom_site_occupancy
  Cl  Cl1       1.0  0.53600  0.07190  0.21300  1.0000
  Cl  Cl2       1.0  0.53600  0.46400  0.21300  1.0000
  Cl  Cl3       1.0  0.92800  0.46400  0.21300  1.0000
  Cl  Cl4       1.0  0.13900  0.86100  0.38700  1.0000
  Cl  Cl5       1.0  0.72200  0.86100  0.38700  1.0000
  Cl  Cl6       1.0  0.13900  0.27800  0.38700  1.0000
  Cl  Cl7       1.0  0.46400  0.92800  0.71300  1.0000
  Cl  Cl8       1.0  0.07180  0.53600  0.71300  1.0000
  Cl  Cl9       1.0  0.46400  0.53600  0.71300  1.0000
  Cl  Cl10      1.0  0.27800  0.13900  0.88700  1.0000
  Cl  Cl11      1.0  0.86100  0.13900  0.88700  1.0000
  Cl  Cl12      1.0  0.86100  0.72300  0.88700  1.0000
  O   O1        1.0  0.33300  0.66700  0.10700  1.0000
  O   O2        1.0  0.66700  0.33300  0.60700  1.0000
  Yb  Yb1       1.0  0.19900  0.39800  0.00209  1.0000
  Yb  Yb2       1.0  0.19900  0.80100  0.00210  1.0000
  Yb  Yb3       1.0  0.60200  0.80100  0.00210  1.0000
  Yb  Yb4       1.0  0.33300  0.66700  0.42900  1.0000
  Yb  Yb5       1.0  0.80100  0.60200  0.50200  1.0000
  Yb  Yb6       1.0  0.39800  0.19900  0.50200  1.0000
  Yb  Yb7       1.0  0.80100  0.19900  0.50200  1.0000
  Yb  Yb8       1.0  0.66700  0.33300  0.92900  1.0000
