data_image0
_chemical_formula_structural       F10O8Tc2Xe2
_chemical_formula_sum              "F10 O8 Tc2 Xe2"
_cell_length_a       5.06541
_cell_length_b       7.53358
_cell_length_c       8.67701
_cell_angle_alpha    64.2712
_cell_angle_beta     90
_cell_angle_gamma    90

_space_group_name_H-M_alt    "P 1"
_space_group_IT_number       1

loop_
  _space_group_symop_operation_xyz
  'x, y, z'

loop_
  _atom_site_type_symbol
  _atom_site_label
  _atom_site_symmetry_multiplicity
  _atom_site_fract_x
  _atom_site_fract_y
  _atom_site_fract_z
  _atom_site_occupancy
  F   F1        1.0  0.56500  0.47800  0.04440  1.0000
  F   F2        1.0  0.24100  0.96100  0.07710  1.0000
  F   F3        1.0  0.88600  0.18400  0.14600  1.0000
  F   F4        1.0  0.88600  0.67000  0.14600  1.0000
  F   F5        1.0  0.89200  0.80500  0.39000  1.0000
  F   F6        1.0  0.39200  0.19500  0.61000  1.0000
  F   F7        1.0  0.38600  0.33000  0.85400  1.0000
  F   F8        1.0  0.38600  0.81600  0.85400  1.0000
  F   F9        1.0  0.74100  0.03850  0.92300  1.0000
  F   F10       1.0  0.06530  0.52200  0.95600  1.0000
  O   O1        1.0  0.20400  0.35300  0.29300  1.0000
  O   O2        1.0  0.42400  0.01860  0.36000  1.0000
  O   O3        1.0  0.42400  0.62100  0.36000  1.0000
  O   O4        1.0  0.70000  0.31500  0.37000  1.0000
  O   O5        1.0  0.20000  0.68500  0.63000  1.0000
  O   O6        1.0  0.92400  0.37900  0.64000  1.0000
  O   O7        1.0  0.92400  0.98100  0.64000  1.0000
  O   O8        1.0  0.70400  0.64700  0.70700  1.0000
  Tc  Tc1       1.0  0.90500  0.39900  0.20100  1.0000
  Tc  Tc2       1.0  0.40500  0.60100  0.79900  1.0000
  Xe  Xe1       1.0  0.55500  0.87600  0.24900  1.0000
  Xe  Xe2       1.0  0.05540  0.12400  0.75100  1.0000
