data_image0
_chemical_formula_structural       Ni4Y6
_chemical_formula_sum              "Ni4 Y6"
_cell_length_a       6.71955
_cell_length_b       6.71955
_cell_length_c       7.23121
_cell_angle_alpha    117.686
_cell_angle_beta     62.3142
_cell_angle_gamma    120

_space_group_name_H-M_alt    "P 1"
_space_group_IT_number       1

loop_
  _space_group_symop_operation_xyz
  'x, y, z'

loop_
  _atom_site_type_symbol
  _atom_site_label
  _atom_site_symmetry_multiplicity
  _atom_site_fract_x
  _atom_site_fract_y
  _atom_site_fract_z
  _atom_site_occupancy
  Ni  Ni1       1.0  0.31600  0.68400  0.05190  1.0000
  Ni  Ni2       1.0  0.18400  0.81600  0.44800  1.0000
  Ni  Ni3       1.0  0.81600  0.18400  0.55200  1.0000
  Ni  Ni4       1.0  0.68400  0.31600  0.94800  1.0000
  Y   Y1        1.0  0.87500  0.37500  0.25000  1.0000
  Y   Y2        1.0  0.25000  0.12500  0.25000  1.0000
  Y   Y3        1.0  0.62500  0.75000  0.25000  1.0000
  Y   Y4        1.0  0.37500  0.25000  0.75000  1.0000
  Y   Y5        1.0  0.75000  0.87500  0.75000  1.0000
  Y   Y6        1.0  0.12500  0.62500  0.75000  1.0000
