data_image0
_chemical_formula_structural       Ce8Rh8Si6
_chemical_formula_sum              "Ce8 Rh8 Si6"
_cell_length_a       5.81531
_cell_length_b       7.95612
_cell_length_c       10.9787
_cell_angle_alpha    108.711
_cell_angle_beta     105.358
_cell_angle_gamma    90

_space_group_name_H-M_alt    "P 1"
_space_group_IT_number       1

loop_
  _space_group_symop_operation_xyz
  'x, y, z'

loop_
  _atom_site_type_symbol
  _atom_site_label
  _atom_site_symmetry_multiplicity
  _atom_site_fract_x
  _atom_site_fract_y
  _atom_site_fract_z
  _atom_site_occupancy
  Ce  Ce1       1.0  0.20300  0.67300  0.13600  1.0000
  Ce  Ce2       1.0  0.93300  0.17300  0.13600  1.0000
  Ce  Ce3       1.0  0.55200  0.40300  0.33800  1.0000
  Ce  Ce4       1.0  0.78600  0.90300  0.33800  1.0000
  Ce  Ce5       1.0  0.21400  0.09680  0.66200  1.0000
  Ce  Ce6       1.0  0.44800  0.59700  0.66200  1.0000
  Ce  Ce7       1.0  0.06650  0.82700  0.86400  1.0000
  Ce  Ce8       1.0  0.79700  0.32700  0.86400  1.0000
  Rh  Rh1       1.0  0.69700  0.52300  0.12200  1.0000
  Rh  Rh2       1.0  0.42500  0.02310  0.12200  1.0000
  Rh  Rh3       1.0  0.07680  0.31800  0.44100  1.0000
  Rh  Rh4       1.0  0.36400  0.81800  0.44100  1.0000
  Rh  Rh5       1.0  0.63600  0.18200  0.55900  1.0000
  Rh  Rh6       1.0  0.92300  0.68200  0.55900  1.0000
  Rh  Rh7       1.0  0.30300  0.47700  0.87800  1.0000
  Rh  Rh8       1.0  0.57500  0.97700  0.87800  1.0000
  Si  Si1       1.0  0.38100  0.25000  0.00000  1.0000
  Si  Si2       1.0  0.61900  0.75000  0.00000  1.0000
  Si  Si3       1.0  0.30100  0.06690  0.35300  1.0000
  Si  Si4       1.0  0.05200  0.56700  0.35300  1.0000
  Si  Si5       1.0  0.69900  0.93300  0.64700  1.0000
  Si  Si6       1.0  0.94800  0.43300  0.64700  1.0000
