data_image0
_chemical_formula_structural       Mn8Nb4Si10
_chemical_formula_sum              "Mn8 Nb4 Si10"
_cell_length_a       5.15905
_cell_length_b       7.27866
_cell_length_c       9.4084
_cell_angle_alpha    112.757
_cell_angle_beta     105.913
_cell_angle_gamma    90

_space_group_name_H-M_alt    "P 1"
_space_group_IT_number       1

loop_
  _space_group_symop_operation_xyz
  'x, y, z'

loop_
  _atom_site_type_symbol
  _atom_site_label
  _atom_site_symmetry_multiplicity
  _atom_site_fract_x
  _atom_site_fract_y
  _atom_site_fract_z
  _atom_site_occupancy
  Mn  Mn1       1.0  0.06320  0.31400  0.12600  1.0000
  Mn  Mn2       1.0  0.56300  0.81300  0.12600  1.0000
  Mn  Mn3       1.0  0.64600  0.26800  0.29200  1.0000
  Mn  Mn4       1.0  0.14600  0.02460  0.29200  1.0000
  Mn  Mn5       1.0  0.85400  0.97500  0.70800  1.0000
  Mn  Mn6       1.0  0.35400  0.73200  0.70800  1.0000
  Mn  Mn7       1.0  0.43700  0.18700  0.87400  1.0000
  Mn  Mn8       1.0  0.93700  0.68600  0.87400  1.0000
  Nb  Nb1       1.0  0.93800  0.68800  0.37500  1.0000
  Nb  Nb2       1.0  0.43800  0.68800  0.37500  1.0000
  Nb  Nb3       1.0  0.56200  0.31200  0.62500  1.0000
  Nb  Nb4       1.0  0.06230  0.31200  0.62500  1.0000
  Si  Si1       1.0  0.25000  0.00000  0.00000  1.0000
  Si  Si2       1.0  0.75000  0.00000  0.00000  1.0000
  Si  Si3       1.0  0.55900  0.46100  0.11800  1.0000
  Si  Si4       1.0  0.05880  0.65600  0.11800  1.0000
  Si  Si5       1.0  0.70400  0.01450  0.40700  1.0000
  Si  Si6       1.0  0.20400  0.39300  0.40700  1.0000
  Si  Si7       1.0  0.79600  0.60700  0.59300  1.0000
  Si  Si8       1.0  0.29600  0.98600  0.59300  1.0000
  Si  Si9       1.0  0.94100  0.34400  0.88200  1.0000
  Si  Si10      1.0  0.44100  0.53900  0.88200  1.0000
