data_image0
_chemical_formula_structural       As6BiK3Se12
_chemical_formula_sum              "As6 Bi1 K3 Se12"
_cell_length_a       9.9095
_cell_length_b       9.90949
_cell_length_c       7.99769
_cell_angle_alpha    90.0013
_cell_angle_beta     90.0004
_cell_angle_gamma    120.001

_space_group_name_H-M_alt    "P 1"
_space_group_IT_number       1

loop_
  _space_group_symop_operation_xyz
  'x, y, z'

loop_
  _atom_site_type_symbol
  _atom_site_label
  _atom_site_symmetry_multiplicity
  _atom_site_fract_x
  _atom_site_fract_y
  _atom_site_fract_z
  _atom_site_occupancy
  As  As1       1.0  0.15900  0.45300  0.37000  1.0000
  As  As2       1.0  0.54700  0.70500  0.37000  1.0000
  As  As3       1.0  0.29500  0.84100  0.37000  1.0000
  As  As4       1.0  0.70500  0.15900  0.63000  1.0000
  As  As5       1.0  0.45300  0.29500  0.63000  1.0000
  As  As6       1.0  0.84100  0.54700  0.63000  1.0000
  Bi  Bi1       1.0  0.00000  0.00000  0.50000  1.0000
  K   K1        1.0  0.00000  0.00000  0.00000  1.0000
  K   K2        1.0  0.66700  0.33300  0.16000  1.0000
  K   K3        1.0  0.33300  0.66700  0.84000  1.0000
  Se  Se1       1.0  0.09380  0.62500  0.20100  1.0000
  Se  Se2       1.0  0.37500  0.46900  0.20100  1.0000
  Se  Se3       1.0  0.53100  0.90600  0.20100  1.0000
  Se  Se4       1.0  0.78700  0.72600  0.28600  1.0000
  Se  Se5       1.0  0.27400  0.06110  0.28600  1.0000
  Se  Se6       1.0  0.93900  0.21300  0.28600  1.0000
  Se  Se7       1.0  0.06110  0.78700  0.71400  1.0000
  Se  Se8       1.0  0.72600  0.93900  0.71400  1.0000
  Se  Se9       1.0  0.21300  0.27400  0.71400  1.0000
  Se  Se10      1.0  0.62500  0.53100  0.79900  1.0000
  Se  Se11      1.0  0.46900  0.09380  0.79900  1.0000
  Se  Se12      1.0  0.90600  0.37500  0.79900  1.0000
