data_image0
_chemical_formula_structural       Ag2Hg6O12Sb2
_chemical_formula_sum              "Ag2 Hg6 O12 Sb2"
_cell_length_a       6.96427
_cell_length_b       6.96427
_cell_length_c       6.96427
_cell_angle_alpha    92.388
_cell_angle_beta     92.388
_cell_angle_gamma    87.612

_space_group_name_H-M_alt    "P 1"
_space_group_IT_number       1

loop_
  _space_group_symop_operation_xyz
  'x, y, z'

loop_
  _atom_site_type_symbol
  _atom_site_label
  _atom_site_symmetry_multiplicity
  _atom_site_fract_x
  _atom_site_fract_y
  _atom_site_fract_z
  _atom_site_occupancy
  Ag  Ag1       1.0  0.75000  0.75000  0.25000  1.0000
  Ag  Ag2       1.0  0.25000  0.25000  0.75000  1.0000
  Hg  Hg1       1.0  0.58600  0.25000  0.08650  1.0000
  Hg  Hg2       1.0  0.08650  0.41400  0.25000  1.0000
  Hg  Hg3       1.0  0.25000  0.91400  0.41400  1.0000
  Hg  Hg4       1.0  0.75000  0.08650  0.58600  1.0000
  Hg  Hg5       1.0  0.91400  0.58600  0.75000  1.0000
  Hg  Hg6       1.0  0.41400  0.75000  0.91400  1.0000
  O   O1        1.0  0.01440  0.71000  0.00843  1.0000
  O   O2        1.0  0.29000  0.00843  0.01440  1.0000
  O   O3        1.0  0.48600  0.50800  0.21000  1.0000
  O   O4        1.0  0.99200  0.01440  0.29000  1.0000
  O   O5        1.0  0.49200  0.21000  0.48600  1.0000
  O   O6        1.0  0.79000  0.48600  0.49200  1.0000
  O   O7        1.0  0.21000  0.51400  0.50800  1.0000
  O   O8        1.0  0.50800  0.79000  0.51400  1.0000
  O   O9        1.0  0.00843  0.98600  0.71000  1.0000
  O   O10       1.0  0.51400  0.49200  0.79000  1.0000
  O   O11       1.0  0.71000  0.99200  0.98600  1.0000
  O   O12       1.0  0.98600  0.29000  0.99200  1.0000
  Sb  Sb1       1.0  0.00000  0.00000  0.00000  1.0000
  Sb  Sb2       1.0  0.50000  0.50000  0.50000  1.0000
