data_image0
_chemical_formula_structural       Ni4Sm6
_chemical_formula_sum              "Ni4 Sm6"
_cell_length_a       6.79123
_cell_length_b       6.79123
_cell_length_c       7.3384
_cell_angle_alpha    117.563
_cell_angle_beta     62.4373
_cell_angle_gamma    120

_space_group_name_H-M_alt    "P 1"
_space_group_IT_number       1

loop_
  _space_group_symop_operation_xyz
  'x, y, z'

loop_
  _atom_site_type_symbol
  _atom_site_label
  _atom_site_symmetry_multiplicity
  _atom_site_fract_x
  _atom_site_fract_y
  _atom_site_fract_z
  _atom_site_occupancy
  Ni  Ni1       1.0  0.31500  0.68500  0.05590  1.0000
  Ni  Ni2       1.0  0.18500  0.81500  0.44400  1.0000
  Ni  Ni3       1.0  0.81500  0.18500  0.55600  1.0000
  Ni  Ni4       1.0  0.68500  0.31500  0.94400  1.0000
  Sm  Sm1       1.0  0.25000  0.12700  0.25000  1.0000
  Sm  Sm2       1.0  0.62700  0.75000  0.25000  1.0000
  Sm  Sm3       1.0  0.87300  0.37300  0.25000  1.0000
  Sm  Sm4       1.0  0.12700  0.62700  0.75000  1.0000
  Sm  Sm5       1.0  0.37300  0.25000  0.75000  1.0000
  Sm  Sm6       1.0  0.75000  0.87300  0.75000  1.0000
