data_image0
_chemical_formula_structural       Fe4Os6
_chemical_formula_sum              "Fe4 Os6"
_cell_length_a       6.20704
_cell_length_b       6.20704
_cell_length_c       5.39298
_cell_angle_alpha    125.133
_cell_angle_beta     54.8672
_cell_angle_gamma    120

_space_group_name_H-M_alt    "P 1"
_space_group_IT_number       1

loop_
  _space_group_symop_operation_xyz
  'x, y, z'

loop_
  _atom_site_type_symbol
  _atom_site_label
  _atom_site_symmetry_multiplicity
  _atom_site_fract_x
  _atom_site_fract_y
  _atom_site_fract_z
  _atom_site_occupancy
  Fe  Fe1       1.0  0.59200  0.40800  0.22300  1.0000
  Fe  Fe2       1.0  0.90800  0.09220  0.27700  1.0000
  Fe  Fe3       1.0  0.09220  0.90800  0.72300  1.0000
  Fe  Fe4       1.0  0.40800  0.59200  0.77700  1.0000
  Os  Os1       1.0  0.50800  0.75000  0.25000  1.0000
  Os  Os2       1.0  0.99200  0.49200  0.25000  1.0000
  Os  Os3       1.0  0.25000  0.00821  0.25000  1.0000
  Os  Os4       1.0  0.00821  0.50800  0.75000  1.0000
  Os  Os5       1.0  0.49200  0.25000  0.75000  1.0000
  Os  Os6       1.0  0.75000  0.99200  0.75000  1.0000
