data_image0
_chemical_formula_structural       C10Cl4La8
_chemical_formula_sum              "C10 Cl4 La8"
_cell_length_a       3.94389
_cell_length_b       10.2115
_cell_length_c       11.4836
_cell_angle_alpha    95.6031
_cell_angle_beta     99.8877
_cell_angle_gamma    90

_space_group_name_H-M_alt    "P 1"
_space_group_IT_number       1

loop_
  _space_group_symop_operation_xyz
  'x, y, z'

loop_
  _atom_site_type_symbol
  _atom_site_label
  _atom_site_symmetry_multiplicity
  _atom_site_fract_x
  _atom_site_fract_y
  _atom_site_fract_z
  _atom_site_occupancy
  C   C1        1.0  0.52400  0.46500  0.04750  1.0000
  C   C2        1.0  0.14400  0.54700  0.28800  1.0000
  C   C3        1.0  0.19000  0.47600  0.37900  1.0000
  C   C4        1.0  0.70300  0.20300  0.40600  1.0000
  C   C5        1.0  0.74900  0.13200  0.49800  1.0000
  C   C6        1.0  0.25100  0.86800  0.50200  1.0000
  C   C7        1.0  0.29700  0.79700  0.59400  1.0000
  C   C8        1.0  0.81000  0.52400  0.62100  1.0000
  C   C9        1.0  0.85600  0.45300  0.71200  1.0000
  C   C10       1.0  0.47600  0.53500  0.95300  1.0000
  Cl  Cl1       1.0  0.05710  0.16400  0.11400  1.0000
  Cl  Cl2       1.0  0.60300  0.85000  0.20500  1.0000
  Cl  Cl3       1.0  0.39700  0.15000  0.79500  1.0000
  Cl  Cl4       1.0  0.94300  0.83600  0.88600  1.0000
  La  La1       1.0  0.04610  0.65000  0.09210  1.0000
  La  La2       1.0  0.61800  0.35300  0.23500  1.0000
  La  La3       1.0  0.17500  0.02440  0.35000  1.0000
  La  La4       1.0  0.72500  0.66600  0.45000  1.0000
  La  La5       1.0  0.27500  0.33400  0.55000  1.0000
  La  La6       1.0  0.82500  0.97600  0.65000  1.0000
  La  La7       1.0  0.38200  0.64700  0.76500  1.0000
  La  La8       1.0  0.95400  0.35000  0.90800  1.0000
