data_image0
_chemical_formula_structural       C8K4N8Pd2
_chemical_formula_sum              "C8 K4 N8 Pd2"
_cell_length_a       4.2456
_cell_length_b       7.83781
_cell_length_c       13.061
_cell_angle_alpha    90
_cell_angle_beta     94.0284
_cell_angle_gamma    90

_space_group_name_H-M_alt    "P 1"
_space_group_IT_number       1

loop_
  _space_group_symop_operation_xyz
  'x, y, z'

loop_
  _atom_site_type_symbol
  _atom_site_label
  _atom_site_symmetry_multiplicity
  _atom_site_fract_x
  _atom_site_fract_y
  _atom_site_fract_z
  _atom_site_occupancy
  C   C1        1.0  0.84500  0.21900  0.05490  1.0000
  C   C2        1.0  0.84700  0.87400  0.11800  1.0000
  C   C3        1.0  0.15300  0.37400  0.38200  1.0000
  C   C4        1.0  0.15500  0.71900  0.44500  1.0000
  C   C5        1.0  0.84500  0.28100  0.55500  1.0000
  C   C6        1.0  0.84700  0.62600  0.61800  1.0000
  C   C7        1.0  0.15300  0.12600  0.88200  1.0000
  C   C8        1.0  0.15500  0.78100  0.94500  1.0000
  K   K1        1.0  0.28600  0.55000  0.16000  1.0000
  K   K2        1.0  0.71400  0.04970  0.34000  1.0000
  K   K3        1.0  0.28600  0.95000  0.66000  1.0000
  K   K4        1.0  0.71400  0.45000  0.84000  1.0000
  N   N1        1.0  0.75600  0.35100  0.08430  1.0000
  N   N2        1.0  0.76200  0.79400  0.18700  1.0000
  N   N3        1.0  0.23800  0.29400  0.31300  1.0000
  N   N4        1.0  0.24400  0.85100  0.41600  1.0000
  N   N5        1.0  0.75600  0.14900  0.58400  1.0000
  N   N6        1.0  0.76200  0.70600  0.68700  1.0000
  N   N7        1.0  0.23800  0.20600  0.81300  1.0000
  N   N8        1.0  0.24400  0.64900  0.91600  1.0000
  Pd  Pd1       1.0  0.00000  0.00000  0.00000  1.0000
  Pd  Pd2       1.0  0.00000  0.50000  0.50000  1.0000
