data_image0
_chemical_formula_structural       B14Fe2Tb6
_chemical_formula_sum              "B14 Fe2 Tb6"
_cell_length_a       3.42904
_cell_length_b       8.06903
_cell_length_c       9.33469
_cell_angle_alpha    90
_cell_angle_beta     90
_cell_angle_gamma    77.7322

_space_group_name_H-M_alt    "P 1"
_space_group_IT_number       1

loop_
  _space_group_symop_operation_xyz
  'x, y, z'

loop_
  _atom_site_type_symbol
  _atom_site_label
  _atom_site_symmetry_multiplicity
  _atom_site_fract_x
  _atom_site_fract_y
  _atom_site_fract_z
  _atom_site_occupancy
  B   B1        1.0  0.27200  0.45500  0.03280  1.0000
  B   B2        1.0  0.47800  0.04470  0.09930  1.0000
  B   B3        1.0  0.37000  0.26000  0.15300  1.0000
  B   B4        1.0  0.53900  0.92200  0.25000  1.0000
  B   B5        1.0  0.37000  0.26000  0.34700  1.0000
  B   B6        1.0  0.47800  0.04470  0.40100  1.0000
  B   B7        1.0  0.27200  0.45500  0.46700  1.0000
  B   B8        1.0  0.72800  0.54500  0.53300  1.0000
  B   B9        1.0  0.52200  0.95500  0.59900  1.0000
  B   B10       1.0  0.63000  0.74000  0.65300  1.0000
  B   B11       1.0  0.46100  0.07760  0.75000  1.0000
  B   B12       1.0  0.63000  0.74000  0.84700  1.0000
  B   B13       1.0  0.52200  0.95500  0.90100  1.0000
  B   B14       1.0  0.72800  0.54500  0.96700  1.0000
  Fe  Fe1       1.0  0.94500  0.10900  0.25000  1.0000
  Fe  Fe2       1.0  0.05470  0.89100  0.75000  1.0000
  Tb  Tb1       1.0  0.10500  0.79100  0.06060  1.0000
  Tb  Tb2       1.0  0.75700  0.48600  0.25000  1.0000
  Tb  Tb3       1.0  0.10500  0.79100  0.43900  1.0000
  Tb  Tb4       1.0  0.89500  0.20900  0.56100  1.0000
  Tb  Tb5       1.0  0.24300  0.51400  0.75000  1.0000
  Tb  Tb6       1.0  0.89500  0.20900  0.93900  1.0000
