data_image0
_chemical_formula_structural       Br2In10S10
_chemical_formula_sum              "Br2 In10 S10"
_cell_length_a       3.99288
_cell_length_b       9.21586
_cell_length_c       15.0966
_cell_angle_alpha    90
_cell_angle_beta     90
_cell_angle_gamma    90

_space_group_name_H-M_alt    "P 1"
_space_group_IT_number       1

loop_
  _space_group_symop_operation_xyz
  'x, y, z'

loop_
  _atom_site_type_symbol
  _atom_site_label
  _atom_site_symmetry_multiplicity
  _atom_site_fract_x
  _atom_site_fract_y
  _atom_site_fract_z
  _atom_site_occupancy
  Br  Br1       1.0  0.00000  0.40200  0.45900  1.0000
  Br  Br2       1.0  0.50000  0.59800  0.95900  1.0000
  In  In1       1.0  0.00000  0.39400  0.02600  1.0000
  In  In2       1.0  0.50000  0.86000  0.10900  1.0000
  In  In3       1.0  0.50000  0.47900  0.25600  1.0000
  In  In4       1.0  0.50000  0.18500  0.30200  1.0000
  In  In5       1.0  0.00000  0.88700  0.40300  1.0000
  In  In6       1.0  0.50000  0.60600  0.52600  1.0000
  In  In7       1.0  0.00000  0.14000  0.60900  1.0000
  In  In8       1.0  0.00000  0.52100  0.75600  1.0000
  In  In9       1.0  0.00000  0.81500  0.80200  1.0000
  In  In10      1.0  0.50000  0.11300  0.90300  1.0000
  S   S1        1.0  0.50000  0.22900  0.06400  1.0000
  S   S2        1.0  0.00000  0.56600  0.16200  1.0000
  S   S3        1.0  0.00000  0.02820  0.25100  1.0000
  S   S4        1.0  0.50000  0.70100  0.36100  1.0000
  S   S5        1.0  0.50000  0.05990  0.45400  1.0000
  S   S6        1.0  0.00000  0.77100  0.56400  1.0000
  S   S7        1.0  0.50000  0.43400  0.66200  1.0000
  S   S8        1.0  0.50000  0.97200  0.75100  1.0000
  S   S9        1.0  0.00000  0.29900  0.86100  1.0000
  S   S10       1.0  0.00000  0.94000  0.95400  1.0000
