data_image0
_chemical_formula_structural       Nb4Ti6
_chemical_formula_sum              "Nb4 Ti6"
_cell_length_a       7.44218
_cell_length_b       7.44218
_cell_length_c       5.56708
_cell_angle_alpha    131.944
_cell_angle_beta     48.0556
_cell_angle_gamma    120

_space_group_name_H-M_alt    "P 1"
_space_group_IT_number       1

loop_
  _space_group_symop_operation_xyz
  'x, y, z'

loop_
  _atom_site_type_symbol
  _atom_site_label
  _atom_site_symmetry_multiplicity
  _atom_site_fract_x
  _atom_site_fract_y
  _atom_site_fract_z
  _atom_site_occupancy
  Nb  Nb1       1.0  0.62300  0.37700  0.13200  1.0000
  Nb  Nb2       1.0  0.87700  0.12300  0.36800  1.0000
  Nb  Nb3       1.0  0.12300  0.87700  0.63200  1.0000
  Nb  Nb4       1.0  0.37700  0.62300  0.86800  1.0000
  Ti  Ti1       1.0  0.57700  0.75000  0.25000  1.0000
  Ti  Ti2       1.0  0.92300  0.42300  0.25000  1.0000
  Ti  Ti3       1.0  0.25000  0.07720  0.25000  1.0000
  Ti  Ti4       1.0  0.75000  0.92300  0.75000  1.0000
  Ti  Ti5       1.0  0.07720  0.57700  0.75000  1.0000
  Ti  Ti6       1.0  0.42300  0.25000  0.75000  1.0000
