data_image0
_chemical_formula_structural       C8N8Ni2Tl4
_chemical_formula_sum              "C8 N8 Ni2 Tl4"
_cell_length_a       6.10039
_cell_length_b       7.19605
_cell_length_c       9.3402
_cell_angle_alpha    90
_cell_angle_beta     103.99
_cell_angle_gamma    90

_space_group_name_H-M_alt    "P 1"
_space_group_IT_number       1

loop_
  _space_group_symop_operation_xyz
  'x, y, z'

loop_
  _atom_site_type_symbol
  _atom_site_label
  _atom_site_symmetry_multiplicity
  _atom_site_fract_x
  _atom_site_fract_y
  _atom_site_fract_z
  _atom_site_occupancy
  C   C1        1.0  0.80200  0.34400  0.06020  1.0000
  C   C2        1.0  0.18200  0.50000  0.18900  1.0000
  C   C3        1.0  0.31800  0.00019  0.31100  1.0000
  C   C4        1.0  0.69800  0.84400  0.44000  1.0000
  C   C5        1.0  0.30200  0.15600  0.56000  1.0000
  C   C6        1.0  0.68200  0.00000  0.68900  1.0000
  C   C7        1.0  0.81800  0.50000  0.81100  1.0000
  C   C8        1.0  0.19800  0.65600  0.94000  1.0000
  N   N1        1.0  0.68300  0.23800  0.10100  1.0000
  N   N2        1.0  0.20100  0.00242  0.19100  1.0000
  N   N3        1.0  0.29900  0.50200  0.30900  1.0000
  N   N4        1.0  0.81700  0.73800  0.39900  1.0000
  N   N5        1.0  0.18300  0.26200  0.60100  1.0000
  N   N6        1.0  0.70100  0.49800  0.69100  1.0000
  N   N7        1.0  0.79900  0.99800  0.80900  1.0000
  N   N8        1.0  0.31700  0.76200  0.89900  1.0000
  Ni  Ni1       1.0  0.00000  0.50000  0.00000  1.0000
  Ni  Ni2       1.0  0.50000  0.00000  0.50000  1.0000
  Tl  Tl1       1.0  0.77400  0.84300  0.08230  1.0000
  Tl  Tl2       1.0  0.72600  0.34300  0.41800  1.0000
  Tl  Tl3       1.0  0.27400  0.65700  0.58200  1.0000
  Tl  Tl4       1.0  0.22600  0.15700  0.91800  1.0000
