data_image0
_chemical_formula_structural       Cl8F12Ir2
_chemical_formula_sum              "Cl8 F12 Ir2"
_cell_length_a       4.94882
_cell_length_b       10.189
_cell_length_c       7.06177
_cell_angle_alpha    90
_cell_angle_beta     94.4037
_cell_angle_gamma    90

_space_group_name_H-M_alt    "P 1"
_space_group_IT_number       1

loop_
  _space_group_symop_operation_xyz
  'x, y, z'

loop_
  _atom_site_type_symbol
  _atom_site_label
  _atom_site_symmetry_multiplicity
  _atom_site_fract_x
  _atom_site_fract_y
  _atom_site_fract_z
  _atom_site_occupancy
  Cl  Cl1       1.0  0.73500  0.13700  0.03720  1.0000
  Cl  Cl2       1.0  0.95900  0.84900  0.12200  1.0000
  Cl  Cl3       1.0  0.04060  0.34900  0.37800  1.0000
  Cl  Cl4       1.0  0.26500  0.63700  0.46300  1.0000
  Cl  Cl5       1.0  0.73500  0.36300  0.53700  1.0000
  Cl  Cl6       1.0  0.95900  0.65100  0.62200  1.0000
  Cl  Cl7       1.0  0.04060  0.15100  0.87800  1.0000
  Cl  Cl8       1.0  0.26500  0.86300  0.96300  1.0000
  F   F1        1.0  0.17500  0.58800  0.03940  1.0000
  F   F2        1.0  0.39500  0.35200  0.14300  1.0000
  F   F3        1.0  0.65600  0.58100  0.22500  1.0000
  F   F4        1.0  0.34400  0.08140  0.27500  1.0000
  F   F5        1.0  0.60500  0.85200  0.35700  1.0000
  F   F6        1.0  0.82500  0.08840  0.46100  1.0000
  F   F7        1.0  0.17500  0.91200  0.53900  1.0000
  F   F8        1.0  0.39500  0.14800  0.64300  1.0000
  F   F9        1.0  0.65600  0.91900  0.72500  1.0000
  F   F10       1.0  0.34400  0.41900  0.77500  1.0000
  F   F11       1.0  0.60500  0.64800  0.85700  1.0000
  F   F12       1.0  0.82500  0.41200  0.96100  1.0000
  Ir  Ir1       1.0  0.50000  0.50000  0.00000  1.0000
  Ir  Ir2       1.0  0.50000  0.00000  0.50000  1.0000
