data_image0
_chemical_formula_structural       Ni4Tm6
_chemical_formula_sum              "Ni4 Tm6"
_cell_length_a       6.58798
_cell_length_b       6.58798
_cell_length_c       7.1011
_cell_angle_alpha    117.637
_cell_angle_beta     62.3629
_cell_angle_gamma    120

_space_group_name_H-M_alt    "P 1"
_space_group_IT_number       1

loop_
  _space_group_symop_operation_xyz
  'x, y, z'

loop_
  _atom_site_type_symbol
  _atom_site_label
  _atom_site_symmetry_multiplicity
  _atom_site_fract_x
  _atom_site_fract_y
  _atom_site_fract_z
  _atom_site_occupancy
  Ni  Ni1       1.0  0.31700  0.68300  0.04970  1.0000
  Ni  Ni2       1.0  0.18300  0.81700  0.45000  1.0000
  Ni  Ni3       1.0  0.81700  0.18300  0.55000  1.0000
  Ni  Ni4       1.0  0.68300  0.31700  0.95000  1.0000
  Tm  Tm1       1.0  0.62500  0.75000  0.25000  1.0000
  Tm  Tm2       1.0  0.87500  0.37500  0.25000  1.0000
  Tm  Tm3       1.0  0.25000  0.12500  0.25000  1.0000
  Tm  Tm4       1.0  0.75000  0.87500  0.75000  1.0000
  Tm  Tm5       1.0  0.12500  0.62500  0.75000  1.0000
  Tm  Tm6       1.0  0.37500  0.25000  0.75000  1.0000
