data_image0
_chemical_formula_structural       As4Cl4In4O10
_chemical_formula_sum              "As4 Cl4 In4 O10"
_cell_length_a       6.73303
_cell_length_b       7.47355
_cell_length_c       8.88511
_cell_angle_alpha    109.144
_cell_angle_beta     104.975
_cell_angle_gamma    101.93

_space_group_name_H-M_alt    "P 1"
_space_group_IT_number       1

loop_
  _space_group_symop_operation_xyz
  'x, y, z'

loop_
  _atom_site_type_symbol
  _atom_site_label
  _atom_site_symmetry_multiplicity
  _atom_site_fract_x
  _atom_site_fract_y
  _atom_site_fract_z
  _atom_site_occupancy
  As  As1       1.0  0.29300  0.76100  0.19000  1.0000
  As  As2       1.0  0.10000  0.15200  0.23700  1.0000
  As  As3       1.0  0.90000  0.84800  0.76300  1.0000
  As  As4       1.0  0.70700  0.23900  0.81000  1.0000
  Cl  Cl1       1.0  0.75000  0.70500  0.03000  1.0000
  Cl  Cl2       1.0  0.76000  0.38000  0.26900  1.0000
  Cl  Cl3       1.0  0.24000  0.62000  0.73100  1.0000
  Cl  Cl4       1.0  0.25000  0.29500  0.97000  1.0000
  In  In1       1.0  0.85000  0.77000  0.33500  1.0000
  In  In2       1.0  0.59700  0.29900  0.47100  1.0000
  In  In3       1.0  0.40300  0.70100  0.52900  1.0000
  In  In4       1.0  0.15000  0.23000  0.66500  1.0000
  O   O1        1.0  0.33300  0.03530  0.25600  1.0000
  O   O2        1.0  0.15900  0.72400  0.33700  1.0000
  O   O3        1.0  0.54200  0.78900  0.34800  1.0000
  O   O4        1.0  0.30900  0.38000  0.38300  1.0000
  O   O5        1.0  0.00192  0.09150  0.39100  1.0000
  O   O6        1.0  0.99800  0.90800  0.60900  1.0000
  O   O7        1.0  0.69100  0.62000  0.61700  1.0000
  O   O8        1.0  0.45800  0.21100  0.65200  1.0000
  O   O9        1.0  0.84100  0.27600  0.66300  1.0000
  O   O10       1.0  0.66700  0.96500  0.74400  1.0000
