data_image0
_chemical_formula_structural       Sc4Ti6
_chemical_formula_sum              "Sc4 Ti6"
_cell_length_a       6.74305
_cell_length_b       6.74305
_cell_length_c       6.46601
_cell_angle_alpha    121.428
_cell_angle_beta     58.5723
_cell_angle_gamma    120

_space_group_name_H-M_alt    "P 1"
_space_group_IT_number       1

loop_
  _space_group_symop_operation_xyz
  'x, y, z'

loop_
  _atom_site_type_symbol
  _atom_site_label
  _atom_site_symmetry_multiplicity
  _atom_site_fract_x
  _atom_site_fract_y
  _atom_site_fract_z
  _atom_site_occupancy
  Sc  Sc1       1.0  0.59100  0.40900  0.22800  1.0000
  Sc  Sc2       1.0  0.90900  0.09070  0.27200  1.0000
  Sc  Sc3       1.0  0.09070  0.90900  0.72800  1.0000
  Sc  Sc4       1.0  0.40900  0.59100  0.77200  1.0000
  Ti  Ti1       1.0  0.03410  0.53400  0.25000  1.0000
  Ti  Ti2       1.0  0.46600  0.75000  0.25000  1.0000
  Ti  Ti3       1.0  0.25000  0.96600  0.25000  1.0000
  Ti  Ti4       1.0  0.96600  0.46600  0.75000  1.0000
  Ti  Ti5       1.0  0.53400  0.25000  0.75000  1.0000
  Ti  Ti6       1.0  0.75000  0.03410  0.75000  1.0000
