data_image0
_chemical_formula_structural       O14P4Sn4
_chemical_formula_sum              "O14 P4 Sn4"
_cell_length_a       6.94613
_cell_length_b       9.52722
_cell_length_c       5.15345
_cell_angle_alpha    90
_cell_angle_beta     107.588
_cell_angle_gamma    90

_space_group_name_H-M_alt    "P 1"
_space_group_IT_number       1

loop_
  _space_group_symop_operation_xyz
  'x, y, z'

loop_
  _atom_site_type_symbol
  _atom_site_label
  _atom_site_symmetry_multiplicity
  _atom_site_fract_x
  _atom_site_fract_y
  _atom_site_fract_z
  _atom_site_occupancy
  O   O1        1.0  0.00000  0.00000  0.00000  1.0000
  O   O2        1.0  0.17800  0.76700  0.07750  1.0000
  O   O3        1.0  0.19400  0.45900  0.09720  1.0000
  O   O4        1.0  0.53300  0.34700  0.11900  1.0000
  O   O5        1.0  0.96700  0.84700  0.38100  1.0000
  O   O6        1.0  0.30600  0.95900  0.40300  1.0000
  O   O7        1.0  0.32200  0.26700  0.42300  1.0000
  O   O8        1.0  0.50000  0.50000  0.50000  1.0000
  O   O9        1.0  0.67800  0.73300  0.57700  1.0000
  O   O10       1.0  0.69400  0.04130  0.59700  1.0000
  O   O11       1.0  0.03280  0.15300  0.61900  1.0000
  O   O12       1.0  0.46700  0.65300  0.88100  1.0000
  O   O13       1.0  0.80600  0.54100  0.90300  1.0000
  O   O14       1.0  0.82200  0.23300  0.92300  1.0000
  P   P1        1.0  0.11200  0.88800  0.22400  1.0000
  P   P2        1.0  0.38800  0.38800  0.27600  1.0000
  P   P3        1.0  0.61200  0.61200  0.72400  1.0000
  P   P4        1.0  0.88800  0.11200  0.77600  1.0000
  Sn  Sn1       1.0  0.87100  0.38500  0.23600  1.0000
  Sn  Sn2       1.0  0.62900  0.88500  0.26400  1.0000
  Sn  Sn3       1.0  0.37100  0.11500  0.73600  1.0000
  Sn  Sn4       1.0  0.12900  0.61500  0.76400  1.0000
