data_image0
_chemical_formula_structural       Cl2In10Se10
_chemical_formula_sum              "Cl2 In10 Se10"
_cell_length_a       9.36549
_cell_length_b       4.16901
_cell_length_c       15.6432
_cell_angle_alpha    90
_cell_angle_beta     92.9793
_cell_angle_gamma    90

_space_group_name_H-M_alt    "P 1"
_space_group_IT_number       1

loop_
  _space_group_symop_operation_xyz
  'x, y, z'

loop_
  _atom_site_type_symbol
  _atom_site_label
  _atom_site_symmetry_multiplicity
  _atom_site_fract_x
  _atom_site_fract_y
  _atom_site_fract_z
  _atom_site_occupancy
  Cl  Cl1       1.0  0.32800  0.25000  0.00194  1.0000
  Cl  Cl2       1.0  0.67200  0.75000  0.99800  1.0000
  In  In1       1.0  0.13000  0.75000  0.06360  1.0000
  In  In2       1.0  0.60800  0.25000  0.14200  1.0000
  In  In3       1.0  0.23200  0.25000  0.29200  1.0000
  In  In4       1.0  0.95100  0.25000  0.34800  1.0000
  In  In5       1.0  0.66100  0.75000  0.44600  1.0000
  In  In6       1.0  0.33900  0.25000  0.55400  1.0000
  In  In7       1.0  0.04900  0.75000  0.65200  1.0000
  In  In8       1.0  0.76800  0.75000  0.70800  1.0000
  In  In9       1.0  0.39200  0.75000  0.85800  1.0000
  In  In10      1.0  0.87000  0.25000  0.93600  1.0000
  Se  Se1       1.0  0.95800  0.25000  0.10300  1.0000
  Se  Se2       1.0  0.32000  0.75000  0.19600  1.0000
  Se  Se3       1.0  0.78800  0.75000  0.28900  1.0000
  Se  Se4       1.0  0.46700  0.25000  0.39800  1.0000
  Se  Se5       1.0  0.16300  0.75000  0.49900  1.0000
  Se  Se6       1.0  0.83700  0.25000  0.50100  1.0000
  Se  Se7       1.0  0.53300  0.75000  0.60200  1.0000
  Se  Se8       1.0  0.21200  0.25000  0.71100  1.0000
  Se  Se9       1.0  0.68000  0.25000  0.80400  1.0000
  Se  Se10      1.0  0.04170  0.75000  0.89700  1.0000
