data_image0
_chemical_formula_structural       Au6P14Sn2
_chemical_formula_sum              "Au6 P14 Sn2"
_cell_length_a       6.38538
_cell_length_b       11.1229
_cell_length_c       6.51746
_cell_angle_alpha    90
_cell_angle_beta     108.802
_cell_angle_gamma    90

_space_group_name_H-M_alt    "P 1"
_space_group_IT_number       1

loop_
  _space_group_symop_operation_xyz
  'x, y, z'

loop_
  _atom_site_type_symbol
  _atom_site_label
  _atom_site_symmetry_multiplicity
  _atom_site_fract_x
  _atom_site_fract_y
  _atom_site_fract_z
  _atom_site_occupancy
  Au  Au1       1.0  0.68400  0.59900  0.31300  1.0000
  Au  Au2       1.0  0.68400  0.90100  0.31300  1.0000
  Au  Au3       1.0  0.07260  0.75000  0.31900  1.0000
  Au  Au4       1.0  0.92700  0.25000  0.68100  1.0000
  Au  Au5       1.0  0.31600  0.09870  0.68700  1.0000
  Au  Au6       1.0  0.31600  0.40100  0.68700  1.0000
  P   P1        1.0  0.83500  0.07840  0.16500  1.0000
  P   P2        1.0  0.83500  0.42200  0.16500  1.0000
  P   P3        1.0  0.28000  0.59200  0.19500  1.0000
  P   P4        1.0  0.28000  0.90800  0.19500  1.0000
  P   P5        1.0  0.73800  0.25000  0.28400  1.0000
  P   P6        1.0  0.20000  0.08860  0.29000  1.0000
  P   P7        1.0  0.20000  0.41100  0.29000  1.0000
  P   P8        1.0  0.80000  0.58900  0.71000  1.0000
  P   P9        1.0  0.80000  0.91100  0.71000  1.0000
  P   P10       1.0  0.26200  0.75000  0.71600  1.0000
  P   P11       1.0  0.72000  0.09180  0.80500  1.0000
  P   P12       1.0  0.72000  0.40800  0.80500  1.0000
  P   P13       1.0  0.16500  0.57800  0.83500  1.0000
  P   P14       1.0  0.16500  0.92200  0.83500  1.0000
  Sn  Sn1       1.0  0.31200  0.25000  0.04110  1.0000
  Sn  Sn2       1.0  0.68800  0.75000  0.95900  1.0000
