data_image0
_chemical_formula_structural       As4Cd2Hg8I8
_chemical_formula_sum              "As4 Cd2 Hg8 I8"
_cell_length_a       8.20099
_cell_length_b       13.3674
_cell_length_c       8.29338
_cell_angle_alpha    90
_cell_angle_beta     116.79
_cell_angle_gamma    90

_space_group_name_H-M_alt    "P 1"
_space_group_IT_number       1

loop_
  _space_group_symop_operation_xyz
  'x, y, z'

loop_
  _atom_site_type_symbol
  _atom_site_label
  _atom_site_symmetry_multiplicity
  _atom_site_fract_x
  _atom_site_fract_y
  _atom_site_fract_z
  _atom_site_occupancy
  As  As1       1.0  0.69100  0.39700  0.28100  1.0000
  As  As2       1.0  0.65200  0.01950  0.37400  1.0000
  As  As3       1.0  0.34800  0.51900  0.62600  1.0000
  As  As4       1.0  0.30900  0.89700  0.71900  1.0000
  Cd  Cd1       1.0  0.00148  0.66500  0.00229  1.0000
  Cd  Cd2       1.0  0.99900  0.16500  0.99800  1.0000
  Hg  Hg1       1.0  0.48600  0.94500  0.05470  1.0000
  Hg  Hg2       1.0  0.67600  0.20900  0.33300  1.0000
  Hg  Hg3       1.0  0.02860  0.44800  0.42300  1.0000
  Hg  Hg4       1.0  0.52900  0.47800  0.45000  1.0000
  Hg  Hg5       1.0  0.47100  0.97800  0.55000  1.0000
  Hg  Hg6       1.0  0.97100  0.94800  0.57700  1.0000
  Hg  Hg7       1.0  0.32400  0.70900  0.66700  1.0000
  Hg  Hg8       1.0  0.51400  0.44500  0.94500  1.0000
  I   I1        1.0  0.11600  0.46000  0.06820  1.0000
  I   I2        1.0  0.70500  0.68700  0.08340  1.0000
  I   I3        1.0  0.32200  0.76200  0.25600  1.0000
  I   I4        1.0  0.11300  0.19200  0.37100  1.0000
  I   I5        1.0  0.88700  0.69200  0.62900  1.0000
  I   I6        1.0  0.67800  0.26200  0.74400  1.0000
  I   I7        1.0  0.29500  0.18700  0.91700  1.0000
  I   I8        1.0  0.88400  0.96000  0.93200  1.0000
