data_image0
_chemical_formula_structural       Ag6F16
_chemical_formula_sum              "Ag6 F16"
_cell_length_a       4.71312
_cell_length_b       10.8417
_cell_length_c       5.32764
_cell_angle_alpha    90
_cell_angle_beta     97.0027
_cell_angle_gamma    90

_space_group_name_H-M_alt    "P 1"
_space_group_IT_number       1

loop_
  _space_group_symop_operation_xyz
  'x, y, z'

loop_
  _atom_site_type_symbol
  _atom_site_label
  _atom_site_symmetry_multiplicity
  _atom_site_fract_x
  _atom_site_fract_y
  _atom_site_fract_z
  _atom_site_occupancy
  Ag  Ag1       1.0  0.50000  0.00000  0.00000  1.0000
  Ag  Ag2       1.0  0.28900  0.68500  0.03420  1.0000
  Ag  Ag3       1.0  0.21100  0.18500  0.46600  1.0000
  Ag  Ag4       1.0  0.00000  0.50000  0.50000  1.0000
  Ag  Ag5       1.0  0.78900  0.81500  0.53400  1.0000
  Ag  Ag6       1.0  0.71100  0.31500  0.96600  1.0000
  F   F1        1.0  0.17700  0.09240  0.14100  1.0000
  F   F2        1.0  0.73900  0.47600  0.14800  1.0000
  F   F3        1.0  0.29500  0.84000  0.22600  1.0000
  F   F4        1.0  0.79800  0.71500  0.22600  1.0000
  F   F5        1.0  0.70200  0.21500  0.27400  1.0000
  F   F6        1.0  0.20500  0.34000  0.27400  1.0000
  F   F7        1.0  0.76100  0.97600  0.35200  1.0000
  F   F8        1.0  0.32300  0.59200  0.35900  1.0000
  F   F9        1.0  0.67700  0.40800  0.64100  1.0000
  F   F10       1.0  0.23900  0.02420  0.64800  1.0000
  F   F11       1.0  0.79500  0.66000  0.72600  1.0000
  F   F12       1.0  0.29800  0.78500  0.72600  1.0000
  F   F13       1.0  0.20200  0.28500  0.77400  1.0000
  F   F14       1.0  0.70500  0.16000  0.77400  1.0000
  F   F15       1.0  0.26100  0.52400  0.85200  1.0000
  F   F16       1.0  0.82300  0.90800  0.85900  1.0000
