data_image0
_chemical_formula_structural       C3Gd2Mn17
_chemical_formula_sum              "C3 Gd2 Mn17"
_cell_length_a       6.44555
_cell_length_b       6.44555
_cell_length_c       6.44555
_cell_angle_alpha    83.3318
_cell_angle_beta     96.6682
_cell_angle_gamma    96.6682

_space_group_name_H-M_alt    "P 1"
_space_group_IT_number       1

loop_
  _space_group_symop_operation_xyz
  'x, y, z'

loop_
  _atom_site_type_symbol
  _atom_site_label
  _atom_site_symmetry_multiplicity
  _atom_site_fract_x
  _atom_site_fract_y
  _atom_site_fract_z
  _atom_site_occupancy
  C   C1        1.0  0.50000  0.50000  0.00000  1.0000
  C   C2        1.0  0.00000  0.50000  0.50000  1.0000
  C   C3        1.0  0.50000  0.00000  0.50000  1.0000
  Gd  Gd1       1.0  0.65000  0.35000  0.35000  1.0000
  Gd  Gd2       1.0  0.35000  0.65000  0.65000  1.0000
  Mn  Mn1       1.0  0.50000  0.00000  0.00000  1.0000
  Mn  Mn2       1.0  0.27900  0.27900  0.00000  1.0000
  Mn  Mn3       1.0  0.00000  0.50000  0.00000  1.0000
  Mn  Mn4       1.0  0.72100  0.72100  0.00000  1.0000
  Mn  Mn5       1.0  0.90600  0.09430  0.09430  1.0000
  Mn  Mn6       1.0  0.33800  0.66200  0.13500  1.0000
  Mn  Mn7       1.0  0.27900  0.00000  0.27900  1.0000
  Mn  Mn8       1.0  0.00000  0.72100  0.27900  1.0000
  Mn  Mn9       1.0  0.13500  0.33800  0.33800  1.0000
  Mn  Mn10      1.0  0.66200  0.86500  0.33800  1.0000
  Mn  Mn11      1.0  0.00000  0.00000  0.50000  1.0000
  Mn  Mn12      1.0  0.86500  0.66200  0.66200  1.0000
  Mn  Mn13      1.0  0.33800  0.13500  0.66200  1.0000
  Mn  Mn14      1.0  0.00000  0.27900  0.72100  1.0000
  Mn  Mn15      1.0  0.72100  0.00000  0.72100  1.0000
  Mn  Mn16      1.0  0.66200  0.33800  0.86500  1.0000
  Mn  Mn17      1.0  0.09430  0.90600  0.90600  1.0000
