data_image0
_chemical_formula_structural       Ba8I12O2
_chemical_formula_sum              "Ba8 I12 O2"
_cell_length_a       11.0256
_cell_length_b       11.0254
_cell_length_c       8.58382
_cell_angle_alpha    90
_cell_angle_beta     90
_cell_angle_gamma    120.001

_space_group_name_H-M_alt    "P 1"
_space_group_IT_number       1

loop_
  _space_group_symop_operation_xyz
  'x, y, z'

loop_
  _atom_site_type_symbol
  _atom_site_label
  _atom_site_symmetry_multiplicity
  _atom_site_fract_x
  _atom_site_fract_y
  _atom_site_fract_z
  _atom_site_occupancy
  Ba  Ba1       1.0  0.33300  0.66700  0.02410  1.0000
  Ba  Ba2       1.0  0.79600  0.59200  0.13000  1.0000
  Ba  Ba3       1.0  0.40800  0.20400  0.13000  1.0000
  Ba  Ba4       1.0  0.79600  0.20400  0.13000  1.0000
  Ba  Ba5       1.0  0.66700  0.33300  0.52400  1.0000
  Ba  Ba6       1.0  0.20400  0.40800  0.63000  1.0000
  Ba  Ba7       1.0  0.20400  0.79600  0.63000  1.0000
  Ba  Ba8       1.0  0.59200  0.79600  0.63000  1.0000
  I   I1        1.0  0.13800  0.86200  0.01150  1.0000
  I   I2        1.0  0.72300  0.86200  0.01150  1.0000
  I   I3        1.0  0.13800  0.27700  0.01150  1.0000
  I   I4        1.0  0.46700  0.93400  0.32700  1.0000
  I   I5        1.0  0.06560  0.53300  0.32700  1.0000
  I   I6        1.0  0.46700  0.53300  0.32700  1.0000
  I   I7        1.0  0.27700  0.13800  0.51200  1.0000
  I   I8        1.0  0.86200  0.13800  0.51200  1.0000
  I   I9        1.0  0.86200  0.72300  0.51200  1.0000
  I   I10       1.0  0.53300  0.06560  0.82700  1.0000
  I   I11       1.0  0.53300  0.46700  0.82700  1.0000
  I   I12       1.0  0.93400  0.46700  0.82700  1.0000
  O   O1        1.0  0.66700  0.33300  0.22400  1.0000
  O   O2        1.0  0.33300  0.66700  0.72400  1.0000
