data_image0
_chemical_formula_structural       Au8K2Sn12
_chemical_formula_sum              "Au8 K2 Sn12"
_cell_length_a       6.80858
_cell_length_b       6.80858
_cell_length_c       13.1403
_cell_angle_alpha    102.899
_cell_angle_beta     102.899
_cell_angle_gamma    97.9503

_space_group_name_H-M_alt    "P 1"
_space_group_IT_number       1

loop_
  _space_group_symop_operation_xyz
  'x, y, z'

loop_
  _atom_site_type_symbol
  _atom_site_label
  _atom_site_symmetry_multiplicity
  _atom_site_fract_x
  _atom_site_fract_y
  _atom_site_fract_z
  _atom_site_occupancy
  Au  Au1       1.0  0.06250  0.81300  0.12500  1.0000
  Au  Au2       1.0  0.56800  0.31800  0.13500  1.0000
  Au  Au3       1.0  0.18200  0.93200  0.36500  1.0000
  Au  Au4       1.0  0.68700  0.43700  0.37500  1.0000
  Au  Au5       1.0  0.31300  0.56300  0.62500  1.0000
  Au  Au6       1.0  0.81800  0.06750  0.63500  1.0000
  Au  Au7       1.0  0.43200  0.68200  0.86500  1.0000
  Au  Au8       1.0  0.93700  0.18700  0.87500  1.0000
  K   K1        1.0  0.62500  0.87500  0.25000  1.0000
  K   K2        1.0  0.37500  0.12500  0.75000  1.0000
  Sn  Sn1       1.0  0.75700  0.01040  0.01820  1.0000
  Sn  Sn2       1.0  0.26100  0.50800  0.01820  1.0000
  Sn  Sn3       1.0  0.27100  0.22900  0.25000  1.0000
  Sn  Sn4       1.0  0.97900  0.52100  0.25000  1.0000
  Sn  Sn5       1.0  0.99200  0.23900  0.48200  1.0000
  Sn  Sn6       1.0  0.49000  0.74300  0.48200  1.0000
  Sn  Sn7       1.0  0.51000  0.25700  0.51800  1.0000
  Sn  Sn8       1.0  0.00787  0.76100  0.51800  1.0000
  Sn  Sn9       1.0  0.02070  0.47900  0.75000  1.0000
  Sn  Sn10      1.0  0.72900  0.77100  0.75000  1.0000
  Sn  Sn11      1.0  0.73900  0.49200  0.98200  1.0000
  Sn  Sn12      1.0  0.24300  0.99000  0.98200  1.0000
