data_image0
_chemical_formula_structural       Pu4Ti6
_chemical_formula_sum              "Pu4 Ti6"
_cell_length_a       6.89011
_cell_length_b       6.89012
_cell_length_c       6.1116
_cell_angle_alpha    124.311
_cell_angle_beta     55.6885
_cell_angle_gamma    120

_space_group_name_H-M_alt    "P 1"
_space_group_IT_number       1

loop_
  _space_group_symop_operation_xyz
  'x, y, z'

loop_
  _atom_site_type_symbol
  _atom_site_label
  _atom_site_symmetry_multiplicity
  _atom_site_fract_x
  _atom_site_fract_y
  _atom_site_fract_z
  _atom_site_occupancy
  Pu  Pu1       1.0  0.58800  0.41200  0.23700  1.0000
  Pu  Pu2       1.0  0.91200  0.08770  0.26300  1.0000
  Pu  Pu3       1.0  0.08770  0.91200  0.73700  1.0000
  Pu  Pu4       1.0  0.41200  0.58800  0.76300  1.0000
  Ti  Ti1       1.0  0.51000  0.75000  0.25000  1.0000
  Ti  Ti2       1.0  0.99000  0.49000  0.25000  1.0000
  Ti  Ti3       1.0  0.25000  0.00960  0.25000  1.0000
  Ti  Ti4       1.0  0.75000  0.99000  0.75000  1.0000
  Ti  Ti5       1.0  0.00960  0.51000  0.75000  1.0000
  Ti  Ti6       1.0  0.49000  0.25000  0.75000  1.0000
