data_image0
_chemical_formula_structural       Pr4Ti6
_chemical_formula_sum              "Pr4 Ti6"
_cell_length_a       7.18564
_cell_length_b       7.18564
_cell_length_c       7.07218
_cell_angle_alpha    120.532
_cell_angle_beta     59.4678
_cell_angle_gamma    120

_space_group_name_H-M_alt    "P 1"
_space_group_IT_number       1

loop_
  _space_group_symop_operation_xyz
  'x, y, z'

loop_
  _atom_site_type_symbol
  _atom_site_label
  _atom_site_symmetry_multiplicity
  _atom_site_fract_x
  _atom_site_fract_y
  _atom_site_fract_z
  _atom_site_occupancy
  Pr  Pr1       1.0  0.58800  0.41200  0.23600  1.0000
  Pr  Pr2       1.0  0.91200  0.08800  0.26400  1.0000
  Pr  Pr3       1.0  0.08800  0.91200  0.73600  1.0000
  Pr  Pr4       1.0  0.41200  0.58800  0.76400  1.0000
  Ti  Ti1       1.0  0.04770  0.54800  0.25000  1.0000
  Ti  Ti2       1.0  0.45200  0.75000  0.25000  1.0000
  Ti  Ti3       1.0  0.25000  0.95200  0.25000  1.0000
  Ti  Ti4       1.0  0.75000  0.04770  0.75000  1.0000
  Ti  Ti5       1.0  0.54800  0.25000  0.75000  1.0000
  Ti  Ti6       1.0  0.95200  0.45200  0.75000  1.0000
