data_image0
_chemical_formula_structural       Ba5Hf4S13
_chemical_formula_sum              "Ba5 Hf4 S13"
_cell_length_a       4.99992
_cell_length_b       4.99992
_cell_length_c       23.0681
_cell_angle_alpha    96.2196
_cell_angle_beta     96.2196
_cell_angle_gamma    90.0175

_space_group_name_H-M_alt    "P 1"
_space_group_IT_number       1

loop_
  _space_group_symop_operation_xyz
  'x, y, z'

loop_
  _atom_site_type_symbol
  _atom_site_label
  _atom_site_symmetry_multiplicity
  _atom_site_fract_x
  _atom_site_fract_y
  _atom_site_fract_z
  _atom_site_occupancy
  Ba  Ba1       1.0  0.50000  0.50000  0.00000  1.0000
  Ba  Ba2       1.0  0.60700  0.60700  0.21400  1.0000
  Ba  Ba3       1.0  0.71100  0.71100  0.42200  1.0000
  Ba  Ba4       1.0  0.28900  0.28900  0.57800  1.0000
  Ba  Ba5       1.0  0.39300  0.39300  0.78600  1.0000
  Hf  Hf1       1.0  0.05530  0.05530  0.11100  1.0000
  Hf  Hf2       1.0  0.16600  0.16600  0.33300  1.0000
  Hf  Hf3       1.0  0.83400  0.83400  0.66700  1.0000
  Hf  Hf4       1.0  0.94500  0.94500  0.88900  1.0000
  S   S1        1.0  0.00000  0.00000  0.00000  1.0000
  S   S2        1.0  0.55500  0.05470  0.10900  1.0000
  S   S3        1.0  0.05470  0.55500  0.10900  1.0000
  S   S4        1.0  0.11000  0.11000  0.22000  1.0000
  S   S5        1.0  0.66300  0.16300  0.32700  1.0000
  S   S6        1.0  0.16300  0.66300  0.32700  1.0000
  S   S7        1.0  0.22100  0.22100  0.44200  1.0000
  S   S8        1.0  0.77900  0.77900  0.55800  1.0000
  S   S9        1.0  0.83700  0.33700  0.67300  1.0000
  S   S10       1.0  0.33700  0.83700  0.67300  1.0000
  S   S11       1.0  0.89000  0.89000  0.78000  1.0000
  S   S12       1.0  0.94500  0.44500  0.89100  1.0000
  S   S13       1.0  0.44500  0.94500  0.89100  1.0000
