data_image0
_chemical_formula_structural       I12S2Sn8
_chemical_formula_sum              "I12 S2 Sn8"
_cell_length_a       4.45203
_cell_length_b       7.6858
_cell_length_c       25.9152
_cell_angle_alpha    93.8009
_cell_angle_beta     90
_cell_angle_gamma    106.836

_space_group_name_H-M_alt    "P 1"
_space_group_IT_number       1

loop_
  _space_group_symop_operation_xyz
  'x, y, z'

loop_
  _atom_site_type_symbol
  _atom_site_label
  _atom_site_symmetry_multiplicity
  _atom_site_fract_x
  _atom_site_fract_y
  _atom_site_fract_z
  _atom_site_occupancy
  I   I1        1.0  0.07250  0.14500  0.07950  1.0000
  I   I2        1.0  0.35500  0.71000  0.16800  1.0000
  I   I3        1.0  0.09550  0.19100  0.24600  1.0000
  I   I4        1.0  0.82600  0.65200  0.32100  1.0000
  I   I5        1.0  0.56800  0.13700  0.39700  1.0000
  I   I6        1.0  0.85400  0.70900  0.47600  1.0000
  I   I7        1.0  0.14600  0.29100  0.52400  1.0000
  I   I8        1.0  0.43200  0.86300  0.60300  1.0000
  I   I9        1.0  0.17400  0.34800  0.67900  1.0000
  I   I10       1.0  0.90400  0.80900  0.75400  1.0000
  I   I11       1.0  0.64500  0.29000  0.83200  1.0000
  I   I12       1.0  0.92700  0.85500  0.92000  1.0000
  S   S1        1.0  0.77700  0.55500  0.05190  1.0000
  S   S2        1.0  0.22300  0.44500  0.94800  1.0000
  Sn  Sn1       1.0  0.36600  0.73200  0.01490  1.0000
  Sn  Sn2       1.0  0.70500  0.41000  0.14300  1.0000
  Sn  Sn3       1.0  0.46400  0.92900  0.28400  1.0000
  Sn  Sn4       1.0  0.22300  0.44600  0.41800  1.0000
  Sn  Sn5       1.0  0.77700  0.55400  0.58200  1.0000
  Sn  Sn6       1.0  0.53600  0.07130  0.71600  1.0000
  Sn  Sn7       1.0  0.29500  0.59000  0.85700  1.0000
  Sn  Sn8       1.0  0.63400  0.26800  0.98500  1.0000
