data_image0
_chemical_formula_structural       Cu14Te8
_chemical_formula_sum              "Cu14 Te8"
_cell_length_a       7.81744
_cell_length_b       7.81184
_cell_length_c       7.64069
_cell_angle_alpha    90
_cell_angle_beta     90.0013
_cell_angle_gamma    119.976

_space_group_name_H-M_alt    "P 1"
_space_group_IT_number       1

loop_
  _space_group_symop_operation_xyz
  'x, y, z'

loop_
  _atom_site_type_symbol
  _atom_site_label
  _atom_site_symmetry_multiplicity
  _atom_site_fract_x
  _atom_site_fract_y
  _atom_site_fract_z
  _atom_site_occupancy
  Cu  Cu1       1.0  0.33300  0.66700  0.20200  1.0000
  Cu  Cu2       1.0  0.19600  0.80400  0.43300  1.0000
  Cu  Cu3       1.0  0.19600  0.39200  0.43300  1.0000
  Cu  Cu4       1.0  0.60800  0.80400  0.43400  1.0000
  Cu  Cu5       1.0  0.80200  0.60500  0.48600  1.0000
  Cu  Cu6       1.0  0.80200  0.19800  0.48600  1.0000
  Cu  Cu7       1.0  0.39500  0.19800  0.48600  1.0000
  Cu  Cu8       1.0  0.29200  0.14600  0.84000  1.0000
  Cu  Cu9       1.0  0.85400  0.70700  0.84000  1.0000
  Cu  Cu10      1.0  0.85400  0.14700  0.84000  1.0000
  Cu  Cu11      1.0  0.66600  0.33300  0.95900  1.0000
  Cu  Cu12      1.0  0.19700  0.80200  0.97600  1.0000
  Cu  Cu13      1.0  0.19700  0.39500  0.97600  1.0000
  Cu  Cu14      1.0  0.60500  0.80200  0.97600  1.0000
  Te  Te1       1.0  0.00000  0.00000  0.06630  1.0000
  Te  Te2       1.0  0.96200  0.48100  0.22800  1.0000
  Te  Te3       1.0  0.51900  0.48100  0.23000  1.0000
  Te  Te4       1.0  0.51900  0.03870  0.23000  1.0000
  Te  Te5       1.0  0.00000  0.00000  0.54400  1.0000
  Te  Te6       1.0  0.02020  0.51000  0.72100  1.0000
  Te  Te7       1.0  0.49000  0.98000  0.72300  1.0000
  Te  Te8       1.0  0.49000  0.51000  0.72300  1.0000
