data_image0
_chemical_formula_structural       Li10Na4Sn8
_chemical_formula_sum              "Li10 Na4 Sn8"
_cell_length_a       4.87546
_cell_length_b       4.87546
_cell_length_c       24.1359
_cell_angle_alpha    95.7968
_cell_angle_beta     84.2032
_cell_angle_gamma    120

_space_group_name_H-M_alt    "P 1"
_space_group_IT_number       1

loop_
  _space_group_symop_operation_xyz
  'x, y, z'

loop_
  _atom_site_type_symbol
  _atom_site_label
  _atom_site_symmetry_multiplicity
  _atom_site_fract_x
  _atom_site_fract_y
  _atom_site_fract_z
  _atom_site_occupancy
  Li  Li1       1.0  0.32300  0.67700  0.03220  1.0000
  Li  Li2       1.0  0.28500  0.71500  0.14600  1.0000
  Li  Li3       1.0  0.56000  0.44000  0.32100  1.0000
  Li  Li4       1.0  0.20100  0.79900  0.39700  1.0000
  Li  Li5       1.0  0.52200  0.47800  0.43300  1.0000
  Li  Li6       1.0  0.47800  0.52200  0.56700  1.0000
  Li  Li7       1.0  0.79900  0.20100  0.60300  1.0000
  Li  Li8       1.0  0.44000  0.56000  0.67900  1.0000
  Li  Li9       1.0  0.71500  0.28500  0.85400  1.0000
  Li  Li10      1.0  0.67700  0.32300  0.96800  1.0000
  Na  Na1       1.0  0.95300  0.04690  0.14100  1.0000
  Na  Na2       1.0  0.24300  0.75700  0.27100  1.0000
  Na  Na3       1.0  0.75700  0.24300  0.72900  1.0000
  Na  Na4       1.0  0.04690  0.95300  0.85900  1.0000
  Sn  Sn1       1.0  0.63900  0.36100  0.08420  1.0000
  Sn  Sn2       1.0  0.60000  0.40000  0.20100  1.0000
  Sn  Sn3       1.0  0.88100  0.11900  0.35600  1.0000
  Sn  Sn4       1.0  0.84100  0.15900  0.47800  1.0000
  Sn  Sn5       1.0  0.15900  0.84100  0.52200  1.0000
  Sn  Sn6       1.0  0.11900  0.88100  0.64400  1.0000
  Sn  Sn7       1.0  0.40000  0.60000  0.79900  1.0000
  Sn  Sn8       1.0  0.36100  0.63900  0.91600  1.0000
