data_image0
_chemical_formula_structural       B4K4Se14
_chemical_formula_sum              "B4 K4 Se14"
_cell_length_a       7.24665
_cell_length_b       8.71604
_cell_length_c       11.3725
_cell_angle_alpha    104.047
_cell_angle_beta     108.579
_cell_angle_gamma    65.4361

_space_group_name_H-M_alt    "P 1"
_space_group_IT_number       1

loop_
  _space_group_symop_operation_xyz
  'x, y, z'

loop_
  _atom_site_type_symbol
  _atom_site_label
  _atom_site_symmetry_multiplicity
  _atom_site_fract_x
  _atom_site_fract_y
  _atom_site_fract_z
  _atom_site_occupancy
  B   B1        1.0  0.61100  0.38400  0.15200  1.0000
  B   B2        1.0  0.84400  0.11600  0.34800  1.0000
  B   B3        1.0  0.15600  0.88400  0.65200  1.0000
  B   B4        1.0  0.38900  0.61600  0.84800  1.0000
  K   K1        1.0  0.88400  0.81500  0.02460  1.0000
  K   K2        1.0  0.67500  0.68500  0.47500  1.0000
  K   K3        1.0  0.32500  0.31500  0.52500  1.0000
  K   K4        1.0  0.11600  0.18500  0.97500  1.0000
  Se  Se1       1.0  0.43300  0.76100  0.01890  1.0000
  Se  Se2       1.0  0.39300  0.62700  0.16800  1.0000
  Se  Se3       1.0  0.90500  0.39500  0.22900  1.0000
  Se  Se4       1.0  0.54300  0.25000  0.25000  1.0000
  Se  Se5       1.0  0.07080  0.10500  0.27100  1.0000
  Se  Se6       1.0  0.85200  0.87300  0.33200  1.0000
  Se  Se7       1.0  0.17500  0.73900  0.48100  1.0000
  Se  Se8       1.0  0.82500  0.26100  0.51900  1.0000
  Se  Se9       1.0  0.14800  0.12700  0.66800  1.0000
  Se  Se10      1.0  0.92900  0.89500  0.72900  1.0000
  Se  Se11      1.0  0.45700  0.75000  0.75000  1.0000
  Se  Se12      1.0  0.09510  0.60500  0.77100  1.0000
  Se  Se13      1.0  0.60700  0.37300  0.83200  1.0000
  Se  Se14      1.0  0.56700  0.23900  0.98100  1.0000
