data_image0
_chemical_formula_structural       In8Pd4Y10
_chemical_formula_sum              "In8 Pd4 Y10"
_cell_length_a       18.2639
_cell_length_b       8.09313
_cell_length_c       3.6615
_cell_angle_alpha    90
_cell_angle_beta     90
_cell_angle_gamma    90

_space_group_name_H-M_alt    "P 1"
_space_group_IT_number       1

loop_
  _space_group_symop_operation_xyz
  'x, y, z'

loop_
  _atom_site_type_symbol
  _atom_site_label
  _atom_site_symmetry_multiplicity
  _atom_site_fract_x
  _atom_site_fract_y
  _atom_site_fract_z
  _atom_site_occupancy
  In  In1       1.0  0.85000  0.08330  0.50000  1.0000
  In  In2       1.0  0.56900  0.21200  0.50000  1.0000
  In  In3       1.0  0.06880  0.28800  0.50000  1.0000
  In  In4       1.0  0.35000  0.41700  0.50000  1.0000
  In  In5       1.0  0.65000  0.58300  0.50000  1.0000
  In  In6       1.0  0.93100  0.71200  0.50000  1.0000
  In  In7       1.0  0.43100  0.78800  0.50000  1.0000
  In  In8       1.0  0.15000  0.91700  0.50000  1.0000
  Pd  Pd1       1.0  0.30400  0.02120  0.50000  1.0000
  Pd  Pd2       1.0  0.80400  0.47900  0.50000  1.0000
  Pd  Pd3       1.0  0.19600  0.52100  0.50000  1.0000
  Pd  Pd4       1.0  0.69600  0.97900  0.50000  1.0000
  Y   Y1        1.0  0.00000  0.00000  0.00000  1.0000
  Y   Y2        1.0  0.41800  0.11500  0.00000  1.0000
  Y   Y3        1.0  0.21900  0.23600  0.00000  1.0000
  Y   Y4        1.0  0.71900  0.26400  0.00000  1.0000
  Y   Y5        1.0  0.91800  0.38500  0.00000  1.0000
  Y   Y6        1.0  0.50000  0.50000  0.00000  1.0000
  Y   Y7        1.0  0.08210  0.61500  0.00000  1.0000
  Y   Y8        1.0  0.28100  0.73600  0.00000  1.0000
  Y   Y9        1.0  0.78100  0.76400  0.00000  1.0000
  Y   Y10       1.0  0.58200  0.88500  0.00000  1.0000
