data_image0
_chemical_formula_structural       Hf10In8Rh4
_chemical_formula_sum              "Hf10 In8 Rh4"
_cell_length_a       17.4449
_cell_length_b       7.61658
_cell_length_c       3.37084
_cell_angle_alpha    90
_cell_angle_beta     90
_cell_angle_gamma    90

_space_group_name_H-M_alt    "P 1"
_space_group_IT_number       1

loop_
  _space_group_symop_operation_xyz
  'x, y, z'

loop_
  _atom_site_type_symbol
  _atom_site_label
  _atom_site_symmetry_multiplicity
  _atom_site_fract_x
  _atom_site_fract_y
  _atom_site_fract_z
  _atom_site_occupancy
  Hf  Hf1       1.0  0.00000  0.00000  0.00000  1.0000
  Hf  Hf2       1.0  0.42000  0.13700  0.00000  1.0000
  Hf  Hf3       1.0  0.72200  0.24100  0.00000  1.0000
  Hf  Hf4       1.0  0.22200  0.25900  0.00000  1.0000
  Hf  Hf5       1.0  0.92000  0.36300  0.00000  1.0000
  Hf  Hf6       1.0  0.50000  0.50000  0.00000  1.0000
  Hf  Hf7       1.0  0.08020  0.63700  0.00000  1.0000
  Hf  Hf8       1.0  0.77800  0.74100  0.00000  1.0000
  Hf  Hf9       1.0  0.27800  0.75900  0.00000  1.0000
  Hf  Hf10      1.0  0.58000  0.86300  0.00000  1.0000
  In  In1       1.0  0.85100  0.06200  0.50000  1.0000
  In  In2       1.0  0.56700  0.20000  0.50000  1.0000
  In  In3       1.0  0.06690  0.30000  0.50000  1.0000
  In  In4       1.0  0.35100  0.43800  0.50000  1.0000
  In  In5       1.0  0.64900  0.56200  0.50000  1.0000
  In  In6       1.0  0.93300  0.70000  0.50000  1.0000
  In  In7       1.0  0.43300  0.80000  0.50000  1.0000
  In  In8       1.0  0.14900  0.93800  0.50000  1.0000
  Rh  Rh1       1.0  0.30700  0.04890  0.50000  1.0000
  Rh  Rh2       1.0  0.80700  0.45100  0.50000  1.0000
  Rh  Rh3       1.0  0.19300  0.54900  0.50000  1.0000
  Rh  Rh4       1.0  0.69300  0.95100  0.50000  1.0000
