data_image0
_chemical_formula_structural       Br4C8O8W2
_chemical_formula_sum              "Br4 C8 O8 W2"
_cell_length_a       8.06535
_cell_length_b       8.06535
_cell_length_c       8.62259
_cell_angle_alpha    113.483
_cell_angle_beta     95.8222
_cell_angle_gamma    117.745

_space_group_name_H-M_alt    "P 1"
_space_group_IT_number       1

loop_
  _space_group_symop_operation_xyz
  'x, y, z'

loop_
  _atom_site_type_symbol
  _atom_site_label
  _atom_site_symmetry_multiplicity
  _atom_site_fract_x
  _atom_site_fract_y
  _atom_site_fract_z
  _atom_site_occupancy
  Br  Br1       1.0  0.62400  0.66300  0.28700  1.0000
  Br  Br2       1.0  0.72100  0.22100  0.50000  1.0000
  Br  Br3       1.0  0.27900  0.77900  0.50000  1.0000
  Br  Br4       1.0  0.37600  0.33700  0.71300  1.0000
  C   C1        1.0  0.73800  0.27900  0.01720  1.0000
  C   C2        1.0  0.60500  0.87700  0.10000  1.0000
  C   C3        1.0  0.22400  0.49500  0.10000  1.0000
  C   C4        1.0  0.27900  0.98800  0.26700  1.0000
  C   C5        1.0  0.72100  0.01200  0.73300  1.0000
  C   C6        1.0  0.39500  0.12300  0.90000  1.0000
  C   C7        1.0  0.77600  0.50500  0.90000  1.0000
  C   C8        1.0  0.26200  0.72100  0.98300  1.0000
  O   O1        1.0  0.71700  0.91200  0.02480  1.0000
  O   O2        1.0  0.11300  0.30800  0.02480  1.0000
  O   O3        1.0  0.82200  0.34600  0.16800  1.0000
  O   O4        1.0  0.20400  0.08260  0.28700  1.0000
  O   O5        1.0  0.79600  0.91700  0.71300  1.0000
  O   O6        1.0  0.17800  0.65400  0.83200  1.0000
  O   O7        1.0  0.28300  0.08820  0.97500  1.0000
  O   O8        1.0  0.88700  0.69200  0.97500  1.0000
  W   W1        1.0  0.41300  0.81800  0.23100  1.0000
  W   W2        1.0  0.58700  0.18200  0.76900  1.0000
