data_image0
_chemical_formula_structural       Fe4In6
_chemical_formula_sum              "Fe4 In6"
_cell_length_a       6.09985
_cell_length_b       6.09985
_cell_length_c       7.14792
_cell_angle_alpha    115.258
_cell_angle_beta     64.7425
_cell_angle_gamma    120

_space_group_name_H-M_alt    "P 1"
_space_group_IT_number       1

loop_
  _space_group_symop_operation_xyz
  'x, y, z'

loop_
  _atom_site_type_symbol
  _atom_site_label
  _atom_site_symmetry_multiplicity
  _atom_site_fract_x
  _atom_site_fract_y
  _atom_site_fract_z
  _atom_site_occupancy
  Fe  Fe1       1.0  0.31300  0.68700  0.06160  1.0000
  Fe  Fe2       1.0  0.18700  0.81300  0.43800  1.0000
  Fe  Fe3       1.0  0.81300  0.18700  0.56200  1.0000
  Fe  Fe4       1.0  0.68700  0.31300  0.93800  1.0000
  In  In1       1.0  0.25000  0.15600  0.25000  1.0000
  In  In2       1.0  0.84400  0.34400  0.25000  1.0000
  In  In3       1.0  0.65600  0.75000  0.25000  1.0000
  In  In4       1.0  0.34400  0.25000  0.75000  1.0000
  In  In5       1.0  0.15600  0.65600  0.75000  1.0000
  In  In6       1.0  0.75000  0.84400  0.75000  1.0000
