data_image0
_chemical_formula_structural       I12O2Sm8
_chemical_formula_sum              "I12 O2 Sm8"
_cell_length_a       9.86673
_cell_length_b       9.86683
_cell_length_c       8.4211
_cell_angle_alpha    90
_cell_angle_beta     90
_cell_angle_gamma    120

_space_group_name_H-M_alt    "P 1"
_space_group_IT_number       1

loop_
  _space_group_symop_operation_xyz
  'x, y, z'

loop_
  _atom_site_type_symbol
  _atom_site_label
  _atom_site_symmetry_multiplicity
  _atom_site_fract_x
  _atom_site_fract_y
  _atom_site_fract_z
  _atom_site_occupancy
  I   I1        1.0  0.86500  0.73000  0.19900  1.0000
  I   I2        1.0  0.27000  0.13500  0.19900  1.0000
  I   I3        1.0  0.86500  0.13500  0.19900  1.0000
  I   I4        1.0  0.05280  0.52600  0.38600  1.0000
  I   I5        1.0  0.47400  0.52600  0.38600  1.0000
  I   I6        1.0  0.47400  0.94700  0.38600  1.0000
  I   I7        1.0  0.13500  0.27000  0.69900  1.0000
  I   I8        1.0  0.73000  0.86500  0.69900  1.0000
  I   I9        1.0  0.13500  0.86500  0.69900  1.0000
  I   I10       1.0  0.94700  0.47400  0.88600  1.0000
  I   I11       1.0  0.52600  0.47400  0.88600  1.0000
  I   I12       1.0  0.52600  0.05280  0.88600  1.0000
  O   O1        1.0  0.33300  0.66700  0.04560  1.0000
  O   O2        1.0  0.66700  0.33300  0.54600  1.0000
  Sm  Sm1       1.0  0.20200  0.40300  0.07000  1.0000
  Sm  Sm2       1.0  0.20200  0.79800  0.07000  1.0000
  Sm  Sm3       1.0  0.59700  0.79800  0.07000  1.0000
  Sm  Sm4       1.0  0.66700  0.33300  0.25800  1.0000
  Sm  Sm5       1.0  0.79800  0.59700  0.57000  1.0000
  Sm  Sm6       1.0  0.40300  0.20200  0.57000  1.0000
  Sm  Sm7       1.0  0.79800  0.20200  0.57000  1.0000
  Sm  Sm8       1.0  0.33300  0.66700  0.75800  1.0000
