data_image0
_chemical_formula_structural       B4Rb4Se14
_chemical_formula_sum              "B4 Rb4 Se14"
_cell_length_a       7.4941
_cell_length_b       8.96605
_cell_length_c       11.5645
_cell_angle_alpha    102.615
_cell_angle_beta     108.906
_cell_angle_gamma    65.297

_space_group_name_H-M_alt    "P 1"
_space_group_IT_number       1

loop_
  _space_group_symop_operation_xyz
  'x, y, z'

loop_
  _atom_site_type_symbol
  _atom_site_label
  _atom_site_symmetry_multiplicity
  _atom_site_fract_x
  _atom_site_fract_y
  _atom_site_fract_z
  _atom_site_occupancy
  B   B1        1.0  0.15400  0.38200  0.15100  1.0000
  B   B2        1.0  0.38500  0.11800  0.34900  1.0000
  B   B3        1.0  0.61500  0.88200  0.65100  1.0000
  B   B4        1.0  0.84600  0.61800  0.84900  1.0000
  Rb  Rb1       1.0  0.32900  0.81300  0.02320  1.0000
  Rb  Rb2       1.0  0.11900  0.68700  0.47700  1.0000
  Rb  Rb3       1.0  0.88100  0.31300  0.52300  1.0000
  Rb  Rb4       1.0  0.67100  0.18700  0.97700  1.0000
  Se  Se1       1.0  0.83200  0.75400  0.01600  1.0000
  Se  Se2       1.0  0.14700  0.61700  0.16400  1.0000
  Se  Se3       1.0  0.93700  0.39100  0.22800  1.0000
  Se  Se4       1.0  0.44700  0.25000  0.25000  1.0000
  Se  Se5       1.0  0.10000  0.10900  0.27200  1.0000
  Se  Se6       1.0  0.60000  0.88300  0.33600  1.0000
  Se  Se7       1.0  0.57000  0.74600  0.48400  1.0000
  Se  Se8       1.0  0.43000  0.25400  0.51600  1.0000
  Se  Se9       1.0  0.40000  0.11700  0.66400  1.0000
  Se  Se10      1.0  0.90000  0.89100  0.72800  1.0000
  Se  Se11      1.0  0.55300  0.75000  0.75000  1.0000
  Se  Se12      1.0  0.06320  0.60900  0.77200  1.0000
  Se  Se13      1.0  0.85300  0.38300  0.83600  1.0000
  Se  Se14      1.0  0.16800  0.24600  0.98400  1.0000
