data_image0
_chemical_formula_structural       Lu4Ni6
_chemical_formula_sum              "Lu4 Ni6"
_cell_length_a       6.3492
_cell_length_b       6.3492
_cell_length_c       6.435
_cell_angle_alpha    119.56
_cell_angle_beta     60.4401
_cell_angle_gamma    120

_space_group_name_H-M_alt    "P 1"
_space_group_IT_number       1

loop_
  _space_group_symop_operation_xyz
  'x, y, z'

loop_
  _atom_site_type_symbol
  _atom_site_label
  _atom_site_symmetry_multiplicity
  _atom_site_fract_x
  _atom_site_fract_y
  _atom_site_fract_z
  _atom_site_occupancy
  Lu  Lu1       1.0  0.60300  0.39700  0.19000  1.0000
  Lu  Lu2       1.0  0.89700  0.10300  0.31000  1.0000
  Lu  Lu3       1.0  0.10300  0.89700  0.69000  1.0000
  Lu  Lu4       1.0  0.39700  0.60300  0.81000  1.0000
  Ni  Ni1       1.0  0.03300  0.53300  0.25000  1.0000
  Ni  Ni2       1.0  0.46700  0.75000  0.25000  1.0000
  Ni  Ni3       1.0  0.25000  0.96700  0.25000  1.0000
  Ni  Ni4       1.0  0.96700  0.46700  0.75000  1.0000
  Ni  Ni5       1.0  0.53300  0.25000  0.75000  1.0000
  Ni  Ni6       1.0  0.75000  0.03300  0.75000  1.0000
