data_image0
_chemical_formula_structural       Ba4O12Ru4
_chemical_formula_sum              "Ba4 O12 Ru4"
_cell_length_a       5.68553
_cell_length_b       5.68553
_cell_length_c       9.48763
_cell_angle_alpha    90
_cell_angle_beta     89.9999
_cell_angle_gamma    120.005

_space_group_name_H-M_alt    "P 1"
_space_group_IT_number       1

loop_
  _space_group_symop_operation_xyz
  'x, y, z'

loop_
  _atom_site_type_symbol
  _atom_site_label
  _atom_site_symmetry_multiplicity
  _atom_site_fract_x
  _atom_site_fract_y
  _atom_site_fract_z
  _atom_site_occupancy
  Ba  Ba1       1.0  0.33300  0.66700  0.25000  1.0000
  Ba  Ba2       1.0  0.66700  0.33300  0.75000  1.0000
  Ba  Ba3       1.0  0.00001  0.00000  0.00004  1.0000
  Ba  Ba4       1.0  0.00000  0.00000  0.50000  1.0000
  O   O1        1.0  0.34700  0.17400  0.25000  1.0000
  O   O2        1.0  0.65300  0.82600  0.75000  1.0000
  O   O3        1.0  0.82600  0.17400  0.25000  1.0000
  O   O4        1.0  0.82600  0.65300  0.25000  1.0000
  O   O5        1.0  0.17400  0.34700  0.75000  1.0000
  O   O6        1.0  0.17400  0.82600  0.75000  1.0000
  O   O7        1.0  0.50000  0.50000  0.00000  1.0000
  O   O8        1.0  0.50000  0.50000  0.50000  1.0000
  O   O9        1.0  0.50000  0.00000  0.00000  1.0000
  O   O10       1.0  0.00005  0.50000  0.00000  1.0000
  O   O11       1.0  0.00000  0.50000  0.50000  1.0000
  O   O12       1.0  0.50000  0.00004  0.50000  1.0000
  Ru  Ru1       1.0  0.66700  0.33300  0.11800  1.0000
  Ru  Ru2       1.0  0.33300  0.66700  0.61800  1.0000
  Ru  Ru3       1.0  0.33300  0.66700  0.88200  1.0000
  Ru  Ru4       1.0  0.66700  0.33300  0.38200  1.0000
