data_image0
_chemical_formula_structural       Br6C8Ce8
_chemical_formula_sum              "Br6 C8 Ce8"
_cell_length_a       4.31737
_cell_length_b       11.2523
_cell_length_c       11.4547
_cell_angle_alpha    77.1546
_cell_angle_beta     90.0566
_cell_angle_gamma    84.9864

_space_group_name_H-M_alt    "P 1"
_space_group_IT_number       1

loop_
  _space_group_symop_operation_xyz
  'x, y, z'

loop_
  _atom_site_type_symbol
  _atom_site_label
  _atom_site_symmetry_multiplicity
  _atom_site_fract_x
  _atom_site_fract_y
  _atom_site_fract_z
  _atom_site_occupancy
  Br  Br1       1.0  0.20400  0.59800  0.10700  1.0000
  Br  Br2       1.0  0.58600  0.79400  0.29500  1.0000
  Br  Br3       1.0  0.79900  0.39100  0.42100  1.0000
  Br  Br4       1.0  0.20100  0.60900  0.57900  1.0000
  Br  Br5       1.0  0.41400  0.20600  0.70500  1.0000
  Br  Br6       1.0  0.79600  0.40200  0.89300  1.0000
  C   C1        1.0  0.12700  0.96300  0.00096  1.0000
  C   C2        1.0  0.24900  0.23600  0.19600  1.0000
  C   C3        1.0  0.50800  0.15600  0.21500  1.0000
  C   C4        1.0  0.87400  0.03690  0.48400  1.0000
  C   C5        1.0  0.12600  0.96300  0.51600  1.0000
  C   C6        1.0  0.49200  0.84400  0.78500  1.0000
  C   C7        1.0  0.75100  0.76400  0.80400  1.0000
  C   C8        1.0  0.87300  0.03730  0.99900  1.0000
  Ce  Ce1       1.0  0.62100  0.82700  0.01810  1.0000
  Ce  Ce2       1.0  0.76900  0.36600  0.17000  1.0000
  Ce  Ce3       1.0  0.98100  0.02040  0.24500  1.0000
  Ce  Ce4       1.0  0.37700  0.17800  0.43800  1.0000
  Ce  Ce5       1.0  0.62300  0.82200  0.56200  1.0000
  Ce  Ce6       1.0  0.01950  0.98000  0.75500  1.0000
  Ce  Ce7       1.0  0.23100  0.63400  0.83000  1.0000
  Ce  Ce8       1.0  0.37900  0.17300  0.98200  1.0000
