data_image0
_chemical_formula_structural       Ni4Os6
_chemical_formula_sum              "Ni4 Os6"
_cell_length_a       6.1956
_cell_length_b       6.1956
_cell_length_c       5.40753
_cell_angle_alpha    124.95
_cell_angle_beta     55.0496
_cell_angle_gamma    120

_space_group_name_H-M_alt    "P 1"
_space_group_IT_number       1

loop_
  _space_group_symop_operation_xyz
  'x, y, z'

loop_
  _atom_site_type_symbol
  _atom_site_label
  _atom_site_symmetry_multiplicity
  _atom_site_fract_x
  _atom_site_fract_y
  _atom_site_fract_z
  _atom_site_occupancy
  Ni  Ni1       1.0  0.59100  0.40900  0.22600  1.0000
  Ni  Ni2       1.0  0.90900  0.09130  0.27400  1.0000
  Ni  Ni3       1.0  0.09130  0.90900  0.72600  1.0000
  Ni  Ni4       1.0  0.40900  0.59100  0.77400  1.0000
  Os  Os1       1.0  0.50000  0.75000  0.25000  1.0000
  Os  Os2       1.0  0.00000  0.50000  0.25000  1.0000
  Os  Os3       1.0  0.25000  0.00028  0.25000  1.0000
  Os  Os4       1.0  0.00028  0.50000  0.75000  1.0000
  Os  Os5       1.0  0.50000  0.25000  0.75000  1.0000
  Os  Os6       1.0  0.75000  0.00000  0.75000  1.0000
