data_image0
_chemical_formula_structural       Ag4O14W4
_chemical_formula_sum              "Ag4 O14 W4"
_cell_length_a       6.0397
_cell_length_b       6.99424
_cell_length_c       7.67114
_cell_angle_alpha    72.6597
_cell_angle_beta     93.8918
_cell_angle_gamma    105.127

_space_group_name_H-M_alt    "P 1"
_space_group_IT_number       1

loop_
  _space_group_symop_operation_xyz
  'x, y, z'

loop_
  _atom_site_type_symbol
  _atom_site_label
  _atom_site_symmetry_multiplicity
  _atom_site_fract_x
  _atom_site_fract_y
  _atom_site_fract_z
  _atom_site_occupancy
  Ag  Ag1       1.0  0.26100  0.32900  0.03890  1.0000
  Ag  Ag2       1.0  0.70800  0.28700  0.25100  1.0000
  Ag  Ag3       1.0  0.29200  0.71300  0.74900  1.0000
  Ag  Ag4       1.0  0.73900  0.67100  0.96100  1.0000
  O   O1        1.0  0.16200  0.72900  0.00547  1.0000
  O   O2        1.0  0.35200  0.01460  0.19800  1.0000
  O   O3        1.0  0.58400  0.71700  0.20300  1.0000
  O   O4        1.0  0.19800  0.39800  0.30500  1.0000
  O   O5        1.0  0.98900  0.68700  0.34600  1.0000
  O   O6        1.0  0.78900  0.97700  0.42800  1.0000
  O   O7        1.0  0.60500  0.35600  0.49900  1.0000
  O   O8        1.0  0.39500  0.64400  0.50100  1.0000
  O   O9        1.0  0.21100  0.02340  0.57200  1.0000
  O   O10       1.0  0.01080  0.31300  0.65400  1.0000
  O   O11       1.0  0.80200  0.60200  0.69500  1.0000
  O   O12       1.0  0.41600  0.28300  0.79700  1.0000
  O   O13       1.0  0.64800  0.98500  0.80200  1.0000
  O   O14       1.0  0.83800  0.27100  0.99500  1.0000
  W   W1        1.0  0.27700  0.74700  0.22400  1.0000
  W   W2        1.0  0.73200  0.71300  0.45300  1.0000
  W   W3        1.0  0.26800  0.28700  0.54700  1.0000
  W   W4        1.0  0.72300  0.25300  0.77600  1.0000
