data_image0
_chemical_formula_structural       Cr6Ti2
_chemical_formula_sum              "Cr6 Ti2"
_cell_length_a       5.11087
_cell_length_b       5.11087
_cell_length_c       4.51449
_cell_angle_alpha    90
_cell_angle_beta     90
_cell_angle_gamma    120

_space_group_name_H-M_alt    "P 1"
_space_group_IT_number       1

loop_
  _space_group_symop_operation_xyz
  'x, y, z'

loop_
  _atom_site_type_symbol
  _atom_site_label
  _atom_site_symmetry_multiplicity
  _atom_site_fract_x
  _atom_site_fract_y
  _atom_site_fract_z
  _atom_site_occupancy
  Cr  Cr1       1.0  0.16000  0.32000  0.25000  1.0000
  Cr  Cr2       1.0  0.16000  0.84000  0.25000  1.0000
  Cr  Cr3       1.0  0.68000  0.84000  0.25000  1.0000
  Cr  Cr4       1.0  0.32000  0.16000  0.75000  1.0000
  Cr  Cr5       1.0  0.84000  0.16000  0.75000  1.0000
  Cr  Cr6       1.0  0.84000  0.68000  0.75000  1.0000
  Ti  Ti1       1.0  0.66700  0.33300  0.25000  1.0000
  Ti  Ti2       1.0  0.33300  0.66700  0.75000  1.0000
