data_image0
_chemical_formula_structural       Mg4U6
_chemical_formula_sum              "Mg4 U6"
_cell_length_a       8.25602
_cell_length_b       8.25602
_cell_length_c       5.86015
_cell_angle_alpha    134.783
_cell_angle_beta     45.2173
_cell_angle_gamma    120

_space_group_name_H-M_alt    "P 1"
_space_group_IT_number       1

loop_
  _space_group_symop_operation_xyz
  'x, y, z'

loop_
  _atom_site_type_symbol
  _atom_site_label
  _atom_site_symmetry_multiplicity
  _atom_site_fract_x
  _atom_site_fract_y
  _atom_site_fract_z
  _atom_site_occupancy
  Mg  Mg1       1.0  0.62300  0.37700  0.13100  1.0000
  Mg  Mg2       1.0  0.87700  0.12300  0.36900  1.0000
  Mg  Mg3       1.0  0.12300  0.87700  0.63100  1.0000
  Mg  Mg4       1.0  0.37700  0.62300  0.86900  1.0000
  U   U1        1.0  0.57300  0.75000  0.25000  1.0000
  U   U2        1.0  0.92700  0.42700  0.25000  1.0000
  U   U3        1.0  0.25000  0.07290  0.25000  1.0000
  U   U4        1.0  0.75000  0.92700  0.75000  1.0000
  U   U5        1.0  0.07290  0.57300  0.75000  1.0000
  U   U6        1.0  0.42700  0.25000  0.75000  1.0000
