data_image0
_chemical_formula_structural       F14Na4Ni2V2
_chemical_formula_sum              "F14 Na4 Ni2 V2"
_cell_length_a       7.13887
_cell_length_b       7.0192
_cell_length_c       7.0192
_cell_angle_alpha    91.6701
_cell_angle_beta     120.566
_cell_angle_gamma    59.4344

_space_group_name_H-M_alt    "P 1"
_space_group_IT_number       1

loop_
  _space_group_symop_operation_xyz
  'x, y, z'

loop_
  _atom_site_type_symbol
  _atom_site_label
  _atom_site_symmetry_multiplicity
  _atom_site_fract_x
  _atom_site_fract_y
  _atom_site_fract_z
  _atom_site_occupancy
  F   F1        1.0  0.23900  0.16900  0.06250  1.0000
  F   F2        1.0  0.65500  0.16900  0.06250  1.0000
  F   F3        1.0  0.86600  0.38400  0.11600  1.0000
  F   F4        1.0  0.23900  0.43800  0.33100  1.0000
  F   F5        1.0  0.65500  0.43800  0.33100  1.0000
  F   F6        1.0  0.73500  0.86200  0.33200  1.0000
  F   F7        1.0  0.26500  0.83200  0.36200  1.0000
  F   F8        1.0  0.73500  0.16800  0.63800  1.0000
  F   F9        1.0  0.26500  0.13800  0.66800  1.0000
  F   F10       1.0  0.34500  0.56200  0.66900  1.0000
  F   F11       1.0  0.76100  0.56200  0.66900  1.0000
  F   F12       1.0  0.13400  0.61600  0.88400  1.0000
  F   F13       1.0  0.34500  0.83100  0.93800  1.0000
  F   F14       1.0  0.76100  0.83100  0.93800  1.0000
  Na  Na1       1.0  0.00000  0.00000  0.00000  1.0000
  Na  Na2       1.0  0.00000  0.50000  0.50000  1.0000
  Na  Na3       1.0  0.00000  0.00000  0.50000  1.0000
  Na  Na4       1.0  0.50000  0.00000  0.50000  1.0000
  Ni  Ni1       1.0  0.50000  0.50000  0.00000  1.0000
  Ni  Ni2       1.0  0.00000  0.50000  0.00000  1.0000
  V   V1        1.0  0.50000  0.00000  0.00000  1.0000
  V   V2        1.0  0.50000  0.50000  0.50000  1.0000
