data_image0
_chemical_formula_structural       Ac4Al6
_chemical_formula_sum              "Ac4 Al6"
_cell_length_a       7.65125
_cell_length_b       7.65125
_cell_length_c       7.98827
_cell_angle_alpha    118.614
_cell_angle_beta     61.3861
_cell_angle_gamma    120

_space_group_name_H-M_alt    "P 1"
_space_group_IT_number       1

loop_
  _space_group_symop_operation_xyz
  'x, y, z'

loop_
  _atom_site_type_symbol
  _atom_site_label
  _atom_site_symmetry_multiplicity
  _atom_site_fract_x
  _atom_site_fract_y
  _atom_site_fract_z
  _atom_site_occupancy
  Ac  Ac1       1.0  0.59900  0.40100  0.20400  1.0000
  Ac  Ac2       1.0  0.90100  0.09870  0.29600  1.0000
  Ac  Ac3       1.0  0.09870  0.90100  0.70400  1.0000
  Ac  Ac4       1.0  0.40100  0.59900  0.79600  1.0000
  Al  Al1       1.0  0.05340  0.55300  0.25000  1.0000
  Al  Al2       1.0  0.44700  0.75000  0.25000  1.0000
  Al  Al3       1.0  0.25000  0.94700  0.25000  1.0000
  Al  Al4       1.0  0.75000  0.05340  0.75000  1.0000
  Al  Al5       1.0  0.55300  0.25000  0.75000  1.0000
  Al  Al6       1.0  0.94700  0.44700  0.75000  1.0000
