data_image0
_chemical_formula_structural       Cr8Si10Ta4
_chemical_formula_sum              "Cr8 Si10 Ta4"
_cell_length_a       5.14106
_cell_length_b       7.45078
_cell_length_c       9.32815
_cell_angle_alpha    113.539
_cell_angle_beta     105.996
_cell_angle_gamma    90

_space_group_name_H-M_alt    "P 1"
_space_group_IT_number       1

loop_
  _space_group_symop_operation_xyz
  'x, y, z'

loop_
  _atom_site_type_symbol
  _atom_site_label
  _atom_site_symmetry_multiplicity
  _atom_site_fract_x
  _atom_site_fract_y
  _atom_site_fract_z
  _atom_site_occupancy
  Cr  Cr1       1.0  0.56100  0.31100  0.12100  1.0000
  Cr  Cr2       1.0  0.06050  0.81000  0.12100  1.0000
  Cr  Cr3       1.0  0.64400  0.02080  0.28900  1.0000
  Cr  Cr4       1.0  0.14400  0.26800  0.28900  1.0000
  Cr  Cr5       1.0  0.85600  0.73200  0.71100  1.0000
  Cr  Cr6       1.0  0.35600  0.97900  0.71100  1.0000
  Cr  Cr7       1.0  0.93900  0.19000  0.87900  1.0000
  Cr  Cr8       1.0  0.43900  0.68900  0.87900  1.0000
  Si  Si1       1.0  0.25000  0.00000  0.00000  1.0000
  Si  Si2       1.0  0.75000  0.00000  0.00000  1.0000
  Si  Si3       1.0  0.56000  0.65100  0.12000  1.0000
  Si  Si4       1.0  0.05990  0.46900  0.12000  1.0000
  Si  Si5       1.0  0.70300  0.39300  0.40500  1.0000
  Si  Si6       1.0  0.20300  0.01190  0.40500  1.0000
  Si  Si7       1.0  0.79700  0.98800  0.59500  1.0000
  Si  Si8       1.0  0.29700  0.60700  0.59500  1.0000
  Si  Si9       1.0  0.94000  0.53100  0.88000  1.0000
  Si  Si10      1.0  0.44000  0.34900  0.88000  1.0000
  Ta  Ta1       1.0  0.94000  0.69000  0.38000  1.0000
  Ta  Ta2       1.0  0.44000  0.69000  0.38000  1.0000
  Ta  Ta3       1.0  0.56000  0.31000  0.62000  1.0000
  Ta  Ta4       1.0  0.05990  0.31000  0.62000  1.0000
