data_image0
_chemical_formula_structural       C6S16
_chemical_formula_sum              "C6 S16"
_cell_length_a       4.75144
_cell_length_b       9.2886
_cell_length_c       12.2985
_cell_angle_alpha    100.562
_cell_angle_beta     97.3646
_cell_angle_gamma    91.2908

_space_group_name_H-M_alt    "P 1"
_space_group_IT_number       1

loop_
  _space_group_symop_operation_xyz
  'x, y, z'

loop_
  _atom_site_type_symbol
  _atom_site_label
  _atom_site_symmetry_multiplicity
  _atom_site_fract_x
  _atom_site_fract_y
  _atom_site_fract_z
  _atom_site_occupancy
  C   C1        1.0  0.29900  0.14100  0.20700  1.0000
  C   C2        1.0  0.63400  0.97200  0.31100  1.0000
  C   C3        1.0  0.33500  0.20900  0.31800  1.0000
  C   C4        1.0  0.66500  0.79100  0.68200  1.0000
  C   C5        1.0  0.36600  0.02800  0.68900  1.0000
  C   C6        1.0  0.70100  0.85900  0.79300  1.0000
  S   S1        1.0  0.30500  0.37900  0.06880  1.0000
  S   S2        1.0  0.08640  0.19700  0.09570  1.0000
  S   S3        1.0  0.16600  0.55400  0.17500  1.0000
  S   S4        1.0  0.47500  0.98000  0.17700  1.0000
  S   S5        1.0  0.38500  0.53800  0.32900  1.0000
  S   S6        1.0  0.84100  0.84200  0.34300  1.0000
  S   S7        1.0  0.17400  0.36700  0.37700  1.0000
  S   S8        1.0  0.55300  0.12200  0.40800  1.0000
  S   S9        1.0  0.44700  0.87800  0.59200  1.0000
  S   S10       1.0  0.82600  0.63300  0.62300  1.0000
  S   S11       1.0  0.15900  0.15800  0.65700  1.0000
  S   S12       1.0  0.61500  0.46200  0.67100  1.0000
  S   S13       1.0  0.52500  0.02050  0.82300  1.0000
  S   S14       1.0  0.83400  0.44600  0.82500  1.0000
  S   S15       1.0  0.91400  0.80300  0.90400  1.0000
  S   S16       1.0  0.69500  0.62100  0.93100  1.0000
