data_image0
_chemical_formula_structural       C8Cs2K2N8Ni2
_chemical_formula_sum              "C8 Cs2 K2 N8 Ni2"
_cell_length_a       7.36704
_cell_length_b       8.33284
_cell_length_c       9.18821
_cell_angle_alpha    57.0988
_cell_angle_beta     63.6089
_cell_angle_gamma    71.2152

_space_group_name_H-M_alt    "P 1"
_space_group_IT_number       1

loop_
  _space_group_symop_operation_xyz
  'x, y, z'

loop_
  _atom_site_type_symbol
  _atom_site_label
  _atom_site_symmetry_multiplicity
  _atom_site_fract_x
  _atom_site_fract_y
  _atom_site_fract_z
  _atom_site_occupancy
  C   C1        1.0  0.77800  0.13800  0.09580  1.0000
  C   C2        1.0  0.13200  0.96300  0.14700  1.0000
  C   C3        1.0  0.01150  0.40400  0.35600  1.0000
  C   C4        1.0  0.75700  0.64000  0.47100  1.0000
  C   C5        1.0  0.24300  0.36000  0.52900  1.0000
  C   C6        1.0  0.98800  0.59600  0.64400  1.0000
  C   C7        1.0  0.86800  0.03680  0.85300  1.0000
  C   C8        1.0  0.22200  0.86200  0.90400  1.0000
  Cs  Cs1       1.0  0.62500  0.62800  0.12400  1.0000
  Cs  Cs2       1.0  0.37500  0.37200  0.87600  1.0000
  K   K1        1.0  0.26000  0.98600  0.49500  1.0000
  K   K2        1.0  0.74000  0.01360  0.50500  1.0000
  N   N1        1.0  0.63200  0.22300  0.15900  1.0000
  N   N2        1.0  0.22200  0.94100  0.23600  1.0000
  N   N3        1.0  0.01320  0.33900  0.26900  1.0000
  N   N4        1.0  0.60100  0.73000  0.45300  1.0000
  N   N5        1.0  0.39900  0.27000  0.54700  1.0000
  N   N6        1.0  0.98700  0.66100  0.73100  1.0000
  N   N7        1.0  0.77800  0.05930  0.76400  1.0000
  N   N8        1.0  0.36800  0.77700  0.84100  1.0000
  Ni  Ni1       1.0  0.00000  0.00000  0.00000  1.0000
  Ni  Ni2       1.0  0.00000  0.50000  0.50000  1.0000
