data_image0
_chemical_formula_structural       Cd12Sb10
_chemical_formula_sum              "Cd12 Sb10"
_cell_length_a       9.01128
_cell_length_b       9.01128
_cell_length_c       9.01128
_cell_angle_alpha    100.633
_cell_angle_beta     100.633
_cell_angle_gamma    100.633

_space_group_name_H-M_alt    "P 1"
_space_group_IT_number       1

loop_
  _space_group_symop_operation_xyz
  'x, y, z'

loop_
  _atom_site_type_symbol
  _atom_site_label
  _atom_site_symmetry_multiplicity
  _atom_site_fract_x
  _atom_site_fract_y
  _atom_site_fract_z
  _atom_site_occupancy
  Cd  Cd1       1.0  0.73900  0.70100  0.06640  1.0000
  Cd  Cd2       1.0  0.23900  0.56600  0.20100  1.0000
  Cd  Cd3       1.0  0.56600  0.20100  0.23900  1.0000
  Cd  Cd4       1.0  0.29900  0.93400  0.26100  1.0000
  Cd  Cd5       1.0  0.93400  0.26100  0.29900  1.0000
  Cd  Cd6       1.0  0.79900  0.76100  0.43400  1.0000
  Cd  Cd7       1.0  0.20100  0.23900  0.56600  1.0000
  Cd  Cd8       1.0  0.06640  0.73900  0.70100  1.0000
  Cd  Cd9       1.0  0.70100  0.06640  0.73900  1.0000
  Cd  Cd10      1.0  0.43400  0.79900  0.76100  1.0000
  Cd  Cd11      1.0  0.76100  0.43400  0.79900  1.0000
  Cd  Cd12      1.0  0.26100  0.29900  0.93400  1.0000
  Sb  Sb1       1.0  0.43800  0.75000  0.06170  1.0000
  Sb  Sb2       1.0  0.11400  0.11400  0.11400  1.0000
  Sb  Sb3       1.0  0.93800  0.56200  0.25000  1.0000
  Sb  Sb4       1.0  0.38600  0.38600  0.38600  1.0000
  Sb  Sb5       1.0  0.75000  0.06170  0.43800  1.0000
  Sb  Sb6       1.0  0.25000  0.93800  0.56200  1.0000
  Sb  Sb7       1.0  0.61400  0.61400  0.61400  1.0000
  Sb  Sb8       1.0  0.06170  0.43800  0.75000  1.0000
  Sb  Sb9       1.0  0.88600  0.88600  0.88600  1.0000
  Sb  Sb10      1.0  0.56200  0.25000  0.93800  1.0000
