data_image0
_chemical_formula_structural       Ca4O14Os4
_chemical_formula_sum              "Ca4 O14 Os4"
_cell_length_a       7.22132
_cell_length_b       7.23443
_cell_length_c       7.23443
_cell_angle_alpha    118.63
_cell_angle_beta     119.94
_cell_angle_gamma    60.0599

_space_group_name_H-M_alt    "P 1"
_space_group_IT_number       1

loop_
  _space_group_symop_operation_xyz
  'x, y, z'

loop_
  _atom_site_type_symbol
  _atom_site_label
  _atom_site_symmetry_multiplicity
  _atom_site_fract_x
  _atom_site_fract_y
  _atom_site_fract_z
  _atom_site_occupancy
  Ca  Ca1       1.0  0.00000  0.00000  0.00000  1.0000
  Ca  Ca2       1.0  0.00000  0.50000  0.00000  1.0000
  Ca  Ca3       1.0  0.50000  0.50000  0.00000  1.0000
  Ca  Ca4       1.0  0.50000  0.50000  0.50000  1.0000
  O   O1        1.0  0.40300  0.33000  0.13500  1.0000
  O   O2        1.0  0.90300  0.36500  0.17000  1.0000
  O   O3        1.0  0.41200  0.94800  0.18200  1.0000
  O   O4        1.0  0.82100  0.94800  0.18200  1.0000
  O   O5        1.0  0.25000  0.91500  0.41500  1.0000
  O   O6        1.0  0.08760  0.68200  0.44800  1.0000
  O   O7        1.0  0.67900  0.68200  0.44800  1.0000
  O   O8        1.0  0.32100  0.31800  0.55200  1.0000
  O   O9        1.0  0.91200  0.31800  0.55200  1.0000
  O   O10       1.0  0.75000  0.08500  0.58500  1.0000
  O   O11       1.0  0.17900  0.05150  0.81800  1.0000
  O   O12       1.0  0.58800  0.05150  0.81800  1.0000
  O   O13       1.0  0.09740  0.63500  0.83000  1.0000
  O   O14       1.0  0.59700  0.67000  0.86500  1.0000
  Os  Os1       1.0  0.50000  0.00000  0.00000  1.0000
  Os  Os2       1.0  0.00000  0.50000  0.50000  1.0000
  Os  Os3       1.0  0.00000  0.00000  0.50000  1.0000
  Os  Os4       1.0  0.50000  0.00000  0.50000  1.0000
