data_image0
_chemical_formula_structural       Ca2Ni2O14P4
_chemical_formula_sum              "Ca2 Ni2 O14 P4"
_cell_length_a       6.38588
_cell_length_b       6.47842
_cell_length_c       6.48233
_cell_angle_alpha    66.5104
_cell_angle_beta     82.6219
_cell_angle_gamma    87.6094

_space_group_name_H-M_alt    "P 1"
_space_group_IT_number       1

loop_
  _space_group_symop_operation_xyz
  'x, y, z'

loop_
  _atom_site_type_symbol
  _atom_site_label
  _atom_site_symmetry_multiplicity
  _atom_site_fract_x
  _atom_site_fract_y
  _atom_site_fract_z
  _atom_site_occupancy
  Ca  Ca1       1.0  0.87000  0.19800  0.26400  1.0000
  Ca  Ca2       1.0  0.13000  0.80200  0.73600  1.0000
  Ni  Ni1       1.0  0.64600  0.78000  0.09890  1.0000
  Ni  Ni2       1.0  0.35400  0.22000  0.90100  1.0000
  O   O1        1.0  0.32600  0.86500  0.04810  1.0000
  O   O2        1.0  0.96800  0.69700  0.11000  1.0000
  O   O3        1.0  0.27000  0.25100  0.20600  1.0000
  O   O4        1.0  0.59000  0.44100  0.25200  1.0000
  O   O5        1.0  0.05720  0.86700  0.38100  1.0000
  O   O6        1.0  0.61700  0.85100  0.39600  1.0000
  O   O7        1.0  0.22400  0.51700  0.40200  1.0000
  O   O8        1.0  0.77600  0.48300  0.59800  1.0000
  O   O9        1.0  0.38300  0.14900  0.60400  1.0000
  O   O10       1.0  0.94300  0.13300  0.61900  1.0000
  O   O11       1.0  0.41000  0.55900  0.74800  1.0000
  O   O12       1.0  0.73000  0.74900  0.79400  1.0000
  O   O13       1.0  0.03240  0.30300  0.89000  1.0000
  O   O14       1.0  0.67400  0.13500  0.95200  1.0000
  P   P1        1.0  0.13900  0.74600  0.23200  1.0000
  P   P2        1.0  0.37600  0.32500  0.36300  1.0000
  P   P3        1.0  0.62400  0.67500  0.63700  1.0000
  P   P4        1.0  0.86100  0.25400  0.76800  1.0000
