data_image0
_chemical_formula_structural       C8N12Ni2
_chemical_formula_sum              "C8 N12 Ni2"
_cell_length_a       5.68598
_cell_length_b       6.79474
_cell_length_c       7.37374
_cell_angle_alpha    90
_cell_angle_beta     90
_cell_angle_gamma    90

_space_group_name_H-M_alt    "P 1"
_space_group_IT_number       1

loop_
  _space_group_symop_operation_xyz
  'x, y, z'

loop_
  _atom_site_type_symbol
  _atom_site_label
  _atom_site_symmetry_multiplicity
  _atom_site_fract_x
  _atom_site_fract_y
  _atom_site_fract_z
  _atom_site_occupancy
  C   C1        1.0  0.24100  0.34800  0.15500  1.0000
  C   C2        1.0  0.75900  0.65200  0.15500  1.0000
  C   C3        1.0  0.74100  0.15200  0.34500  1.0000
  C   C4        1.0  0.25900  0.84800  0.34500  1.0000
  C   C5        1.0  0.74100  0.15200  0.65500  1.0000
  C   C6        1.0  0.25900  0.84800  0.65500  1.0000
  C   C7        1.0  0.24100  0.34800  0.84500  1.0000
  C   C8        1.0  0.75900  0.65200  0.84500  1.0000
  N   N1        1.0  0.17300  0.27600  0.00000  1.0000
  N   N2        1.0  0.82700  0.72400  0.00000  1.0000
  N   N3        1.0  0.78800  0.09740  0.19800  1.0000
  N   N4        1.0  0.21200  0.90300  0.19800  1.0000
  N   N5        1.0  0.28800  0.40300  0.30200  1.0000
  N   N6        1.0  0.71200  0.59700  0.30200  1.0000
  N   N7        1.0  0.67300  0.22400  0.50000  1.0000
  N   N8        1.0  0.32700  0.77600  0.50000  1.0000
  N   N9        1.0  0.28800  0.40300  0.69800  1.0000
  N   N10       1.0  0.71200  0.59700  0.69800  1.0000
  N   N11       1.0  0.78800  0.09740  0.80200  1.0000
  N   N12       1.0  0.21200  0.90300  0.80200  1.0000
  Ni  Ni1       1.0  0.00000  0.00000  0.00000  1.0000
  Ni  Ni2       1.0  0.50000  0.50000  0.50000  1.0000
