data_image0
_chemical_formula_structural       Br12O2Sm8
_chemical_formula_sum              "Br12 O2 Sm8"
_cell_length_a       9.38746
_cell_length_b       9.38775
_cell_length_c       7.86984
_cell_angle_alpha    90
_cell_angle_beta     90
_cell_angle_gamma    119.999

_space_group_name_H-M_alt    "P 1"
_space_group_IT_number       1

loop_
  _space_group_symop_operation_xyz
  'x, y, z'

loop_
  _atom_site_type_symbol
  _atom_site_label
  _atom_site_symmetry_multiplicity
  _atom_site_fract_x
  _atom_site_fract_y
  _atom_site_fract_z
  _atom_site_occupancy
  Br  Br1       1.0  0.51900  0.48100  0.19200  1.0000
  Br  Br2       1.0  0.96200  0.48100  0.19200  1.0000
  Br  Br3       1.0  0.51900  0.03750  0.19200  1.0000
  Br  Br4       1.0  0.13500  0.26900  0.37400  1.0000
  Br  Br5       1.0  0.13500  0.86500  0.37400  1.0000
  Br  Br6       1.0  0.73100  0.86500  0.37400  1.0000
  Br  Br7       1.0  0.03750  0.51900  0.69200  1.0000
  Br  Br8       1.0  0.48100  0.51900  0.69200  1.0000
  Br  Br9       1.0  0.48100  0.96300  0.69200  1.0000
  Br  Br10      1.0  0.86500  0.73100  0.87400  1.0000
  Br  Br11      1.0  0.26900  0.13500  0.87400  1.0000
  Br  Br12      1.0  0.86500  0.13500  0.87400  1.0000
  O   O1        1.0  0.33300  0.66700  0.01910  1.0000
  O   O2        1.0  0.66700  0.33300  0.51900  1.0000
  Sm  Sm1       1.0  0.19600  0.39200  0.00136  1.0000
  Sm  Sm2       1.0  0.19600  0.80400  0.00140  1.0000
  Sm  Sm3       1.0  0.60900  0.80400  0.00140  1.0000
  Sm  Sm4       1.0  0.33300  0.66700  0.32400  1.0000
  Sm  Sm5       1.0  0.80400  0.60800  0.50100  1.0000
  Sm  Sm6       1.0  0.39100  0.19600  0.50100  1.0000
  Sm  Sm7       1.0  0.80400  0.19600  0.50100  1.0000
  Sm  Sm8       1.0  0.66700  0.33300  0.82400  1.0000
