data_image0
_chemical_formula_structural       Cl4Ru2Te16
_chemical_formula_sum              "Cl4 Ru2 Te16"
_cell_length_a       8.72586
_cell_length_b       8.72586
_cell_length_c       10.6666
_cell_angle_alpha    102.203
_cell_angle_beta     102.203
_cell_angle_gamma    115.578

_space_group_name_H-M_alt    "P 1"
_space_group_IT_number       1

loop_
  _space_group_symop_operation_xyz
  'x, y, z'

loop_
  _atom_site_type_symbol
  _atom_site_label
  _atom_site_symmetry_multiplicity
  _atom_site_fract_x
  _atom_site_fract_y
  _atom_site_fract_z
  _atom_site_occupancy
  Cl  Cl1       1.0  0.00000  0.50000  0.00000  1.0000
  Cl  Cl2       1.0  0.58900  0.41100  0.25000  1.0000
  Cl  Cl3       1.0  0.50000  0.00000  0.50000  1.0000
  Cl  Cl4       1.0  0.41100  0.58900  0.75000  1.0000
  Ru  Ru1       1.0  0.00000  0.00000  0.00000  1.0000
  Ru  Ru2       1.0  0.00000  0.00000  0.50000  1.0000
  Te  Te1       1.0  0.74700  0.71100  0.02820  1.0000
  Te  Te2       1.0  0.51000  0.79200  0.13200  1.0000
  Te  Te3       1.0  0.90900  0.21300  0.14600  1.0000
  Te  Te4       1.0  0.24300  0.02080  0.21100  1.0000
  Te  Te5       1.0  0.97900  0.75700  0.28900  1.0000
  Te  Te6       1.0  0.78700  0.09080  0.35400  1.0000
  Te  Te7       1.0  0.20800  0.49000  0.36800  1.0000
  Te  Te8       1.0  0.28900  0.25300  0.47200  1.0000
  Te  Te9       1.0  0.71100  0.74700  0.52800  1.0000
  Te  Te10      1.0  0.79200  0.51000  0.63200  1.0000
  Te  Te11      1.0  0.21300  0.90900  0.64600  1.0000
  Te  Te12      1.0  0.02080  0.24300  0.71100  1.0000
  Te  Te13      1.0  0.75700  0.97900  0.78900  1.0000
  Te  Te14      1.0  0.09080  0.78700  0.85400  1.0000
  Te  Te15      1.0  0.49000  0.20800  0.86800  1.0000
  Te  Te16      1.0  0.25300  0.28900  0.97200  1.0000
