data_image0
_chemical_formula_structural       Al4Br12
_chemical_formula_sum              "Al4 Br12"
_cell_length_a       7.66121
_cell_length_b       7.27845
_cell_length_c       10.6326
_cell_angle_alpha    90
_cell_angle_beta     96.6563
_cell_angle_gamma    90

_space_group_name_H-M_alt    "P 1"
_space_group_IT_number       1

loop_
  _space_group_symop_operation_xyz
  'x, y, z'

loop_
  _atom_site_type_symbol
  _atom_site_label
  _atom_site_symmetry_multiplicity
  _atom_site_fract_x
  _atom_site_fract_y
  _atom_site_fract_z
  _atom_site_occupancy
  Al  Al1       1.0  0.19600  0.59000  0.05120  1.0000
  Al  Al2       1.0  0.80400  0.09040  0.44900  1.0000
  Al  Al3       1.0  0.19600  0.91000  0.55100  1.0000
  Al  Al4       1.0  0.80400  0.41000  0.94900  1.0000
  Br  Br1       1.0  0.25000  0.88900  0.01150  1.0000
  Br  Br2       1.0  0.91800  0.56700  0.14400  1.0000
  Br  Br3       1.0  0.39900  0.41500  0.16700  1.0000
  Br  Br4       1.0  0.60100  0.91500  0.33300  1.0000
  Br  Br5       1.0  0.08190  0.06710  0.35600  1.0000
  Br  Br6       1.0  0.75000  0.38900  0.48800  1.0000
  Br  Br7       1.0  0.25000  0.61100  0.51200  1.0000
  Br  Br8       1.0  0.91800  0.93300  0.64400  1.0000
  Br  Br9       1.0  0.39900  0.08460  0.66700  1.0000
  Br  Br10      1.0  0.60100  0.58500  0.83300  1.0000
  Br  Br11      1.0  0.08190  0.43300  0.85600  1.0000
  Br  Br12      1.0  0.75000  0.11100  0.98800  1.0000
