data_image0
_chemical_formula_structural       Ge4K4Pb2S12
_chemical_formula_sum              "Ge4 K4 Pb2 S12"
_cell_length_a       8.68376
_cell_length_b       8.68376
_cell_length_c       9.051
_cell_angle_alpha    90.0994
_cell_angle_beta     90.0994
_cell_angle_gamma    114.179

_space_group_name_H-M_alt    "P 1"
_space_group_IT_number       1

loop_
  _space_group_symop_operation_xyz
  'x, y, z'

loop_
  _atom_site_type_symbol
  _atom_site_label
  _atom_site_symmetry_multiplicity
  _atom_site_fract_x
  _atom_site_fract_y
  _atom_site_fract_z
  _atom_site_occupancy
  Ge  Ge1       1.0  0.34400  0.02400  0.05900  1.0000
  Ge  Ge2       1.0  0.97600  0.65600  0.44100  1.0000
  Ge  Ge3       1.0  0.02400  0.34400  0.55900  1.0000
  Ge  Ge4       1.0  0.65600  0.97600  0.94100  1.0000
  K   K1        1.0  0.73600  0.46200  0.01800  1.0000
  K   K2        1.0  0.53800  0.26400  0.48200  1.0000
  K   K3        1.0  0.46200  0.73600  0.51800  1.0000
  K   K4        1.0  0.26400  0.53800  0.98200  1.0000
  Pb  Pb1       1.0  0.98800  0.01160  0.25000  1.0000
  Pb  Pb2       1.0  0.01160  0.98800  0.75000  1.0000
  S   S1        1.0  0.08950  0.82200  0.03550  1.0000
  S   S2        1.0  0.51800  0.91600  0.16400  1.0000
  S   S3        1.0  0.34600  0.25000  0.16700  1.0000
  S   S4        1.0  0.75000  0.65400  0.33300  1.0000
  S   S5        1.0  0.08450  0.48200  0.33600  1.0000
  S   S6        1.0  0.17800  0.91100  0.46400  1.0000
  S   S7        1.0  0.82200  0.08950  0.53600  1.0000
  S   S8        1.0  0.91600  0.51800  0.66400  1.0000
  S   S9        1.0  0.25000  0.34600  0.66700  1.0000
  S   S10       1.0  0.65400  0.75000  0.83300  1.0000
  S   S11       1.0  0.48200  0.08450  0.83600  1.0000
  S   S12       1.0  0.91100  0.17800  0.96400  1.0000
