data_image0
_chemical_formula_structural       Ca4F2O12Ta4
_chemical_formula_sum              "Ca4 F2 O12 Ta4"
_cell_length_a       7.27715
_cell_length_b       7.27715
_cell_length_c       7.27715
_cell_angle_alpha    120
_cell_angle_beta     90
_cell_angle_gamma    120

_space_group_name_H-M_alt    "P 1"
_space_group_IT_number       1

loop_
  _space_group_symop_operation_xyz
  'x, y, z'

loop_
  _atom_site_type_symbol
  _atom_site_label
  _atom_site_symmetry_multiplicity
  _atom_site_fract_x
  _atom_site_fract_y
  _atom_site_fract_z
  _atom_site_occupancy
  Ca  Ca1       1.0  0.50000  0.00000  0.00000  1.0000
  Ca  Ca2       1.0  0.00000  0.50000  0.00000  1.0000
  Ca  Ca3       1.0  0.50000  0.50000  0.00000  1.0000
  Ca  Ca4       1.0  0.50000  0.00000  0.50000  1.0000
  F   F1        1.0  0.37500  0.75000  0.12500  1.0000
  F   F2        1.0  0.62500  0.25000  0.87500  1.0000
  O   O1        1.0  0.33700  0.25000  0.16300  1.0000
  O   O2        1.0  0.91300  0.25000  0.16300  1.0000
  O   O3        1.0  0.91300  0.82600  0.16300  1.0000
  O   O4        1.0  0.66300  0.32600  0.41300  1.0000
  O   O5        1.0  0.08690  0.75000  0.41300  1.0000
  O   O6        1.0  0.66300  0.75000  0.41300  1.0000
  O   O7        1.0  0.91300  0.25000  0.58700  1.0000
  O   O8        1.0  0.33700  0.25000  0.58700  1.0000
  O   O9        1.0  0.33700  0.67400  0.58700  1.0000
  O   O10       1.0  0.08690  0.17400  0.83700  1.0000
  O   O11       1.0  0.08690  0.75000  0.83700  1.0000
  O   O12       1.0  0.66300  0.75000  0.83700  1.0000
  Ta  Ta1       1.0  0.00000  0.00000  0.00000  1.0000
  Ta  Ta2       1.0  0.00000  0.00000  0.50000  1.0000
  Ta  Ta3       1.0  0.00000  0.50000  0.50000  1.0000
  Ta  Ta4       1.0  0.50000  0.50000  0.50000  1.0000
