data_image0
_chemical_formula_structural       Ge4K4O12Zn2
_chemical_formula_sum              "Ge4 K4 O12 Zn2"
_cell_length_a       5.79424
_cell_length_b       5.79424
_cell_length_c       10.9532
_cell_angle_alpha    90
_cell_angle_beta     90
_cell_angle_gamma    65.0192

_space_group_name_H-M_alt    "P 1"
_space_group_IT_number       1

loop_
  _space_group_symop_operation_xyz
  'x, y, z'

loop_
  _atom_site_type_symbol
  _atom_site_label
  _atom_site_symmetry_multiplicity
  _atom_site_fract_x
  _atom_site_fract_y
  _atom_site_fract_z
  _atom_site_occupancy
  Ge  Ge1       1.0  0.86100  0.17600  0.11400  1.0000
  Ge  Ge2       1.0  0.82400  0.13900  0.38600  1.0000
  Ge  Ge3       1.0  0.13900  0.82400  0.61400  1.0000
  Ge  Ge4       1.0  0.17600  0.86100  0.88600  1.0000
  K   K1        1.0  0.55100  0.79800  0.17800  1.0000
  K   K2        1.0  0.20200  0.44900  0.32200  1.0000
  K   K3        1.0  0.44900  0.20200  0.67800  1.0000
  K   K4        1.0  0.79800  0.55100  0.82200  1.0000
  O   O1        1.0  0.93600  0.93600  0.00000  1.0000
  O   O2        1.0  0.97800  0.40200  0.08370  1.0000
  O   O3        1.0  0.53100  0.30500  0.13500  1.0000
  O   O4        1.0  0.00829  0.99200  0.25000  1.0000
  O   O5        1.0  0.69500  0.46900  0.36500  1.0000
  O   O6        1.0  0.59800  0.02160  0.41600  1.0000
  O   O7        1.0  0.06420  0.06420  0.50000  1.0000
  O   O8        1.0  0.02160  0.59800  0.58400  1.0000
  O   O9        1.0  0.46900  0.69500  0.63500  1.0000
  O   O10       1.0  0.99200  0.00829  0.75000  1.0000
  O   O11       1.0  0.30500  0.53100  0.86500  1.0000
  O   O12       1.0  0.40200  0.97800  0.91600  1.0000
  Zn  Zn1       1.0  0.31000  0.31000  0.00000  1.0000
  Zn  Zn2       1.0  0.69000  0.69000  0.50000  1.0000
