data_image0
_chemical_formula_structural       Pt4Ti6
_chemical_formula_sum              "Pt4 Ti6"
_cell_length_a       6.47908
_cell_length_b       6.47908
_cell_length_c       6.00555
_cell_angle_alpha    122.644
_cell_angle_beta     57.3555
_cell_angle_gamma    120

_space_group_name_H-M_alt    "P 1"
_space_group_IT_number       1

loop_
  _space_group_symop_operation_xyz
  'x, y, z'

loop_
  _atom_site_type_symbol
  _atom_site_label
  _atom_site_symmetry_multiplicity
  _atom_site_fract_x
  _atom_site_fract_y
  _atom_site_fract_z
  _atom_site_occupancy
  Pt  Pt1       1.0  0.59600  0.40400  0.21100  1.0000
  Pt  Pt2       1.0  0.90400  0.09650  0.28900  1.0000
  Pt  Pt3       1.0  0.09650  0.90400  0.71100  1.0000
  Pt  Pt4       1.0  0.40400  0.59600  0.78900  1.0000
  Ti  Ti1       1.0  0.50200  0.75000  0.25000  1.0000
  Ti  Ti2       1.0  0.99800  0.49800  0.25000  1.0000
  Ti  Ti3       1.0  0.25000  0.00239  0.25000  1.0000
  Ti  Ti4       1.0  0.00239  0.50200  0.75000  1.0000
  Ti  Ti5       1.0  0.49800  0.25000  0.75000  1.0000
  Ti  Ti6       1.0  0.75000  0.99800  0.75000  1.0000
