data_image0
_chemical_formula_structural       Bi2F18Xe2
_chemical_formula_sum              "Bi2 F18 Xe2"
_cell_length_a       5.34279
_cell_length_b       7.31162
_cell_length_c       8.0369
_cell_angle_alpha    98.603
_cell_angle_beta     108.777
_cell_angle_gamma    93.6414

_space_group_name_H-M_alt    "P 1"
_space_group_IT_number       1

loop_
  _space_group_symop_operation_xyz
  'x, y, z'

loop_
  _atom_site_type_symbol
  _atom_site_label
  _atom_site_symmetry_multiplicity
  _atom_site_fract_x
  _atom_site_fract_y
  _atom_site_fract_z
  _atom_site_occupancy
  Bi  Bi1       1.0  0.04940  0.34500  0.26100  1.0000
  Bi  Bi2       1.0  0.95100  0.65500  0.73900  1.0000
  F   F1        1.0  0.12800  0.78800  0.02090  1.0000
  F   F2        1.0  0.68800  0.88000  0.03860  1.0000
  F   F3        1.0  0.83800  0.54800  0.16900  1.0000
  F   F4        1.0  0.33300  0.45100  0.17800  1.0000
  F   F5        1.0  0.21000  0.10600  0.27700  1.0000
  F   F6        1.0  0.72800  0.21200  0.28700  1.0000
  F   F7        1.0  0.88000  0.86600  0.40100  1.0000
  F   F8        1.0  0.36000  0.78800  0.40800  1.0000
  F   F9        1.0  0.75400  0.53900  0.48400  1.0000
  F   F10       1.0  0.24600  0.46100  0.51600  1.0000
  F   F11       1.0  0.64000  0.21200  0.59200  1.0000
  F   F12       1.0  0.12000  0.13400  0.59900  1.0000
  F   F13       1.0  0.27200  0.78800  0.71300  1.0000
  F   F14       1.0  0.79000  0.89400  0.72300  1.0000
  F   F15       1.0  0.66700  0.54900  0.82200  1.0000
  F   F16       1.0  0.16200  0.45200  0.83100  1.0000
  F   F17       1.0  0.31200  0.12000  0.96100  1.0000
  F   F18       1.0  0.87200  0.21200  0.97900  1.0000
  Xe  Xe1       1.0  0.52200  0.83000  0.22100  1.0000
  Xe  Xe2       1.0  0.47800  0.17000  0.77900  1.0000
