data_image0
_chemical_formula_structural       C4F12O6
_chemical_formula_sum              "C4 F12 O6"
_cell_length_a       4.41066
_cell_length_b       6.91604
_cell_length_c       7.19875
_cell_angle_alpha    79.1275
_cell_angle_beta     85.7263
_cell_angle_gamma    85.511

_space_group_name_H-M_alt    "P 1"
_space_group_IT_number       1

loop_
  _space_group_symop_operation_xyz
  'x, y, z'

loop_
  _atom_site_type_symbol
  _atom_site_label
  _atom_site_symmetry_multiplicity
  _atom_site_fract_x
  _atom_site_fract_y
  _atom_site_fract_z
  _atom_site_occupancy
  C   C1        1.0  0.12800  0.77700  0.15700  1.0000
  C   C2        1.0  0.56200  0.25800  0.36200  1.0000
  C   C3        1.0  0.43800  0.74200  0.63800  1.0000
  C   C4        1.0  0.87200  0.22300  0.84300  1.0000
  F   F1        1.0  0.01250  0.21100  0.00358  1.0000
  F   F2        1.0  0.41900  0.82000  0.10900  1.0000
  F   F3        1.0  0.99000  0.90500  0.25800  1.0000
  F   F4        1.0  0.45000  0.09950  0.31500  1.0000
  F   F5        1.0  0.85400  0.21800  0.40000  1.0000
  F   F6        1.0  0.60000  0.69900  0.48400  1.0000
  F   F7        1.0  0.40000  0.30100  0.51600  1.0000
  F   F8        1.0  0.14600  0.78200  0.60000  1.0000
  F   F9        1.0  0.55000  0.90100  0.68500  1.0000
  F   F10       1.0  0.00953  0.09460  0.74200  1.0000
  F   F11       1.0  0.58100  0.18000  0.89100  1.0000
  F   F12       1.0  0.98800  0.78900  0.99600  1.0000
  O   O1        1.0  0.24500  0.45300  0.16400  1.0000
  O   O2        1.0  0.55900  0.41700  0.21200  1.0000
  O   O3        1.0  0.10500  0.59400  0.27500  1.0000
  O   O4        1.0  0.89500  0.40600  0.72500  1.0000
  O   O5        1.0  0.44100  0.58300  0.78800  1.0000
  O   O6        1.0  0.75500  0.54700  0.83600  1.0000
