data_image0
_chemical_formula_structural       Li4O14W4
_chemical_formula_sum              "Li4 O14 W4"
_cell_length_a       8.22819
_cell_length_b       7.03171
_cell_length_c       5.03696
_cell_angle_alpha    85.5251
_cell_angle_beta     102.087
_cell_angle_gamma    110.536

_space_group_name_H-M_alt    "P 1"
_space_group_IT_number       1

loop_
  _space_group_symop_operation_xyz
  'x, y, z'

loop_
  _atom_site_type_symbol
  _atom_site_label
  _atom_site_symmetry_multiplicity
  _atom_site_fract_x
  _atom_site_fract_y
  _atom_site_fract_z
  _atom_site_occupancy
  Li  Li1       1.0  0.72300  0.99500  0.14100  1.0000
  Li  Li2       1.0  0.10000  0.74000  0.30100  1.0000
  Li  Li3       1.0  0.90000  0.26000  0.69900  1.0000
  Li  Li4       1.0  0.27700  0.00477  0.85900  1.0000
  O   O1        1.0  0.87400  0.60300  0.04820  1.0000
  O   O2        1.0  0.62300  0.20400  0.06560  1.0000
  O   O3        1.0  0.17900  0.02010  0.17500  1.0000
  O   O4        1.0  0.42200  0.41500  0.18100  1.0000
  O   O5        1.0  0.70000  0.75000  0.35000  1.0000
  O   O6        1.0  0.95500  0.18300  0.35900  1.0000
  O   O7        1.0  0.23400  0.56700  0.46000  1.0000
  O   O8        1.0  0.76600  0.43300  0.54000  1.0000
  O   O9        1.0  0.04500  0.81700  0.64100  1.0000
  O   O10       1.0  0.30000  0.25000  0.65000  1.0000
  O   O11       1.0  0.57800  0.58500  0.81900  1.0000
  O   O12       1.0  0.82100  0.98000  0.82500  1.0000
  O   O13       1.0  0.37700  0.79600  0.93400  1.0000
  O   O14       1.0  0.12600  0.39700  0.95200  1.0000
  W   W1        1.0  0.66500  0.44800  0.18400  1.0000
  W   W2        1.0  0.17400  0.24600  0.30200  1.0000
  W   W3        1.0  0.82600  0.75400  0.69800  1.0000
  W   W4        1.0  0.33500  0.55200  0.81600  1.0000
