data_image0
_chemical_formula_structural       In4Ni6
_chemical_formula_sum              "In4 Ni6"
_cell_length_a       6.37614
_cell_length_b       6.37614
_cell_length_c       6.00922
_cell_angle_alpha    122.041
_cell_angle_beta     57.9588
_cell_angle_gamma    120

_space_group_name_H-M_alt    "P 1"
_space_group_IT_number       1

loop_
  _space_group_symop_operation_xyz
  'x, y, z'

loop_
  _atom_site_type_symbol
  _atom_site_label
  _atom_site_symmetry_multiplicity
  _atom_site_fract_x
  _atom_site_fract_y
  _atom_site_fract_z
  _atom_site_occupancy
  In  In1       1.0  0.59900  0.40100  0.20200  1.0000
  In  In2       1.0  0.90100  0.09930  0.29800  1.0000
  In  In3       1.0  0.09930  0.90100  0.70200  1.0000
  In  In4       1.0  0.40100  0.59900  0.79800  1.0000
  Ni  Ni1       1.0  0.47800  0.75000  0.25000  1.0000
  Ni  Ni2       1.0  0.02210  0.52200  0.25000  1.0000
  Ni  Ni3       1.0  0.25000  0.97800  0.25000  1.0000
  Ni  Ni4       1.0  0.97800  0.47800  0.75000  1.0000
  Ni  Ni5       1.0  0.52200  0.25000  0.75000  1.0000
  Ni  Ni6       1.0  0.75000  0.02210  0.75000  1.0000
