data_image0
_chemical_formula_structural       Mn4O12Sr4
_chemical_formula_sum              "Mn4 O12 Sr4"
_cell_length_a       5.3785
_cell_length_b       5.37851
_cell_length_c       9.06944
_cell_angle_alpha    89.9999
_cell_angle_beta     90.0003
_cell_angle_gamma    120.006

_space_group_name_H-M_alt    "P 1"
_space_group_IT_number       1

loop_
  _space_group_symop_operation_xyz
  'x, y, z'

loop_
  _atom_site_type_symbol
  _atom_site_label
  _atom_site_symmetry_multiplicity
  _atom_site_fract_x
  _atom_site_fract_y
  _atom_site_fract_z
  _atom_site_occupancy
  Mn  Mn1       1.0  0.33300  0.66700  0.61400  1.0000
  Mn  Mn2       1.0  0.66700  0.33300  0.11400  1.0000
  Mn  Mn3       1.0  0.66700  0.33300  0.38600  1.0000
  Mn  Mn4       1.0  0.33300  0.66700  0.88600  1.0000
  O   O1        1.0  0.17700  0.82300  0.75000  1.0000
  O   O2        1.0  0.82300  0.17700  0.25000  1.0000
  O   O3        1.0  0.17700  0.35400  0.75000  1.0000
  O   O4        1.0  0.64600  0.82300  0.75000  1.0000
  O   O5        1.0  0.35400  0.17700  0.25000  1.0000
  O   O6        1.0  0.82300  0.64600  0.25000  1.0000
  O   O7        1.0  0.50000  1.00000  1.00000  1.0000
  O   O8        1.0  0.50000  0.00000  0.50000  1.0000
  O   O9        1.0  0.00000  0.50000  0.00000  1.0000
  O   O10       1.0  0.50000  0.50000  0.00000  1.0000
  O   O11       1.0  0.50000  0.50000  0.50000  1.0000
  O   O12       1.0  0.00000  0.50000  0.50000  1.0000
  Sr  Sr1       1.0  0.33300  0.66700  0.25000  1.0000
  Sr  Sr2       1.0  0.66700  0.33300  0.75000  1.0000
  Sr  Sr3       1.0  0.00000  0.00000  1.00000  1.0000
  Sr  Sr4       1.0  0.00000  0.00000  0.50000  1.0000
