data_image0
_chemical_formula_structural       Ni4Pb6
_chemical_formula_sum              "Ni4 Pb6"
_cell_length_a       6.59805
_cell_length_b       6.59805
_cell_length_c       7.00572
_cell_angle_alpha    118.093
_cell_angle_beta     61.907
_cell_angle_gamma    120

_space_group_name_H-M_alt    "P 1"
_space_group_IT_number       1

loop_
  _space_group_symop_operation_xyz
  'x, y, z'

loop_
  _atom_site_type_symbol
  _atom_site_label
  _atom_site_symmetry_multiplicity
  _atom_site_fract_x
  _atom_site_fract_y
  _atom_site_fract_z
  _atom_site_occupancy
  Ni  Ni1       1.0  0.32500  0.67500  0.02590  1.0000
  Ni  Ni2       1.0  0.17500  0.82500  0.47400  1.0000
  Ni  Ni3       1.0  0.82500  0.17500  0.52600  1.0000
  Ni  Ni4       1.0  0.67500  0.32500  0.97400  1.0000
  Pb  Pb1       1.0  0.60600  0.75000  0.25000  1.0000
  Pb  Pb2       1.0  0.89400  0.39400  0.25000  1.0000
  Pb  Pb3       1.0  0.25000  0.10600  0.25000  1.0000
  Pb  Pb4       1.0  0.75000  0.89400  0.75000  1.0000
  Pb  Pb5       1.0  0.10600  0.60600  0.75000  1.0000
  Pb  Pb6       1.0  0.39400  0.25000  0.75000  1.0000
