data_image0
_chemical_formula_structural       B6O13Zn4
_chemical_formula_sum              "B6 O13 Zn4"
_cell_length_a       6.47313
_cell_length_b       6.47313
_cell_length_c       6.47313
_cell_angle_alpha    109.471
_cell_angle_beta     109.471
_cell_angle_gamma    109.471

_space_group_name_H-M_alt    "P 1"
_space_group_IT_number       1

loop_
  _space_group_symop_operation_xyz
  'x, y, z'

loop_
  _atom_site_type_symbol
  _atom_site_label
  _atom_site_symmetry_multiplicity
  _atom_site_fract_x
  _atom_site_fract_y
  _atom_site_fract_z
  _atom_site_occupancy
  B   B1        1.0  0.75000  0.50000  0.25000  1.0000
  B   B2        1.0  0.50000  0.75000  0.25000  1.0000
  B   B3        1.0  0.75000  0.25000  0.50000  1.0000
  B   B4        1.0  0.25000  0.75000  0.50000  1.0000
  B   B5        1.0  0.50000  0.25000  0.75000  1.0000
  B   B6        1.0  0.25000  0.50000  0.75000  1.0000
  O   O1        1.0  0.00000  0.00000  0.00000  1.0000
  O   O2        1.0  0.55600  0.27500  0.00000  1.0000
  O   O3        1.0  0.27500  0.55600  0.00000  1.0000
  O   O4        1.0  0.55600  0.00000  0.27500  1.0000
  O   O5        1.0  0.00000  0.55600  0.27500  1.0000
  O   O6        1.0  0.72500  0.72500  0.28100  1.0000
  O   O7        1.0  0.71900  0.44400  0.44400  1.0000
  O   O8        1.0  0.44400  0.71900  0.44400  1.0000
  O   O9        1.0  0.27500  0.00000  0.55600  1.0000
  O   O10       1.0  0.00000  0.27500  0.55600  1.0000
  O   O11       1.0  0.44400  0.44400  0.71900  1.0000
  O   O12       1.0  0.72500  0.28100  0.72500  1.0000
  O   O13       1.0  0.28100  0.72500  0.72500  1.0000
  Zn  Zn1       1.0  0.30500  0.00000  0.00000  1.0000
  Zn  Zn2       1.0  0.00000  0.30500  0.00000  1.0000
  Zn  Zn3       1.0  0.00000  0.00000  0.30500  1.0000
  Zn  Zn4       1.0  0.69500  0.69500  0.69500  1.0000
