data_image0
_chemical_formula_structural       CaCuK2N6O12
_chemical_formula_sum              "Ca1 Cu1 K2 N6 O12"
_cell_length_a       7.05583
_cell_length_b       7.05583
_cell_length_c       7.16286
_cell_angle_alpha    119.542
_cell_angle_beta     119.542
_cell_angle_gamma    89.9373

_space_group_name_H-M_alt    "P 1"
_space_group_IT_number       1

loop_
  _space_group_symop_operation_xyz
  'x, y, z'

loop_
  _atom_site_type_symbol
  _atom_site_label
  _atom_site_symmetry_multiplicity
  _atom_site_fract_x
  _atom_site_fract_y
  _atom_site_fract_z
  _atom_site_occupancy
  Ca  Ca1       1.0  0.50000  0.50000  0.00000  1.0000
  Cu  Cu1       1.0  0.00000  0.00000  0.00000  1.0000
  K   K1        1.0  0.75000  0.25000  0.50000  1.0000
  K   K2        1.0  0.25000  0.75000  0.50000  1.0000
  N   N1        1.0  0.79900  0.20100  0.00000  1.0000
  N   N2        1.0  0.20100  0.20100  0.00000  1.0000
  N   N3        1.0  0.79900  0.79900  0.00000  1.0000
  N   N4        1.0  0.20100  0.79900  0.00000  1.0000
  N   N5        1.0  0.21500  0.21500  0.42900  1.0000
  N   N6        1.0  0.78500  0.78500  0.57100  1.0000
  O   O1        1.0  0.62600  0.15800  0.00000  1.0000
  O   O2        1.0  0.84200  0.37400  0.00000  1.0000
  O   O3        1.0  0.15800  0.62600  0.00000  1.0000
  O   O4        1.0  0.37400  0.84200  0.00000  1.0000
  O   O5        1.0  0.37100  0.37100  0.20900  1.0000
  O   O6        1.0  0.83900  0.83900  0.20900  1.0000
  O   O7        1.0  0.82700  0.61200  0.43900  1.0000
  O   O8        1.0  0.61200  0.82700  0.43900  1.0000
  O   O9        1.0  0.38800  0.17300  0.56100  1.0000
  O   O10       1.0  0.17300  0.38800  0.56100  1.0000
  O   O11       1.0  0.16100  0.16100  0.79100  1.0000
  O   O12       1.0  0.62900  0.62900  0.79100  1.0000
