data_image0
_chemical_formula_structural       Fe4Pa6
_chemical_formula_sum              "Fe4 Pa6"
_cell_length_a       6.39807
_cell_length_b       6.39807
_cell_length_c       6.74099
_cell_angle_alpha    118.331
_cell_angle_beta     61.669
_cell_angle_gamma    120

_space_group_name_H-M_alt    "P 1"
_space_group_IT_number       1

loop_
  _space_group_symop_operation_xyz
  'x, y, z'

loop_
  _atom_site_type_symbol
  _atom_site_label
  _atom_site_symmetry_multiplicity
  _atom_site_fract_x
  _atom_site_fract_y
  _atom_site_fract_z
  _atom_site_occupancy
  Fe  Fe1       1.0  0.32600  0.67400  0.02250  1.0000
  Fe  Fe2       1.0  0.17400  0.82600  0.47700  1.0000
  Fe  Fe3       1.0  0.82600  0.17400  0.52300  1.0000
  Fe  Fe4       1.0  0.67400  0.32600  0.97700  1.0000
  Pa  Pa1       1.0  0.65200  0.75000  0.25000  1.0000
  Pa  Pa2       1.0  0.84800  0.34800  0.25000  1.0000
  Pa  Pa3       1.0  0.25000  0.15200  0.25000  1.0000
  Pa  Pa4       1.0  0.75000  0.84800  0.75000  1.0000
  Pa  Pa5       1.0  0.15200  0.65200  0.75000  1.0000
  Pa  Pa6       1.0  0.34800  0.25000  0.75000  1.0000
