data_image0
_chemical_formula_structural       Cr8Nb4Si10
_chemical_formula_sum              "Cr8 Nb4 Si10"
_cell_length_a       4.85011
_cell_length_b       7.49948
_cell_length_c       9.06661
_cell_angle_alpha    114.43
_cell_angle_beta     105.514
_cell_angle_gamma    90

_space_group_name_H-M_alt    "P 1"
_space_group_IT_number       1

loop_
  _space_group_symop_operation_xyz
  'x, y, z'

loop_
  _atom_site_type_symbol
  _atom_site_label
  _atom_site_symmetry_multiplicity
  _atom_site_fract_x
  _atom_site_fract_y
  _atom_site_fract_z
  _atom_site_occupancy
  Cr  Cr1       1.0  0.56100  0.31600  0.12200  1.0000
  Cr  Cr2       1.0  0.06080  0.80600  0.12200  1.0000
  Cr  Cr3       1.0  0.44200  0.69200  0.38500  1.0000
  Cr  Cr4       1.0  0.94200  0.69200  0.38500  1.0000
  Cr  Cr5       1.0  0.05770  0.30800  0.61500  1.0000
  Cr  Cr6       1.0  0.55800  0.30800  0.61500  1.0000
  Cr  Cr7       1.0  0.93900  0.19400  0.87800  1.0000
  Cr  Cr8       1.0  0.43900  0.68400  0.87800  1.0000
  Nb  Nb1       1.0  0.64100  0.02120  0.28300  1.0000
  Nb  Nb2       1.0  0.14100  0.26100  0.28300  1.0000
  Nb  Nb3       1.0  0.85900  0.73900  0.71700  1.0000
  Nb  Nb4       1.0  0.35900  0.97900  0.71700  1.0000
  Si  Si1       1.0  0.25000  0.00000  0.00000  1.0000
  Si  Si2       1.0  0.75000  0.00000  0.00000  1.0000
  Si  Si3       1.0  0.06480  0.48800  0.13000  1.0000
  Si  Si4       1.0  0.56500  0.64200  0.13000  1.0000
  Si  Si5       1.0  0.21200  0.00373  0.42300  1.0000
  Si  Si6       1.0  0.71200  0.42000  0.42300  1.0000
  Si  Si7       1.0  0.28800  0.58000  0.57700  1.0000
  Si  Si8       1.0  0.78800  0.99600  0.57700  1.0000
  Si  Si9       1.0  0.43500  0.35800  0.87000  1.0000
  Si  Si10      1.0  0.93500  0.51200  0.87000  1.0000
