data_image0
_chemical_formula_structural       B6O12SeZn4
_chemical_formula_sum              "B6 O12 Se1 Zn4"
_cell_length_a       6.65358
_cell_length_b       6.65358
_cell_length_c       6.65358
_cell_angle_alpha    109.471
_cell_angle_beta     109.471
_cell_angle_gamma    109.471

_space_group_name_H-M_alt    "P 1"
_space_group_IT_number       1

loop_
  _space_group_symop_operation_xyz
  'x, y, z'

loop_
  _atom_site_type_symbol
  _atom_site_label
  _atom_site_symmetry_multiplicity
  _atom_site_fract_x
  _atom_site_fract_y
  _atom_site_fract_z
  _atom_site_occupancy
  B   B1        1.0  0.75000  0.50000  0.25000  1.0000
  B   B2        1.0  0.50000  0.75000  0.25000  1.0000
  B   B3        1.0  0.75000  0.25000  0.50000  1.0000
  B   B4        1.0  0.25000  0.75000  0.50000  1.0000
  B   B5        1.0  0.50000  0.25000  0.75000  1.0000
  B   B6        1.0  0.25000  0.50000  0.75000  1.0000
  O   O1        1.0  0.57300  0.28400  0.00000  1.0000
  O   O2        1.0  0.28400  0.57300  0.00000  1.0000
  O   O3        1.0  0.57300  0.00000  0.28400  1.0000
  O   O4        1.0  0.00000  0.57300  0.28400  1.0000
  O   O5        1.0  0.71600  0.71600  0.28900  1.0000
  O   O6        1.0  0.71100  0.42700  0.42700  1.0000
  O   O7        1.0  0.42700  0.71100  0.42700  1.0000
  O   O8        1.0  0.28400  0.00000  0.57300  1.0000
  O   O9        1.0  0.00000  0.28400  0.57300  1.0000
  O   O10       1.0  0.42700  0.42700  0.71100  1.0000
  O   O11       1.0  0.71600  0.28900  0.71600  1.0000
  O   O12       1.0  0.28900  0.71600  0.71600  1.0000
  Se  Se1       1.0  0.00000  0.00000  0.00000  1.0000
  Zn  Zn1       1.0  0.35300  0.00000  0.00000  1.0000
  Zn  Zn2       1.0  0.00000  0.35300  0.00000  1.0000
  Zn  Zn3       1.0  0.00000  0.00000  0.35300  1.0000
  Zn  Zn4       1.0  0.64700  0.64700  0.64700  1.0000
