data_image0
_chemical_formula_structural       Cu4Mg6
_chemical_formula_sum              "Cu4 Mg6"
_cell_length_a       5.92341
_cell_length_b       5.92341
_cell_length_c       6.98804
_cell_angle_alpha    115.076
_cell_angle_beta     64.9237
_cell_angle_gamma    120

_space_group_name_H-M_alt    "P 1"
_space_group_IT_number       1

loop_
  _space_group_symop_operation_xyz
  'x, y, z'

loop_
  _atom_site_type_symbol
  _atom_site_label
  _atom_site_symmetry_multiplicity
  _atom_site_fract_x
  _atom_site_fract_y
  _atom_site_fract_z
  _atom_site_occupancy
  Cu  Cu1       1.0  0.31400  0.68600  0.05820  1.0000
  Cu  Cu2       1.0  0.18600  0.81400  0.44200  1.0000
  Cu  Cu3       1.0  0.81400  0.18600  0.55800  1.0000
  Cu  Cu4       1.0  0.68600  0.31400  0.94200  1.0000
  Mg  Mg1       1.0  0.25000  0.16600  0.25000  1.0000
  Mg  Mg2       1.0  0.83400  0.33400  0.25000  1.0000
  Mg  Mg3       1.0  0.66600  0.75000  0.25000  1.0000
  Mg  Mg4       1.0  0.33400  0.25000  0.75000  1.0000
  Mg  Mg5       1.0  0.16600  0.66600  0.75000  1.0000
  Mg  Mg6       1.0  0.75000  0.83400  0.75000  1.0000
