data_image0
_chemical_formula_structural       Ag2Hg7I6P8
_chemical_formula_sum              "Ag2 Hg7 I6 P8"
_cell_length_a       8.54755
_cell_length_b       8.73786
_cell_length_c       8.73786
_cell_angle_alpha    79.7649
_cell_angle_beta     99.711
_cell_angle_gamma    99.711

_space_group_name_H-M_alt    "P 1"
_space_group_IT_number       1

loop_
  _space_group_symop_operation_xyz
  'x, y, z'

loop_
  _atom_site_type_symbol
  _atom_site_label
  _atom_site_symmetry_multiplicity
  _atom_site_fract_x
  _atom_site_fract_y
  _atom_site_fract_z
  _atom_site_occupancy
  Ag  Ag1       1.0  0.50000  0.50000  0.00000  1.0000
  Ag  Ag2       1.0  0.50000  0.00000  0.50000  1.0000
  Hg  Hg1       1.0  0.00000  0.00000  0.00000  1.0000
  Hg  Hg2       1.0  0.23400  0.63600  0.27100  1.0000
  Hg  Hg3       1.0  0.86600  0.27200  0.27200  1.0000
  Hg  Hg4       1.0  0.76600  0.72900  0.36400  1.0000
  Hg  Hg5       1.0  0.23400  0.27100  0.63600  1.0000
  Hg  Hg6       1.0  0.13400  0.72800  0.72800  1.0000
  Hg  Hg7       1.0  0.76600  0.36400  0.72900  1.0000
  I   I1        1.0  0.84900  0.64000  0.03780  1.0000
  I   I2        1.0  0.53600  0.35300  0.35300  1.0000
  I   I3        1.0  0.15100  0.96200  0.36000  1.0000
  I   I4        1.0  0.84900  0.03780  0.64000  1.0000
  I   I5        1.0  0.46400  0.64700  0.64700  1.0000
  I   I6        1.0  0.15100  0.36000  0.96200  1.0000
  P   P1        1.0  0.42100  0.76300  0.07900  1.0000
  P   P2        1.0  0.74100  0.08550  0.08550  1.0000
  P   P3        1.0  0.57900  0.92100  0.23700  1.0000
  P   P4        1.0  0.06520  0.43900  0.43900  1.0000
  P   P5        1.0  0.93500  0.56100  0.56100  1.0000
  P   P6        1.0  0.42100  0.07900  0.76300  1.0000
  P   P7        1.0  0.25900  0.91400  0.91400  1.0000
  P   P8        1.0  0.57900  0.23700  0.92100  1.0000
