data_image0
_chemical_formula_structural       N8O6P6Sr3
_chemical_formula_sum              "N8 O6 P6 Sr3"
_cell_length_a       7.28311
_cell_length_b       7.2831
_cell_length_c       5.99951
_cell_angle_alpha    90
_cell_angle_beta     90
_cell_angle_gamma    120

_space_group_name_H-M_alt    "P 1"
_space_group_IT_number       1

loop_
  _space_group_symop_operation_xyz
  'x, y, z'

loop_
  _atom_site_type_symbol
  _atom_site_label
  _atom_site_symmetry_multiplicity
  _atom_site_fract_x
  _atom_site_fract_y
  _atom_site_fract_z
  _atom_site_occupancy
  N   N1        1.0  0.33300  0.66700  0.08270  1.0000
  N   N2        1.0  0.69800  0.02890  0.10900  1.0000
  N   N3        1.0  0.33100  0.30200  0.10900  1.0000
  N   N4        1.0  0.97100  0.66900  0.10900  1.0000
  N   N5        1.0  0.30200  0.97100  0.89100  1.0000
  N   N6        1.0  0.02890  0.33100  0.89100  1.0000
  N   N7        1.0  0.66900  0.69800  0.89100  1.0000
  N   N8        1.0  0.66700  0.33300  0.91700  1.0000
  O   O1        1.0  0.63800  0.70800  0.34200  1.0000
  O   O2        1.0  0.29200  0.93000  0.34200  1.0000
  O   O3        1.0  0.06980  0.36200  0.34200  1.0000
  O   O4        1.0  0.93000  0.63800  0.65800  1.0000
  O   O5        1.0  0.70800  0.06980  0.65800  1.0000
  O   O6        1.0  0.36200  0.29200  0.65800  1.0000
  P   P1        1.0  0.60300  0.77800  0.11200  1.0000
  P   P2        1.0  0.22200  0.82500  0.11200  1.0000
  P   P3        1.0  0.17500  0.39700  0.11200  1.0000
  P   P4        1.0  0.82500  0.60300  0.88800  1.0000
  P   P5        1.0  0.77800  0.17500  0.88800  1.0000
  P   P6        1.0  0.39700  0.22200  0.88800  1.0000
  Sr  Sr1       1.0  0.66700  0.33300  0.38300  1.0000
  Sr  Sr2       1.0  0.00000  0.00000  0.50000  1.0000
  Sr  Sr3       1.0  0.33300  0.66700  0.61700  1.0000
