data_image0
_chemical_formula_structural       Bi8K2Se13
_chemical_formula_sum              "Bi8 K2 Se13"
_cell_length_a       13.9809
_cell_length_b       12.3367
_cell_length_c       4.21535
_cell_angle_alpha    89.9986
_cell_angle_beta     98.6331
_cell_angle_gamma    87.7796

_space_group_name_H-M_alt    "P 1"
_space_group_IT_number       1

loop_
  _space_group_symop_operation_xyz
  'x, y, z'

loop_
  _atom_site_type_symbol
  _atom_site_label
  _atom_site_symmetry_multiplicity
  _atom_site_fract_x
  _atom_site_fract_y
  _atom_site_fract_z
  _atom_site_occupancy
  Bi  Bi1       1.0  0.15100  0.29600  0.07500  1.0000
  Bi  Bi2       1.0  0.37700  0.54600  0.18900  1.0000
  Bi  Bi3       1.0  0.56400  0.86900  0.28200  1.0000
  Bi  Bi4       1.0  0.88300  0.38100  0.44100  1.0000
  Bi  Bi5       1.0  0.11700  0.61900  0.55900  1.0000
  Bi  Bi6       1.0  0.43600  0.13100  0.71800  1.0000
  Bi  Bi7       1.0  0.62300  0.45400  0.81100  1.0000
  Bi  Bi8       1.0  0.84900  0.70400  0.92500  1.0000
  K   K1        1.0  0.82600  0.05130  0.41300  1.0000
  K   K2        1.0  0.17400  0.94900  0.58700  1.0000
  Se  Se1       1.0  0.00000  0.50000  0.00000  1.0000
  Se  Se2       1.0  0.22000  0.72600  0.11100  1.0000
  Se  Se3       1.0  0.28100  0.11800  0.14100  1.0000
  Se  Se4       1.0  0.51100  0.35800  0.25500  1.0000
  Se  Se5       1.0  0.58200  0.08930  0.29100  1.0000
  Se  Se6       1.0  0.74100  0.57000  0.37100  1.0000
  Se  Se7       1.0  0.96200  0.79900  0.48200  1.0000
  Se  Se8       1.0  0.03800  0.20100  0.51800  1.0000
  Se  Se9       1.0  0.25900  0.43000  0.62900  1.0000
  Se  Se10      1.0  0.41800  0.91100  0.70900  1.0000
  Se  Se11      1.0  0.48900  0.64200  0.74500  1.0000
  Se  Se12      1.0  0.71900  0.88200  0.85900  1.0000
  Se  Se13      1.0  0.78000  0.27400  0.88900  1.0000
