data_image0
_chemical_formula_structural       Ba2Cr7O14
_chemical_formula_sum              "Ba2 Cr7 O14"
_cell_length_a       5.79197
_cell_length_b       5.79197
_cell_length_c       9.75009
_cell_angle_alpha    107.279
_cell_angle_beta     72.7212
_cell_angle_gamma    120

_space_group_name_H-M_alt    "P 1"
_space_group_IT_number       1

loop_
  _space_group_symop_operation_xyz
  'x, y, z'

loop_
  _atom_site_type_symbol
  _atom_site_label
  _atom_site_symmetry_multiplicity
  _atom_site_fract_x
  _atom_site_fract_y
  _atom_site_fract_z
  _atom_site_occupancy
  Ba  Ba1       1.0  0.29000  0.71000  0.12900  1.0000
  Ba  Ba2       1.0  0.71000  0.29000  0.87100  1.0000
  Cr  Cr1       1.0  0.94000  0.06010  0.18000  1.0000
  Cr  Cr2       1.0  0.57400  0.42600  0.27900  1.0000
  Cr  Cr3       1.0  0.00000  0.00000  0.50000  1.0000
  Cr  Cr4       1.0  0.50000  0.00000  0.50000  1.0000
  Cr  Cr5       1.0  0.00000  0.50000  0.50000  1.0000
  Cr  Cr6       1.0  0.42600  0.57400  0.72100  1.0000
  Cr  Cr7       1.0  0.06010  0.94000  0.82000  1.0000
  O   O1        1.0  0.29900  0.21900  0.13900  1.0000
  O   O2        1.0  0.78100  0.21900  0.13900  1.0000
  O   O3        1.0  0.78100  0.70100  0.13900  1.0000
  O   O4        1.0  0.36600  0.11300  0.38200  1.0000
  O   O5        1.0  0.36600  0.63400  0.38200  1.0000
  O   O6        1.0  0.88700  0.63400  0.38200  1.0000
  O   O7        1.0  0.87200  0.12800  0.38500  1.0000
  O   O8        1.0  0.12800  0.87200  0.61500  1.0000
  O   O9        1.0  0.11300  0.36600  0.61800  1.0000
  O   O10       1.0  0.63400  0.36600  0.61800  1.0000
  O   O11       1.0  0.63400  0.88700  0.61800  1.0000
  O   O12       1.0  0.21900  0.29900  0.86100  1.0000
  O   O13       1.0  0.21900  0.78100  0.86100  1.0000
  O   O14       1.0  0.70100  0.78100  0.86100  1.0000
