data_image0
_chemical_formula_structural       Na10Sn12Yb
_chemical_formula_sum              "Na10 Sn12 Yb1"
_cell_length_a       9.67399
_cell_length_b       9.67399
_cell_length_c       9.67399
_cell_angle_alpha    109.471
_cell_angle_beta     109.471
_cell_angle_gamma    109.471

_space_group_name_H-M_alt    "P 1"
_space_group_IT_number       1

loop_
  _space_group_symop_operation_xyz
  'x, y, z'

loop_
  _atom_site_type_symbol
  _atom_site_label
  _atom_site_symmetry_multiplicity
  _atom_site_fract_x
  _atom_site_fract_y
  _atom_site_fract_z
  _atom_site_occupancy
  Na  Na1       1.0  0.38800  0.00000  0.00000  1.0000
  Na  Na2       1.0  0.00000  0.38800  0.00000  1.0000
  Na  Na3       1.0  0.75000  0.50000  0.25000  1.0000
  Na  Na4       1.0  0.50000  0.75000  0.25000  1.0000
  Na  Na5       1.0  0.00000  0.00000  0.38800  1.0000
  Na  Na6       1.0  0.75000  0.25000  0.50000  1.0000
  Na  Na7       1.0  0.25000  0.75000  0.50000  1.0000
  Na  Na8       1.0  0.61200  0.61200  0.61200  1.0000
  Na  Na9       1.0  0.50000  0.25000  0.75000  1.0000
  Na  Na10      1.0  0.25000  0.50000  0.75000  1.0000
  Sn  Sn1       1.0  0.81100  0.62800  0.00000  1.0000
  Sn  Sn2       1.0  0.62800  0.81100  0.00000  1.0000
  Sn  Sn3       1.0  0.37200  0.37200  0.18300  1.0000
  Sn  Sn4       1.0  0.81700  0.18900  0.18900  1.0000
  Sn  Sn5       1.0  0.18900  0.81700  0.18900  1.0000
  Sn  Sn6       1.0  0.37200  0.18300  0.37200  1.0000
  Sn  Sn7       1.0  0.18300  0.37200  0.37200  1.0000
  Sn  Sn8       1.0  0.81100  0.00000  0.62800  1.0000
  Sn  Sn9       1.0  0.00000  0.81100  0.62800  1.0000
  Sn  Sn10      1.0  0.62800  0.00000  0.81100  1.0000
  Sn  Sn11      1.0  0.00000  0.62800  0.81100  1.0000
  Sn  Sn12      1.0  0.18900  0.18900  0.81700  1.0000
  Yb  Yb1       1.0  0.00000  0.00000  0.00000  1.0000
