data_image0
_chemical_formula_structural       Cd4Pd13Pr6
_chemical_formula_sum              "Cd4 Pd13 Pr6"
_cell_length_a       8.57113
_cell_length_b       8.57113
_cell_length_c       8.57113
_cell_angle_alpha    109.471
_cell_angle_beta     109.471
_cell_angle_gamma    109.471

_space_group_name_H-M_alt    "P 1"
_space_group_IT_number       1

loop_
  _space_group_symop_operation_xyz
  'x, y, z'

loop_
  _atom_site_type_symbol
  _atom_site_label
  _atom_site_symmetry_multiplicity
  _atom_site_fract_x
  _atom_site_fract_y
  _atom_site_fract_z
  _atom_site_occupancy
  Cd  Cd1       1.0  0.50000  0.00000  0.00000  1.0000
  Cd  Cd2       1.0  0.00000  0.50000  0.00000  1.0000
  Cd  Cd3       1.0  0.00000  0.00000  0.50000  1.0000
  Cd  Cd4       1.0  0.50000  0.50000  0.50000  1.0000
  Pd  Pd1       1.0  0.00000  0.00000  0.00000  1.0000
  Pd  Pd2       1.0  0.65900  0.34100  0.00000  1.0000
  Pd  Pd3       1.0  0.34100  0.65900  0.00000  1.0000
  Pd  Pd4       1.0  0.65900  0.65900  0.31900  1.0000
  Pd  Pd5       1.0  0.65900  0.00000  0.34100  1.0000
  Pd  Pd6       1.0  0.00000  0.65900  0.34100  1.0000
  Pd  Pd7       1.0  0.68100  0.34100  0.34100  1.0000
  Pd  Pd8       1.0  0.34100  0.68100  0.34100  1.0000
  Pd  Pd9       1.0  0.34100  0.00000  0.65900  1.0000
  Pd  Pd10      1.0  0.65900  0.31900  0.65900  1.0000
  Pd  Pd11      1.0  0.00000  0.34100  0.65900  1.0000
  Pd  Pd12      1.0  0.31900  0.65900  0.65900  1.0000
  Pd  Pd13      1.0  0.34100  0.34100  0.68100  1.0000
  Pr  Pr1       1.0  0.30200  0.30200  0.00000  1.0000
  Pr  Pr2       1.0  0.69800  0.69800  0.00000  1.0000
  Pr  Pr3       1.0  0.30200  0.00000  0.30200  1.0000
  Pr  Pr4       1.0  0.00000  0.30200  0.30200  1.0000
  Pr  Pr5       1.0  0.69800  0.00000  0.69800  1.0000
  Pr  Pr6       1.0  0.00000  0.69800  0.69800  1.0000
