data_image0
_chemical_formula_structural       Ba3N2O12Si6
_chemical_formula_sum              "Ba3 N2 O12 Si6"
_cell_length_a       7.50581
_cell_length_b       7.506
_cell_length_c       6.43722
_cell_angle_alpha    90.0003
_cell_angle_beta     90.0006
_cell_angle_gamma    120.001

_space_group_name_H-M_alt    "P 1"
_space_group_IT_number       1

loop_
  _space_group_symop_operation_xyz
  'x, y, z'

loop_
  _atom_site_type_symbol
  _atom_site_label
  _atom_site_symmetry_multiplicity
  _atom_site_fract_x
  _atom_site_fract_y
  _atom_site_fract_z
  _atom_site_occupancy
  Ba  Ba1       1.0  0.00000  0.00000  0.00000  1.0000
  Ba  Ba2       1.0  0.33300  0.66700  0.10500  1.0000
  Ba  Ba3       1.0  0.66700  0.33300  0.89500  1.0000
  N   N1        1.0  0.66700  0.33300  0.43500  1.0000
  N   N2        1.0  0.33300  0.66700  0.56500  1.0000
  O   O1        1.0  0.94200  0.64000  0.16800  1.0000
  O   O2        1.0  0.36000  0.30200  0.16800  1.0000
  O   O3        1.0  0.69800  0.05820  0.16800  1.0000
  O   O4        1.0  0.30000  0.98300  0.40500  1.0000
  O   O5        1.0  0.68200  0.70000  0.40500  1.0000
  O   O6        1.0  0.01730  0.31800  0.40500  1.0000
  O   O7        1.0  0.98300  0.68200  0.59500  1.0000
  O   O8        1.0  0.70000  0.01730  0.59500  1.0000
  O   O9        1.0  0.31800  0.30000  0.59500  1.0000
  O   O10       1.0  0.30200  0.94200  0.83200  1.0000
  O   O11       1.0  0.64000  0.69800  0.83200  1.0000
  O   O12       1.0  0.05820  0.36000  0.83200  1.0000
  Si  Si1       1.0  0.76400  0.17000  0.38800  1.0000
  Si  Si2       1.0  0.40600  0.23600  0.38800  1.0000
  Si  Si3       1.0  0.83000  0.59400  0.38800  1.0000
  Si  Si4       1.0  0.17000  0.40600  0.61200  1.0000
  Si  Si5       1.0  0.59400  0.76400  0.61200  1.0000
  Si  Si6       1.0  0.23600  0.83000  0.61200  1.0000
