data_image0
_chemical_formula_structural       Nb6O16Sr
_chemical_formula_sum              "Nb6 O16 Sr1"
_cell_length_a       3.89802
_cell_length_b       9.06293
_cell_length_c       9.06293
_cell_angle_alpha    110.281
_cell_angle_beta     90
_cell_angle_gamma    90

_space_group_name_H-M_alt    "P 1"
_space_group_IT_number       1

loop_
  _space_group_symop_operation_xyz
  'x, y, z'

loop_
  _atom_site_type_symbol
  _atom_site_label
  _atom_site_symmetry_multiplicity
  _atom_site_fract_x
  _atom_site_fract_y
  _atom_site_fract_z
  _atom_site_occupancy
  Nb  Nb1       1.0  0.00000  0.79200  0.20800  1.0000
  Nb  Nb2       1.0  0.00000  0.26000  0.38000  1.0000
  Nb  Nb3       1.0  0.00000  0.00129  0.62700  1.0000
  Nb  Nb4       1.0  0.00000  0.62000  0.74000  1.0000
  Nb  Nb5       1.0  0.00000  0.00493  0.99500  1.0000
  Nb  Nb6       1.0  0.00000  0.37300  0.99900  1.0000
  O   O1        1.0  0.50000  0.99500  0.00534  1.0000
  O   O2        1.0  0.00000  0.23800  0.14600  1.0000
  O   O3        1.0  0.00000  0.55600  0.19000  1.0000
  O   O4        1.0  0.50000  0.77500  0.22500  1.0000
  O   O5        1.0  0.00000  0.01480  0.23900  1.0000
  O   O6        1.0  0.50000  0.29400  0.36700  1.0000
  O   O7        1.0  0.00000  0.81000  0.44400  1.0000
  O   O8        1.0  0.00000  0.49200  0.50800  1.0000
  O   O9        1.0  0.00000  0.17400  0.54000  1.0000
  O   O10       1.0  0.50000  0.00341  0.62400  1.0000
  O   O11       1.0  0.50000  0.63300  0.70600  1.0000
  O   O12       1.0  0.00000  0.85400  0.76200  1.0000
  O   O13       1.0  0.00000  0.46000  0.82600  1.0000
  O   O14       1.0  0.00000  0.14200  0.85800  1.0000
  O   O15       1.0  0.00000  0.76100  0.98500  1.0000
  O   O16       1.0  0.50000  0.37600  0.99700  1.0000
  Sr  Sr1       1.0  0.50000  0.60200  0.39800  1.0000
