data_image0
_chemical_formula_structural       B3Be3F4NaO9Sr3
_chemical_formula_sum              "B3 Be3 F4 Na1 O9 Sr3"
_cell_length_a       6.62146
_cell_length_b       6.62146
_cell_length_c       6.62146
_cell_angle_alpha    103.855
_cell_angle_beta     103.855
_cell_angle_gamma    103.855

_space_group_name_H-M_alt    "P 1"
_space_group_IT_number       1

loop_
  _space_group_symop_operation_xyz
  'x, y, z'

loop_
  _atom_site_type_symbol
  _atom_site_label
  _atom_site_symmetry_multiplicity
  _atom_site_fract_x
  _atom_site_fract_y
  _atom_site_fract_z
  _atom_site_occupancy
  B   B1        1.0  0.06870  0.59900  0.06870  1.0000
  B   B2        1.0  0.59900  0.06870  0.06870  1.0000
  B   B3        1.0  0.06870  0.06870  0.59900  1.0000
  Be  Be1       1.0  0.92900  0.92900  0.20300  1.0000
  Be  Be2       1.0  0.92900  0.20300  0.92900  1.0000
  Be  Be3       1.0  0.20300  0.92900  0.92900  1.0000
  F   F1        1.0  0.45700  0.73800  0.45700  1.0000
  F   F2        1.0  0.73800  0.45700  0.45700  1.0000
  F   F3        1.0  0.45700  0.45700  0.73800  1.0000
  F   F4        1.0  0.99300  0.99300  0.99300  1.0000
  Na  Na1       1.0  0.72000  0.72000  0.72000  1.0000
  O   O1        1.0  0.41200  0.10800  0.10800  1.0000
  O   O2        1.0  0.10800  0.41200  0.10800  1.0000
  O   O3        1.0  0.68500  0.93400  0.16700  1.0000
  O   O4        1.0  0.93400  0.68500  0.16700  1.0000
  O   O5        1.0  0.10800  0.10800  0.41200  1.0000
  O   O6        1.0  0.16700  0.93400  0.68500  1.0000
  O   O7        1.0  0.93400  0.16700  0.68500  1.0000
  O   O8        1.0  0.16700  0.68500  0.93400  1.0000
  O   O9        1.0  0.68500  0.16700  0.93400  1.0000
  Sr  Sr1       1.0  0.51700  0.51700  0.12500  1.0000
  Sr  Sr2       1.0  0.51700  0.12500  0.51700  1.0000
  Sr  Sr3       1.0  0.12500  0.51700  0.51700  1.0000
