data_image0
_chemical_formula_structural       B20Na3
_chemical_formula_sum              "B20 Na3"
_cell_length_a       4.1315
_cell_length_b       5.68221
_cell_length_c       9.74088
_cell_angle_alpha    106.958
_cell_angle_beta     90
_cell_angle_gamma    90

_space_group_name_H-M_alt    "P 1"
_space_group_IT_number       1

loop_
  _space_group_symop_operation_xyz
  'x, y, z'

loop_
  _atom_site_type_symbol
  _atom_site_label
  _atom_site_symmetry_multiplicity
  _atom_site_fract_x
  _atom_site_fract_y
  _atom_site_fract_z
  _atom_site_occupancy
  B   B1        1.0  0.20100  0.50000  0.00000  1.0000
  B   B2        1.0  0.79900  0.50000  0.00000  1.0000
  B   B3        1.0  0.50000  0.39100  0.09390  1.0000
  B   B4        1.0  0.50000  0.70300  0.09390  1.0000
  B   B5        1.0  0.50000  0.26500  0.23000  1.0000
  B   B6        1.0  0.50000  0.96500  0.23000  1.0000
  B   B7        1.0  0.20800  0.17400  0.34800  1.0000
  B   B8        1.0  0.79200  0.17400  0.34800  1.0000
  B   B9        1.0  0.50000  0.43100  0.40500  1.0000
  B   B10       1.0  0.50000  0.97300  0.40500  1.0000
  B   B11       1.0  0.50000  0.74400  0.48800  1.0000
  B   B12       1.0  0.50000  0.25600  0.51200  1.0000
  B   B13       1.0  0.50000  0.02670  0.59500  1.0000
  B   B14       1.0  0.50000  0.56900  0.59500  1.0000
  B   B15       1.0  0.20800  0.82600  0.65200  1.0000
  B   B16       1.0  0.79200  0.82600  0.65200  1.0000
  B   B17       1.0  0.50000  0.03460  0.77000  1.0000
  B   B18       1.0  0.50000  0.73500  0.77000  1.0000
  B   B19       1.0  0.50000  0.29700  0.90600  1.0000
  B   B20       1.0  0.50000  0.60900  0.90600  1.0000
  Na  Na1       1.0  0.00000  0.00000  0.00000  1.0000
  Na  Na2       1.0  0.00000  0.63600  0.27200  1.0000
  Na  Na3       1.0  0.00000  0.36400  0.72800  1.0000
