data_image0
_chemical_formula_structural       Cu5Na8O10
_chemical_formula_sum              "Cu5 Na8 O10"
_cell_length_a       5.6727
_cell_length_b       8.03541
_cell_length_c       8.03541
_cell_angle_alpha    119.06
_cell_angle_beta     100.844
_cell_angle_gamma    100.844

_space_group_name_H-M_alt    "P 1"
_space_group_IT_number       1

loop_
  _space_group_symop_operation_xyz
  'x, y, z'

loop_
  _atom_site_type_symbol
  _atom_site_label
  _atom_site_symmetry_multiplicity
  _atom_site_fract_x
  _atom_site_fract_y
  _atom_site_fract_z
  _atom_site_occupancy
  Cu  Cu1       1.0  0.75100  0.41700  0.01930  1.0000
  Cu  Cu2       1.0  0.72400  0.19800  0.19800  1.0000
  Cu  Cu3       1.0  0.75100  0.01930  0.41700  1.0000
  Cu  Cu4       1.0  0.77800  0.82700  0.62900  1.0000
  Cu  Cu5       1.0  0.77800  0.62900  0.82700  1.0000
  Na  Na1       1.0  0.14500  0.08870  0.08870  1.0000
  Na  Na2       1.0  0.40400  0.54100  0.26500  1.0000
  Na  Na3       1.0  0.13900  0.85200  0.29500  1.0000
  Na  Na4       1.0  0.08970  0.51800  0.51800  1.0000
  Na  Na5       1.0  0.40400  0.26500  0.54100  1.0000
  Na  Na6       1.0  0.36800  0.95900  0.73900  1.0000
  Na  Na7       1.0  0.13900  0.29500  0.85200  1.0000
  Na  Na8       1.0  0.36800  0.73900  0.95900  1.0000
  O   O1        1.0  0.49000  0.25900  0.04850  1.0000
  O   O2        1.0  0.98300  0.35600  0.15900  1.0000
  O   O3        1.0  0.49000  0.04850  0.25900  1.0000
  O   O4        1.0  0.98300  0.15900  0.35600  1.0000
  O   O5        1.0  0.52800  0.87800  0.48100  1.0000
  O   O6        1.0  0.00478  0.98200  0.57000  1.0000
  O   O7        1.0  0.52500  0.66100  0.66100  1.0000
  O   O8        1.0  0.02910  0.78100  0.78100  1.0000
  O   O9        1.0  0.52800  0.48100  0.87800  1.0000
  O   O10       1.0  0.00478  0.57000  0.98200  1.0000
