data_image0
_chemical_formula_structural       Ca2Mn2O14P4
_chemical_formula_sum              "Ca2 Mn2 O14 P4"
_cell_length_a       6.51473
_cell_length_b       6.55798
_cell_length_c       6.50839
_cell_angle_alpha    96.3483
_cell_angle_beta     92.4966
_cell_angle_gamma    66.1432

_space_group_name_H-M_alt    "P 1"
_space_group_IT_number       1

loop_
  _space_group_symop_operation_xyz
  'x, y, z'

loop_
  _atom_site_type_symbol
  _atom_site_label
  _atom_site_symmetry_multiplicity
  _atom_site_fract_x
  _atom_site_fract_y
  _atom_site_fract_z
  _atom_site_occupancy
  Ca  Ca1       1.0  0.30300  0.24100  0.37700  1.0000
  Ca  Ca2       1.0  0.69700  0.75900  0.62300  1.0000
  Mn  Mn1       1.0  0.73200  0.39400  0.14800  1.0000
  Mn  Mn2       1.0  0.26800  0.60600  0.85200  1.0000
  O   O1        1.0  0.08780  0.24500  0.08500  1.0000
  O   O2        1.0  0.63400  0.10500  0.12500  1.0000
  O   O3        1.0  0.36000  0.55200  0.18400  1.0000
  O   O4        1.0  0.75300  0.71000  0.24600  1.0000
  O   O5        1.0  0.01250  0.90900  0.25800  1.0000
  O   O6        1.0  0.35700  0.88200  0.44000  1.0000
  O   O7        1.0  0.82900  0.37600  0.47600  1.0000
  O   O8        1.0  0.17100  0.62400  0.52400  1.0000
  O   O9        1.0  0.64300  0.11800  0.56000  1.0000
  O   O10       1.0  0.98800  0.09080  0.74200  1.0000
  O   O11       1.0  0.24700  0.29000  0.75400  1.0000
  O   O12       1.0  0.64000  0.44800  0.81600  1.0000
  O   O13       1.0  0.36600  0.89500  0.87500  1.0000
  O   O14       1.0  0.91200  0.75500  0.91500  1.0000
  P   P1        1.0  0.81100  0.86700  0.12800  1.0000
  P   P2        1.0  0.23500  0.73800  0.35700  1.0000
  P   P3        1.0  0.76500  0.26200  0.64300  1.0000
  P   P4        1.0  0.18900  0.13300  0.87200  1.0000
