data_image0
_chemical_formula_structural       Mo13P9U
_chemical_formula_sum              "Mo13 P9 U1"
_cell_length_a       10.8778
_cell_length_b       10.8776
_cell_length_c       3.30561
_cell_angle_alpha    90
_cell_angle_beta     90
_cell_angle_gamma    120.001

_space_group_name_H-M_alt    "P 1"
_space_group_IT_number       1

loop_
  _space_group_symop_operation_xyz
  'x, y, z'

loop_
  _atom_site_type_symbol
  _atom_site_label
  _atom_site_symmetry_multiplicity
  _atom_site_fract_x
  _atom_site_fract_y
  _atom_site_fract_z
  _atom_site_occupancy
  Mo  Mo1       1.0  0.00000  0.00000  0.00000  1.0000
  Mo  Mo2       1.0  0.28400  0.00501  0.00000  1.0000
  Mo  Mo3       1.0  0.72100  0.00501  0.00000  1.0000
  Mo  Mo4       1.0  0.28400  0.27900  0.00000  1.0000
  Mo  Mo5       1.0  0.99500  0.27900  0.00000  1.0000
  Mo  Mo6       1.0  0.72100  0.71600  0.00000  1.0000
  Mo  Mo7       1.0  0.99500  0.71600  0.00000  1.0000
  Mo  Mo8       1.0  0.52600  0.05280  0.50000  1.0000
  Mo  Mo9       1.0  0.52600  0.47400  0.50000  1.0000
  Mo  Mo10      1.0  0.94700  0.47400  0.50000  1.0000
  Mo  Mo11      1.0  0.24100  0.48200  0.50000  1.0000
  Mo  Mo12      1.0  0.24100  0.75900  0.50000  1.0000
  Mo  Mo13      1.0  0.51800  0.75900  0.50000  1.0000
  P   P1        1.0  0.13200  0.56600  0.00000  1.0000
  P   P2        1.0  0.43400  0.56600  0.00000  1.0000
  P   P3        1.0  0.43400  0.86800  0.00000  1.0000
  P   P4        1.0  0.09680  0.19400  0.50000  1.0000
  P   P5        1.0  0.41200  0.20600  0.50000  1.0000
  P   P6        1.0  0.79400  0.20600  0.50000  1.0000
  P   P7        1.0  0.79400  0.58800  0.50000  1.0000
  P   P8        1.0  0.09680  0.90300  0.50000  1.0000
  P   P9        1.0  0.80600  0.90300  0.50000  1.0000
  U   U1        1.0  0.66700  0.33300  0.00000  1.0000
