data_image0
_chemical_formula_structural       Ag2Br6Hg7P8
_chemical_formula_sum              "Ag2 Br6 Hg7 P8"
_cell_length_a       8.27957
_cell_length_b       8.59364
_cell_length_c       8.59364
_cell_angle_alpha    80.5015
_cell_angle_beta     98.7409
_cell_angle_gamma    98.7409

_space_group_name_H-M_alt    "P 1"
_space_group_IT_number       1

loop_
  _space_group_symop_operation_xyz
  'x, y, z'

loop_
  _atom_site_type_symbol
  _atom_site_label
  _atom_site_symmetry_multiplicity
  _atom_site_fract_x
  _atom_site_fract_y
  _atom_site_fract_z
  _atom_site_occupancy
  Ag  Ag1       1.0  0.50000  0.50000  0.00000  1.0000
  Ag  Ag2       1.0  0.50000  0.00000  0.50000  1.0000
  Br  Br1       1.0  0.85000  0.63800  0.05030  1.0000
  Br  Br2       1.0  0.54300  0.35400  0.35400  1.0000
  Br  Br3       1.0  0.15000  0.95000  0.36200  1.0000
  Br  Br4       1.0  0.85000  0.05030  0.63800  1.0000
  Br  Br5       1.0  0.45700  0.64600  0.64600  1.0000
  Br  Br6       1.0  0.15000  0.36200  0.95000  1.0000
  Hg  Hg1       1.0  0.00000  0.00000  0.00000  1.0000
  Hg  Hg2       1.0  0.23500  0.63400  0.26800  1.0000
  Hg  Hg3       1.0  0.86500  0.27400  0.27400  1.0000
  Hg  Hg4       1.0  0.76500  0.73200  0.36600  1.0000
  Hg  Hg5       1.0  0.23500  0.26800  0.63400  1.0000
  Hg  Hg6       1.0  0.13500  0.72600  0.72600  1.0000
  Hg  Hg7       1.0  0.76500  0.36600  0.73200  1.0000
  P   P1        1.0  0.42400  0.76200  0.07610  1.0000
  P   P2        1.0  0.74400  0.08660  0.08660  1.0000
  P   P3        1.0  0.57600  0.92400  0.23800  1.0000
  P   P4        1.0  0.06740  0.43700  0.43700  1.0000
  P   P5        1.0  0.93300  0.56300  0.56300  1.0000
  P   P6        1.0  0.42400  0.07610  0.76200  1.0000
  P   P7        1.0  0.25600  0.91300  0.91300  1.0000
  P   P8        1.0  0.57600  0.23800  0.92400  1.0000
