data_image0
_chemical_formula_structural       K2Nb5O15Y
_chemical_formula_sum              "K2 Nb5 O15 Y1"
_cell_length_a       3.93654
_cell_length_b       9.24683
_cell_length_c       9.24683
_cell_angle_alpha    111.871
_cell_angle_beta     90
_cell_angle_gamma    90

_space_group_name_H-M_alt    "P 1"
_space_group_IT_number       1

loop_
  _space_group_symop_operation_xyz
  'x, y, z'

loop_
  _atom_site_type_symbol
  _atom_site_label
  _atom_site_symmetry_multiplicity
  _atom_site_fract_x
  _atom_site_fract_y
  _atom_site_fract_z
  _atom_site_occupancy
  K   K1        1.0  0.00000  0.70000  0.30000  1.0000
  K   K2        1.0  0.00000  0.30000  0.70000  1.0000
  Nb  Nb1       1.0  0.50000  0.31800  0.05790  1.0000
  Nb  Nb2       1.0  0.50000  0.05790  0.31800  1.0000
  Nb  Nb3       1.0  0.50000  0.50000  0.50000  1.0000
  Nb  Nb4       1.0  0.50000  0.94200  0.68200  1.0000
  Nb  Nb5       1.0  0.50000  0.68200  0.94200  1.0000
  O   O1        1.0  0.50000  0.50000  0.00000  1.0000
  O   O2        1.0  0.00000  0.27700  0.04620  1.0000
  O   O3        1.0  0.50000  0.12600  0.12600  1.0000
  O   O4        1.0  0.50000  0.83300  0.16700  1.0000
  O   O5        1.0  0.50000  0.45900  0.27200  1.0000
  O   O6        1.0  0.00000  0.04620  0.27700  1.0000
  O   O7        1.0  0.50000  0.27200  0.45900  1.0000
  O   O8        1.0  0.00000  0.50000  0.50000  1.0000
  O   O9        1.0  0.50000  0.00000  0.50000  1.0000
  O   O10       1.0  0.50000  0.72800  0.54100  1.0000
  O   O11       1.0  0.00000  0.95400  0.72300  1.0000
  O   O12       1.0  0.50000  0.54100  0.72800  1.0000
  O   O13       1.0  0.50000  0.16700  0.83300  1.0000
  O   O14       1.0  0.50000  0.87400  0.87400  1.0000
  O   O15       1.0  0.00000  0.72300  0.95400  1.0000
  Y   Y1        1.0  0.00000  0.00000  0.00000  1.0000
