data_image0
_chemical_formula_structural       AlBeClNa4O12Si4
_chemical_formula_sum              "Al1 Be1 Cl1 Na4 O12 Si4"
_cell_length_a       7.49522
_cell_length_b       7.49522
_cell_length_c       7.49522
_cell_angle_alpha    110.308
_cell_angle_beta     107.811
_cell_angle_gamma    110.308

_space_group_name_H-M_alt    "P 1"
_space_group_IT_number       1

loop_
  _space_group_symop_operation_xyz
  'x, y, z'

loop_
  _atom_site_type_symbol
  _atom_site_label
  _atom_site_symmetry_multiplicity
  _atom_site_fract_x
  _atom_site_fract_y
  _atom_site_fract_z
  _atom_site_occupancy
  Al  Al1       1.0  0.75000  0.50000  0.25000  1.0000
  Be  Be1       1.0  0.25000  0.50000  0.75000  1.0000
  Cl  Cl1       1.0  0.00000  0.00000  0.00000  1.0000
  Na  Na1       1.0  0.33000  0.34500  0.37300  1.0000
  Na  Na2       1.0  0.01500  0.04310  0.67000  1.0000
  Na  Na3       1.0  0.62700  0.95700  0.97200  1.0000
  Na  Na4       1.0  0.02810  0.65500  0.98500  1.0000
  O   O1        1.0  0.39500  0.69500  0.00268  1.0000
  O   O2        1.0  0.71700  0.26900  0.27900  1.0000
  O   O3        1.0  0.55200  0.56200  0.28300  1.0000
  O   O4        1.0  0.28500  0.71700  0.30300  1.0000
  O   O5        1.0  0.69700  0.98200  0.41400  1.0000
  O   O6        1.0  0.00939  0.73100  0.44800  1.0000
  O   O7        1.0  0.58600  0.28300  0.56700  1.0000
  O   O8        1.0  0.30000  0.60700  0.60500  1.0000
  O   O9        1.0  0.99700  0.39300  0.69300  1.0000
  O   O10       1.0  0.30700  0.30400  0.70000  1.0000
  O   O11       1.0  0.43300  0.01840  0.71500  1.0000
  O   O12       1.0  0.72100  0.43800  0.99100  1.0000
  Si  Si1       1.0  0.48100  0.73100  0.24200  1.0000
  Si  Si2       1.0  0.75800  0.24000  0.49000  1.0000
  Si  Si3       1.0  0.25000  0.76000  0.51900  1.0000
  Si  Si4       1.0  0.51000  0.26900  0.75000  1.0000
