data_image0
_chemical_formula_structural       Ba6Cl2O12Ru3
_chemical_formula_sum              "Ba6 Cl2 O12 Ru3"
_cell_length_a       5.82976
_cell_length_b       5.82977
_cell_length_c       14.8433
_cell_angle_alpha    90
_cell_angle_beta     90.0002
_cell_angle_gamma    120

_space_group_name_H-M_alt    "P 1"
_space_group_IT_number       1

loop_
  _space_group_symop_operation_xyz
  'x, y, z'

loop_
  _atom_site_type_symbol
  _atom_site_label
  _atom_site_symmetry_multiplicity
  _atom_site_fract_x
  _atom_site_fract_y
  _atom_site_fract_z
  _atom_site_occupancy
  Ba  Ba1       1.0  0.33300  0.66700  0.07950  1.0000
  Ba  Ba2       1.0  0.66700  0.33300  0.21700  1.0000
  Ba  Ba3       1.0  0.33300  0.66700  0.36600  1.0000
  Ba  Ba4       1.0  0.66700  0.33300  0.63400  1.0000
  Ba  Ba5       1.0  0.33300  0.66700  0.78300  1.0000
  Ba  Ba6       1.0  0.66700  0.33300  0.92100  1.0000
  Cl  Cl1       1.0  0.66700  0.33300  0.42500  1.0000
  Cl  Cl2       1.0  0.33300  0.66700  0.57500  1.0000
  O   O1        1.0  0.84200  0.15800  0.08210  1.0000
  O   O2        1.0  0.84200  0.68300  0.08210  1.0000
  O   O3        1.0  0.31700  0.15800  0.08210  1.0000
  O   O4        1.0  0.67900  0.84000  0.24100  1.0000
  O   O5        1.0  0.16000  0.32100  0.24100  1.0000
  O   O6        1.0  0.16000  0.84000  0.24100  1.0000
  O   O7        1.0  0.84000  0.67900  0.75900  1.0000
  O   O8        1.0  0.84000  0.16000  0.75900  1.0000
  O   O9        1.0  0.32100  0.16000  0.75900  1.0000
  O   O10       1.0  0.68300  0.84200  0.91800  1.0000
  O   O11       1.0  0.15800  0.31700  0.91800  1.0000
  O   O12       1.0  0.15800  0.84200  0.91800  1.0000
  Ru  Ru1       1.0  0.00000  0.00000  0.00000  1.0000
  Ru  Ru2       1.0  0.00000  0.00000  0.17400  1.0000
  Ru  Ru3       1.0  0.00000  0.00000  0.82600  1.0000
