data_image0
_chemical_formula_structural       La7Ni16
_chemical_formula_sum              "La7 Ni16"
_cell_length_a       7.31794
_cell_length_b       7.31794
_cell_length_c       8.86333
_cell_angle_alpha    114.382
_cell_angle_beta     114.382
_cell_angle_gamma    90

_space_group_name_H-M_alt    "P 1"
_space_group_IT_number       1

loop_
  _space_group_symop_operation_xyz
  'x, y, z'

loop_
  _atom_site_type_symbol
  _atom_site_label
  _atom_site_symmetry_multiplicity
  _atom_site_fract_x
  _atom_site_fract_y
  _atom_site_fract_z
  _atom_site_occupancy
  La  La1       1.0  0.00000  0.00000  0.00000  1.0000
  La  La2       1.0  0.40700  0.40700  0.20500  1.0000
  La  La3       1.0  0.79800  0.79800  0.20500  1.0000
  La  La4       1.0  0.75000  0.25000  0.50000  1.0000
  La  La5       1.0  0.25000  0.75000  0.50000  1.0000
  La  La6       1.0  0.59300  0.20200  0.79500  1.0000
  La  La7       1.0  0.20200  0.59300  0.79500  1.0000
  Ni  Ni1       1.0  0.69800  0.18200  0.13200  1.0000
  Ni  Ni2       1.0  0.95000  0.43300  0.13200  1.0000
  Ni  Ni3       1.0  0.18200  0.69800  0.13200  1.0000
  Ni  Ni4       1.0  0.43300  0.95000  0.13200  1.0000
  Ni  Ni5       1.0  0.30400  0.06850  0.37200  1.0000
  Ni  Ni6       1.0  0.06850  0.30400  0.37200  1.0000
  Ni  Ni7       1.0  0.83900  0.55900  0.39700  1.0000
  Ni  Ni8       1.0  0.55900  0.83900  0.39700  1.0000
  Ni  Ni9       1.0  0.16100  0.16100  0.60300  1.0000
  Ni  Ni10      1.0  0.44100  0.44100  0.60300  1.0000
  Ni  Ni11      1.0  0.69600  0.69600  0.62800  1.0000
  Ni  Ni12      1.0  0.93200  0.93200  0.62800  1.0000
  Ni  Ni13      1.0  0.30200  0.05030  0.86800  1.0000
  Ni  Ni14      1.0  0.05030  0.30200  0.86800  1.0000
  Ni  Ni15      1.0  0.81800  0.56700  0.86800  1.0000
  Ni  Ni16      1.0  0.56700  0.81800  0.86800  1.0000
