data_image0
_chemical_formula_structural       Cd4La6Pd13
_chemical_formula_sum              "Cd4 La6 Pd13"
_cell_length_a       8.62111
_cell_length_b       8.62111
_cell_length_c       8.62111
_cell_angle_alpha    109.471
_cell_angle_beta     109.471
_cell_angle_gamma    109.471

_space_group_name_H-M_alt    "P 1"
_space_group_IT_number       1

loop_
  _space_group_symop_operation_xyz
  'x, y, z'

loop_
  _atom_site_type_symbol
  _atom_site_label
  _atom_site_symmetry_multiplicity
  _atom_site_fract_x
  _atom_site_fract_y
  _atom_site_fract_z
  _atom_site_occupancy
  Cd  Cd1       1.0  0.50000  0.00000  0.00000  1.0000
  Cd  Cd2       1.0  0.00000  0.50000  0.00000  1.0000
  Cd  Cd3       1.0  0.00000  0.00000  0.50000  1.0000
  Cd  Cd4       1.0  0.50000  0.50000  0.50000  1.0000
  La  La1       1.0  0.30400  0.30400  0.00000  1.0000
  La  La2       1.0  0.69600  0.69600  0.00000  1.0000
  La  La3       1.0  0.30400  0.00000  0.30400  1.0000
  La  La4       1.0  0.00000  0.30400  0.30400  1.0000
  La  La5       1.0  0.69600  0.00000  0.69600  1.0000
  La  La6       1.0  0.00000  0.69600  0.69600  1.0000
  Pd  Pd1       1.0  0.00000  0.00000  0.00000  1.0000
  Pd  Pd2       1.0  0.65800  0.34200  0.00000  1.0000
  Pd  Pd3       1.0  0.34200  0.65800  0.00000  1.0000
  Pd  Pd4       1.0  0.65800  0.65800  0.31500  1.0000
  Pd  Pd5       1.0  0.68500  0.34200  0.34200  1.0000
  Pd  Pd6       1.0  0.34200  0.68500  0.34200  1.0000
  Pd  Pd7       1.0  0.65800  0.00000  0.34200  1.0000
  Pd  Pd8       1.0  0.00000  0.65800  0.34200  1.0000
  Pd  Pd9       1.0  0.34200  0.00000  0.65800  1.0000
  Pd  Pd10      1.0  0.65800  0.31500  0.65800  1.0000
  Pd  Pd11      1.0  0.00000  0.34200  0.65800  1.0000
  Pd  Pd12      1.0  0.31500  0.65800  0.65800  1.0000
  Pd  Pd13      1.0  0.34200  0.34200  0.68500  1.0000
