data_image0
_chemical_formula_structural       Ba6NNa16
_chemical_formula_sum              "Ba6 N1 Na16"
_cell_length_a       10.6529
_cell_length_b       10.6529
_cell_length_c       10.6529
_cell_angle_alpha    109.471
_cell_angle_beta     109.471
_cell_angle_gamma    109.471

_space_group_name_H-M_alt    "P 1"
_space_group_IT_number       1

loop_
  _space_group_symop_operation_xyz
  'x, y, z'

loop_
  _atom_site_type_symbol
  _atom_site_label
  _atom_site_symmetry_multiplicity
  _atom_site_fract_x
  _atom_site_fract_y
  _atom_site_fract_z
  _atom_site_occupancy
  Ba  Ba1       1.0  0.23100  0.23100  0.00000  1.0000
  Ba  Ba2       1.0  0.76900  0.76900  0.00000  1.0000
  Ba  Ba3       1.0  0.23100  0.00000  0.23100  1.0000
  Ba  Ba4       1.0  0.00000  0.23100  0.23100  1.0000
  Ba  Ba5       1.0  0.76900  0.00000  0.76900  1.0000
  Ba  Ba6       1.0  1.00000  0.76900  0.76900  1.0000
  N   N1        1.0  0.00000  0.00000  0.00000  1.0000
  Na  Na1       1.0  0.50000  0.00000  0.00000  1.0000
  Na  Na2       1.0  0.65300  0.34700  0.00000  1.0000
  Na  Na3       1.0  0.00000  0.50000  0.00000  1.0000
  Na  Na4       1.0  0.34700  0.65300  0.00000  1.0000
  Na  Na5       1.0  0.65300  0.65300  0.30600  1.0000
  Na  Na6       1.0  0.69400  0.34700  0.34700  1.0000
  Na  Na7       1.0  0.34700  0.69400  0.34700  1.0000
  Na  Na8       1.0  0.65300  0.00000  0.34700  1.0000
  Na  Na9       1.0  0.00000  0.65300  0.34700  1.0000
  Na  Na10      1.0  0.00000  0.00000  0.50000  1.0000
  Na  Na11      1.0  0.50000  0.50000  0.50000  1.0000
  Na  Na12      1.0  0.34700  0.00000  0.65300  1.0000
  Na  Na13      1.0  0.65300  0.30600  0.65300  1.0000
  Na  Na14      1.0  0.00000  0.34700  0.65300  1.0000
  Na  Na15      1.0  0.30600  0.65300  0.65300  1.0000
  Na  Na16      1.0  0.34700  0.34700  0.69400  1.0000
