data_image0
_chemical_formula_structural       Fe6Ti2
_chemical_formula_sum              "Fe6 Ti2"
_cell_length_a       5.11864
_cell_length_b       5.11864
_cell_length_c       4.35419
_cell_angle_alpha    90
_cell_angle_beta     90
_cell_angle_gamma    120

_space_group_name_H-M_alt    "P 1"
_space_group_IT_number       1

loop_
  _space_group_symop_operation_xyz
  'x, y, z'

loop_
  _atom_site_type_symbol
  _atom_site_label
  _atom_site_symmetry_multiplicity
  _atom_site_fract_x
  _atom_site_fract_y
  _atom_site_fract_z
  _atom_site_occupancy
  Fe  Fe1       1.0  0.16100  0.32200  0.25000  1.0000
  Fe  Fe2       1.0  0.16100  0.83900  0.25000  1.0000
  Fe  Fe3       1.0  0.67800  0.83900  0.25000  1.0000
  Fe  Fe4       1.0  0.32200  0.16100  0.75000  1.0000
  Fe  Fe5       1.0  0.83900  0.16100  0.75000  1.0000
  Fe  Fe6       1.0  0.83900  0.67800  0.75000  1.0000
  Ti  Ti1       1.0  0.66700  0.33300  0.25000  1.0000
  Ti  Ti2       1.0  0.33300  0.66700  0.75000  1.0000
