data_image0
_chemical_formula_structural       Cd4N12P6S
_chemical_formula_sum              "Cd4 N12 P6 S1"
_cell_length_a       7.35982
_cell_length_b       7.35982
_cell_length_c       7.35982
_cell_angle_alpha    109.471
_cell_angle_beta     109.471
_cell_angle_gamma    109.471

_space_group_name_H-M_alt    "P 1"
_space_group_IT_number       1

loop_
  _space_group_symop_operation_xyz
  'x, y, z'

loop_
  _atom_site_type_symbol
  _atom_site_label
  _atom_site_symmetry_multiplicity
  _atom_site_fract_x
  _atom_site_fract_y
  _atom_site_fract_z
  _atom_site_occupancy
  Cd  Cd1       1.0  0.33400  0.00000  0.00000  1.0000
  Cd  Cd2       1.0  0.00000  0.33400  0.00000  1.0000
  Cd  Cd3       1.0  0.00000  0.00000  0.33400  1.0000
  Cd  Cd4       1.0  0.66600  0.66600  0.66600  1.0000
  N   N1        1.0  0.57300  0.28400  0.00000  1.0000
  N   N2        1.0  0.28400  0.57300  0.00000  1.0000
  N   N3        1.0  0.57300  0.00000  0.28400  1.0000
  N   N4        1.0  0.00000  0.57300  0.28400  1.0000
  N   N5        1.0  0.71600  0.71600  0.29000  1.0000
  N   N6        1.0  0.71000  0.42700  0.42700  1.0000
  N   N7        1.0  0.42700  0.71000  0.42700  1.0000
  N   N8        1.0  0.28400  0.00000  0.57300  1.0000
  N   N9        1.0  0.00000  0.28400  0.57300  1.0000
  N   N10       1.0  0.42700  0.42700  0.71000  1.0000
  N   N11       1.0  0.71600  0.29000  0.71600  1.0000
  N   N12       1.0  0.29000  0.71600  0.71600  1.0000
  P   P1        1.0  0.75000  0.50000  0.25000  1.0000
  P   P2        1.0  0.50000  0.75000  0.25000  1.0000
  P   P3        1.0  0.75000  0.25000  0.50000  1.0000
  P   P4        1.0  0.25000  0.75000  0.50000  1.0000
  P   P5        1.0  0.50000  0.25000  0.75000  1.0000
  P   P6        1.0  0.25000  0.50000  0.75000  1.0000
  S   S1        1.0  0.00000  0.00000  0.00000  1.0000
