data_image0
_chemical_formula_structural       Ni12P4
_chemical_formula_sum              "Ni12 P4"
_cell_length_a       4.36625
_cell_length_b       6.67852
_cell_length_c       6.67852
_cell_angle_alpha    96.1341
_cell_angle_beta     109.08
_cell_angle_gamma    70.92

_space_group_name_H-M_alt    "P 1"
_space_group_IT_number       1

loop_
  _space_group_symop_operation_xyz
  'x, y, z'

loop_
  _atom_site_type_symbol
  _atom_site_label
  _atom_site_symmetry_multiplicity
  _atom_site_fract_x
  _atom_site_fract_y
  _atom_site_fract_z
  _atom_site_occupancy
  Ni  Ni1       1.0  0.66400  0.18900  0.03500  1.0000
  Ni  Ni2       1.0  0.08560  0.38900  0.05200  1.0000
  Ni  Ni3       1.0  0.37100  0.96500  0.18900  1.0000
  Ni  Ni4       1.0  0.84100  0.60200  0.33300  1.0000
  Ni  Ni5       1.0  0.96600  0.94800  0.38900  1.0000
  Ni  Ni6       1.0  0.55600  0.33300  0.39800  1.0000
  Ni  Ni7       1.0  0.49200  0.66700  0.60200  1.0000
  Ni  Ni8       1.0  0.52600  0.05200  0.61100  1.0000
  Ni  Ni9       1.0  0.11100  0.39800  0.66700  1.0000
  Ni  Ni10      1.0  0.14700  0.03500  0.81100  1.0000
  Ni  Ni11      1.0  0.42200  0.61100  0.94800  1.0000
  Ni  Ni12      1.0  0.81800  0.81100  0.96500  1.0000
  P   P1        1.0  0.26600  0.66700  0.23700  1.0000
  P   P2        1.0  0.06740  0.23700  0.33300  1.0000
  P   P3        1.0  0.97100  0.76300  0.66700  1.0000
  P   P4        1.0  0.69500  0.33300  0.76300  1.0000
