data_image0
_chemical_formula_structural       Cs2KO14Si4U2
_chemical_formula_sum              "Cs2 K1 O14 Si4 U2"
_cell_length_a       7.24986
_cell_length_b       7.24986
_cell_length_c       7.6419
_cell_angle_alpha    90
_cell_angle_beta     90
_cell_angle_gamma    108.29

_space_group_name_H-M_alt    "P 1"
_space_group_IT_number       1

loop_
  _space_group_symop_operation_xyz
  'x, y, z'

loop_
  _atom_site_type_symbol
  _atom_site_label
  _atom_site_symmetry_multiplicity
  _atom_site_fract_x
  _atom_site_fract_y
  _atom_site_fract_z
  _atom_site_occupancy
  Cs  Cs1       1.0  0.78400  0.21600  0.00000  1.0000
  Cs  Cs2       1.0  0.21600  0.78400  0.00000  1.0000
  K   K1        1.0  0.00000  0.00000  0.50000  1.0000
  O   O1        1.0  0.24600  0.24600  0.00000  1.0000
  O   O2        1.0  0.75400  0.75400  0.00000  1.0000
  O   O3        1.0  0.50000  0.50000  0.20300  1.0000
  O   O4        1.0  0.35400  0.12400  0.29200  1.0000
  O   O5        1.0  0.12400  0.35400  0.29200  1.0000
  O   O6        1.0  0.87600  0.64600  0.29200  1.0000
  O   O7        1.0  0.64600  0.87600  0.29200  1.0000
  O   O8        1.0  0.75300  0.24700  0.50000  1.0000
  O   O9        1.0  0.24700  0.75300  0.50000  1.0000
  O   O10       1.0  0.35400  0.12400  0.70800  1.0000
  O   O11       1.0  0.12400  0.35400  0.70800  1.0000
  O   O12       1.0  0.87600  0.64600  0.70800  1.0000
  O   O13       1.0  0.64600  0.87600  0.70800  1.0000
  O   O14       1.0  0.50000  0.50000  0.79700  1.0000
  Si  Si1       1.0  0.30800  0.30800  0.20500  1.0000
  Si  Si2       1.0  0.69200  0.69200  0.20500  1.0000
  Si  Si3       1.0  0.30800  0.30800  0.79500  1.0000
  Si  Si4       1.0  0.69200  0.69200  0.79500  1.0000
  U   U1        1.0  0.50000  0.00000  0.50000  1.0000
  U   U2        1.0  0.00000  0.50000  0.50000  1.0000
