data_image0
_chemical_formula_structural       Bi4Cu3O14V2
_chemical_formula_sum              "Bi4 Cu3 O14 V2"
_cell_length_a       5.30234
_cell_length_b       7.86923
_cell_length_c       8.04668
_cell_angle_alpha    74.7121
_cell_angle_beta     89.2152
_cell_angle_gamma    70.3515

_space_group_name_H-M_alt    "P 1"
_space_group_IT_number       1

loop_
  _space_group_symop_operation_xyz
  'x, y, z'

loop_
  _atom_site_type_symbol
  _atom_site_label
  _atom_site_symmetry_multiplicity
  _atom_site_fract_x
  _atom_site_fract_y
  _atom_site_fract_z
  _atom_site_occupancy
  Bi  Bi1       1.0  0.89400  0.20900  0.30300  1.0000
  Bi  Bi2       1.0  0.57900  0.84200  0.35900  1.0000
  Bi  Bi3       1.0  0.42100  0.15800  0.64100  1.0000
  Bi  Bi4       1.0  0.10600  0.79100  0.69700  1.0000
  Cu  Cu1       1.0  0.00000  0.00000  0.00000  1.0000
  Cu  Cu2       1.0  0.36300  0.22200  0.02480  1.0000
  Cu  Cu3       1.0  0.63700  0.77800  0.97500  1.0000
  O   O1        1.0  0.99500  0.66000  0.08470  1.0000
  O   O2        1.0  0.71000  0.07040  0.14500  1.0000
  O   O3        1.0  0.53800  0.60600  0.15800  1.0000
  O   O4        1.0  0.22600  0.03920  0.16700  1.0000
  O   O5        1.0  0.32900  0.33000  0.32500  1.0000
  O   O6        1.0  0.17800  0.68000  0.41100  1.0000
  O   O7        1.0  0.75300  0.00156  0.49600  1.0000
  O   O8        1.0  0.24700  0.99800  0.50400  1.0000
  O   O9        1.0  0.82200  0.32000  0.58900  1.0000
  O   O10       1.0  0.67100  0.67000  0.67500  1.0000
  O   O11       1.0  0.77400  0.96100  0.83300  1.0000
  O   O12       1.0  0.46200  0.39400  0.84200  1.0000
  O   O13       1.0  0.29000  0.93000  0.85500  1.0000
  O   O14       1.0  0.00473  0.34000  0.91500  1.0000
  V   V1        1.0  0.25100  0.57200  0.24500  1.0000
  V   V2        1.0  0.74900  0.42800  0.75500  1.0000
