data_image0
_chemical_formula_structural       Bi7Cu4S12
_chemical_formula_sum              "Bi7 Cu4 S12"
_cell_length_a       3.96179
_cell_length_b       9.3094
_cell_length_c       15.2074
_cell_angle_alpha    101.846
_cell_angle_beta     90
_cell_angle_gamma    102.286

_space_group_name_H-M_alt    "P 1"
_space_group_IT_number       1

loop_
  _space_group_symop_operation_xyz
  'x, y, z'

loop_
  _atom_site_type_symbol
  _atom_site_label
  _atom_site_symmetry_multiplicity
  _atom_site_fract_x
  _atom_site_fract_y
  _atom_site_fract_z
  _atom_site_occupancy
  Bi  Bi1       1.0  0.76000  0.52100  0.12900  1.0000
  Bi  Bi2       1.0  0.00576  0.01150  0.22000  1.0000
  Bi  Bi3       1.0  0.67000  0.34100  0.41000  1.0000
  Bi  Bi4       1.0  0.00000  0.00000  0.50000  1.0000
  Bi  Bi5       1.0  0.33000  0.65900  0.59000  1.0000
  Bi  Bi6       1.0  0.99400  0.98800  0.78000  1.0000
  Bi  Bi7       1.0  0.24000  0.47900  0.87100  1.0000
  Cu  Cu1       1.0  0.40800  0.81500  0.00800  1.0000
  Cu  Cu2       1.0  0.34500  0.69000  0.36100  1.0000
  Cu  Cu3       1.0  0.65500  0.31000  0.63900  1.0000
  Cu  Cu4       1.0  0.59200  0.18500  0.99200  1.0000
  S   S1        1.0  0.83800  0.67600  0.00196  1.0000
  S   S2        1.0  0.52500  0.04990  0.10900  1.0000
  S   S3        1.0  0.35000  0.70000  0.21500  1.0000
  S   S4        1.0  0.15700  0.31400  0.28300  1.0000
  S   S5        1.0  0.51500  0.03090  0.37500  1.0000
  S   S6        1.0  0.83900  0.67800  0.43900  1.0000
  S   S7        1.0  0.16100  0.32200  0.56100  1.0000
  S   S8        1.0  0.48500  0.96900  0.62500  1.0000
  S   S9        1.0  0.84300  0.68600  0.71700  1.0000
  S   S10       1.0  0.65000  0.30000  0.78500  1.0000
  S   S11       1.0  0.47500  0.95000  0.89100  1.0000
  S   S12       1.0  0.16200  0.32400  0.99800  1.0000
