data_image0
_chemical_formula_structural       F8H8O4Rb2V2
_chemical_formula_sum              "F8 H8 O4 Rb2 V2"
_cell_length_a       6.02279
_cell_length_b       6.58942
_cell_length_c       7.92093
_cell_angle_alpha    105.852
_cell_angle_beta     112.345
_cell_angle_gamma    62.806

_space_group_name_H-M_alt    "P 1"
_space_group_IT_number       1

loop_
  _space_group_symop_operation_xyz
  'x, y, z'

loop_
  _atom_site_type_symbol
  _atom_site_label
  _atom_site_symmetry_multiplicity
  _atom_site_fract_x
  _atom_site_fract_y
  _atom_site_fract_z
  _atom_site_occupancy
  F   F1        1.0  0.75300  0.18300  0.00047  1.0000
  F   F2        1.0  0.78700  0.59700  0.07660  1.0000
  F   F3        1.0  0.30700  0.90300  0.42300  1.0000
  F   F4        1.0  0.93600  0.31700  0.50000  1.0000
  F   F5        1.0  0.06440  0.68300  0.50000  1.0000
  F   F6        1.0  0.69300  0.09680  0.57700  1.0000
  F   F7        1.0  0.21300  0.40300  0.92300  1.0000
  F   F8        1.0  0.24700  0.81700  0.00000  1.0000
  H   H1        1.0  0.76900  0.05640  0.14200  1.0000
  H   H2        1.0  0.77500  0.82300  0.17800  1.0000
  H   H3        1.0  0.42000  0.67700  0.32200  1.0000
  H   H4        1.0  0.68400  0.44400  0.35800  1.0000
  H   H5        1.0  0.31600  0.55600  0.64200  1.0000
  H   H6        1.0  0.58000  0.32300  0.67800  1.0000
  H   H7        1.0  0.22500  0.17700  0.82200  1.0000
  H   H8        1.0  0.23100  0.94400  0.85800  1.0000
  O   O1        1.0  0.75900  0.98400  0.23300  1.0000
  O   O2        1.0  0.51000  0.51600  0.26700  1.0000
  O   O3        1.0  0.49000  0.48400  0.73300  1.0000
  O   O4        1.0  0.24100  0.01580  0.76700  1.0000
  Rb  Rb1       1.0  0.22800  0.25000  0.25000  1.0000
  Rb  Rb2       1.0  0.77200  0.75000  0.75000  1.0000
  V   V1        1.0  0.50000  0.50000  0.00000  1.0000
  V   V2        1.0  0.00000  0.00000  0.50000  1.0000
