data_image0
_chemical_formula_structural       In8Rh4Zr10
_chemical_formula_sum              "In8 Rh4 Zr10"
_cell_length_a       18.3076
_cell_length_b       8.01651
_cell_length_c       3.48461
_cell_angle_alpha    90
_cell_angle_beta     90
_cell_angle_gamma    90

_space_group_name_H-M_alt    "P 1"
_space_group_IT_number       1

loop_
  _space_group_symop_operation_xyz
  'x, y, z'

loop_
  _atom_site_type_symbol
  _atom_site_label
  _atom_site_symmetry_multiplicity
  _atom_site_fract_x
  _atom_site_fract_y
  _atom_site_fract_z
  _atom_site_occupancy
  In  In1       1.0  0.85000  0.06330  0.50000  1.0000
  In  In2       1.0  0.56900  0.20000  0.50000  1.0000
  In  In3       1.0  0.06870  0.30000  0.50000  1.0000
  In  In4       1.0  0.35000  0.43700  0.50000  1.0000
  In  In5       1.0  0.65000  0.56300  0.50000  1.0000
  In  In6       1.0  0.93100  0.70000  0.50000  1.0000
  In  In7       1.0  0.43100  0.80000  0.50000  1.0000
  In  In8       1.0  0.15000  0.93700  0.50000  1.0000
  Rh  Rh1       1.0  0.30700  0.04760  0.50000  1.0000
  Rh  Rh2       1.0  0.80700  0.45200  0.50000  1.0000
  Rh  Rh3       1.0  0.19300  0.54800  0.50000  1.0000
  Rh  Rh4       1.0  0.69300  0.95200  0.50000  1.0000
  Zr  Zr1       1.0  0.00000  0.00000  0.00000  1.0000
  Zr  Zr2       1.0  0.41700  0.13300  0.00000  1.0000
  Zr  Zr3       1.0  0.72200  0.24000  0.00000  1.0000
  Zr  Zr4       1.0  0.22200  0.26000  0.00000  1.0000
  Zr  Zr5       1.0  0.91700  0.36700  0.00000  1.0000
  Zr  Zr6       1.0  0.50000  0.50000  0.00000  1.0000
  Zr  Zr7       1.0  0.08260  0.63300  0.00000  1.0000
  Zr  Zr8       1.0  0.77800  0.74000  0.00000  1.0000
  Zr  Zr9       1.0  0.27800  0.76000  0.00000  1.0000
  Zr  Zr10      1.0  0.58300  0.86700  0.00000  1.0000
