data_image0
_chemical_formula_structural       Bi7F11O5
_chemical_formula_sum              "Bi7 F11 O5"
_cell_length_a       5.44582
_cell_length_b       7.21676
_cell_length_c       9.10873
_cell_angle_alpha    95.5283
_cell_angle_beta     90
_cell_angle_gamma    112.167

_space_group_name_H-M_alt    "P 1"
_space_group_IT_number       1

loop_
  _space_group_symop_operation_xyz
  'x, y, z'

loop_
  _atom_site_type_symbol
  _atom_site_label
  _atom_site_symmetry_multiplicity
  _atom_site_fract_x
  _atom_site_fract_y
  _atom_site_fract_z
  _atom_site_occupancy
  Bi  Bi1       1.0  0.95100  0.74700  0.07860  1.0000
  Bi  Bi2       1.0  0.57600  0.14300  0.21200  1.0000
  Bi  Bi3       1.0  0.32300  0.61100  0.35800  1.0000
  Bi  Bi4       1.0  0.10000  0.00000  0.50000  1.0000
  Bi  Bi5       1.0  0.71300  0.38900  0.64200  1.0000
  Bi  Bi6       1.0  0.43300  0.85700  0.78800  1.0000
  Bi  Bi7       1.0  0.20400  0.25300  0.92100  1.0000
  F   F1        1.0  0.79900  0.00000  0.00000  1.0000
  F   F2        1.0  0.27000  0.61700  0.03590  1.0000
  F   F3        1.0  0.25800  0.28000  0.19200  1.0000
  F   F4        1.0  0.88000  0.50900  0.26000  1.0000
  F   F5        1.0  0.72500  0.88400  0.28200  1.0000
  F   F6        1.0  0.03610  0.34500  0.47800  1.0000
  F   F7        1.0  0.69100  0.65500  0.52200  1.0000
  F   F8        1.0  0.84100  0.11600  0.71800  1.0000
  F   F9        1.0  0.37000  0.49100  0.74000  1.0000
  F   F10       1.0  0.97700  0.72000  0.80800  1.0000
  F   F11       1.0  0.65200  0.38300  0.96400  1.0000
  O   O1        1.0  0.29800  0.00000  0.00000  1.0000
  O   O2        1.0  0.22900  0.88100  0.27600  1.0000
  O   O3        1.0  0.48600  0.22100  0.44800  1.0000
  O   O4        1.0  0.26400  0.77900  0.55200  1.0000
  O   O5        1.0  0.34800  0.11900  0.72400  1.0000
