data_image0
_chemical_formula_structural       N12OP6Zn4
_chemical_formula_sum              "N12 O1 P6 Zn4"
_cell_length_a       6.96422
_cell_length_b       6.96422
_cell_length_c       6.96422
_cell_angle_alpha    109.471
_cell_angle_beta     109.471
_cell_angle_gamma    109.471

_space_group_name_H-M_alt    "P 1"
_space_group_IT_number       1

loop_
  _space_group_symop_operation_xyz
  'x, y, z'

loop_
  _atom_site_type_symbol
  _atom_site_label
  _atom_site_symmetry_multiplicity
  _atom_site_fract_x
  _atom_site_fract_y
  _atom_site_fract_z
  _atom_site_occupancy
  N   N1        1.0  0.53900  0.26400  0.00000  1.0000
  N   N2        1.0  0.26400  0.53900  0.00000  1.0000
  N   N3        1.0  0.53900  0.00000  0.26400  1.0000
  N   N4        1.0  0.00000  0.53900  0.26400  1.0000
  N   N5        1.0  0.73600  0.73600  0.27500  1.0000
  N   N6        1.0  0.72500  0.46100  0.46100  1.0000
  N   N7        1.0  0.46100  0.72500  0.46100  1.0000
  N   N8        1.0  0.26400  0.00000  0.53900  1.0000
  N   N9        1.0  0.00000  0.26400  0.53900  1.0000
  N   N10       1.0  0.46100  0.46100  0.72500  1.0000
  N   N11       1.0  0.73600  0.27500  0.73600  1.0000
  N   N12       1.0  0.27500  0.73600  0.73600  1.0000
  O   O1        1.0  0.00000  0.00000  0.00000  1.0000
  P   P1        1.0  0.75000  0.50000  0.25000  1.0000
  P   P2        1.0  0.50000  0.75000  0.25000  1.0000
  P   P3        1.0  0.75000  0.25000  0.50000  1.0000
  P   P4        1.0  0.25000  0.75000  0.50000  1.0000
  P   P5        1.0  0.50000  0.25000  0.75000  1.0000
  P   P6        1.0  0.25000  0.50000  0.75000  1.0000
  Zn  Zn1       1.0  0.29700  0.00000  0.00000  1.0000
  Zn  Zn2       1.0  0.00000  0.29700  0.00000  1.0000
  Zn  Zn3       1.0  0.00000  0.00000  0.29700  1.0000
  Zn  Zn4       1.0  0.70300  0.70300  0.70300  1.0000
