data_image0
_chemical_formula_structural       BaMo4O16P2
_chemical_formula_sum              "Ba1 Mo4 O16 P2"
_cell_length_a       7.4573
_cell_length_b       7.4573
_cell_length_c       7.62805
_cell_angle_alpha    119.262
_cell_angle_beta     119.262
_cell_angle_gamma    90

_space_group_name_H-M_alt    "P 1"
_space_group_IT_number       1

loop_
  _space_group_symop_operation_xyz
  'x, y, z'

loop_
  _atom_site_type_symbol
  _atom_site_label
  _atom_site_symmetry_multiplicity
  _atom_site_fract_x
  _atom_site_fract_y
  _atom_site_fract_z
  _atom_site_occupancy
  Ba  Ba1       1.0  0.00000  0.00000  0.00000  1.0000
  Mo  Mo1       1.0  0.75600  0.51000  0.26700  1.0000
  Mo  Mo2       1.0  0.51000  0.75600  0.26700  1.0000
  Mo  Mo3       1.0  0.24400  0.24400  0.73300  1.0000
  Mo  Mo4       1.0  0.49000  0.49000  0.73300  1.0000
  O   O1        1.0  0.70800  0.19300  0.16200  1.0000
  O   O2        1.0  0.96800  0.45300  0.16200  1.0000
  O   O3        1.0  0.19300  0.70800  0.16200  1.0000
  O   O4        1.0  0.45300  0.96800  0.16200  1.0000
  O   O5        1.0  0.45800  0.45800  0.17800  1.0000
  O   O6        1.0  0.72100  0.72100  0.17800  1.0000
  O   O7        1.0  0.07060  0.07060  0.42500  1.0000
  O   O8        1.0  0.35500  0.35500  0.42500  1.0000
  O   O9        1.0  0.92900  0.64500  0.57500  1.0000
  O   O10       1.0  0.64500  0.92900  0.57500  1.0000
  O   O11       1.0  0.54200  0.27900  0.82200  1.0000
  O   O12       1.0  0.27900  0.54200  0.82200  1.0000
  O   O13       1.0  0.29200  0.03180  0.83800  1.0000
  O   O14       1.0  0.03180  0.29200  0.83800  1.0000
  O   O15       1.0  0.80700  0.54700  0.83800  1.0000
  O   O16       1.0  0.54700  0.80700  0.83800  1.0000
  P   P1        1.0  0.50000  0.00000  0.00000  1.0000
  P   P2        1.0  0.00000  0.50000  0.00000  1.0000
