data_image0
_chemical_formula_structural       Ca6Li2O12Os2
_chemical_formula_sum              "Ca6 Li2 O12 Os2"
_cell_length_a       6.42344
_cell_length_b       6.42343
_cell_length_c       6.42343
_cell_angle_alpha    91.9394
_cell_angle_beta     91.9394
_cell_angle_gamma    91.9394

_space_group_name_H-M_alt    "P 1"
_space_group_IT_number       1

loop_
  _space_group_symop_operation_xyz
  'x, y, z'

loop_
  _atom_site_type_symbol
  _atom_site_label
  _atom_site_symmetry_multiplicity
  _atom_site_fract_x
  _atom_site_fract_y
  _atom_site_fract_z
  _atom_site_occupancy
  Ca  Ca1       1.0  0.75000  0.39500  0.10500  1.0000
  Ca  Ca2       1.0  0.60500  0.89500  0.25000  1.0000
  Ca  Ca3       1.0  0.10500  0.75000  0.39500  1.0000
  Ca  Ca4       1.0  0.89500  0.25000  0.60500  1.0000
  Ca  Ca5       1.0  0.39500  0.10500  0.75000  1.0000
  Ca  Ca6       1.0  0.25000  0.60500  0.89500  1.0000
  Li  Li1       1.0  0.25000  0.25000  0.25000  1.0000
  Li  Li2       1.0  0.75000  0.75000  0.75000  1.0000
  O   O1        1.0  0.92100  0.70700  0.04990  1.0000
  O   O2        1.0  0.29300  0.95000  0.07910  1.0000
  O   O3        1.0  0.42100  0.55000  0.20700  1.0000
  O   O4        1.0  0.95000  0.07910  0.29300  1.0000
  O   O5        1.0  0.55000  0.20700  0.42100  1.0000
  O   O6        1.0  0.79300  0.57900  0.45000  1.0000
  O   O7        1.0  0.20700  0.42100  0.55000  1.0000
  O   O8        1.0  0.45000  0.79300  0.57900  1.0000
  O   O9        1.0  0.04990  0.92100  0.70700  1.0000
  O   O10       1.0  0.57900  0.45000  0.79300  1.0000
  O   O11       1.0  0.70700  0.04990  0.92100  1.0000
  O   O12       1.0  0.07910  0.29300  0.95000  1.0000
  Os  Os1       1.0  0.00000  0.00000  0.00000  1.0000
  Os  Os2       1.0  0.50000  0.50000  0.50000  1.0000
