data_image0
_chemical_formula_structural       Cd3Na2O14P4
_chemical_formula_sum              "Cd3 Na2 O14 P4"
_cell_length_a       5.65468
_cell_length_b       7.00385
_cell_length_c       7.85666
_cell_angle_alpha    76.9728
_cell_angle_beta     82.7551
_cell_angle_gamma    67.695

_space_group_name_H-M_alt    "P 1"
_space_group_IT_number       1

loop_
  _space_group_symop_operation_xyz
  'x, y, z'

loop_
  _atom_site_type_symbol
  _atom_site_label
  _atom_site_symmetry_multiplicity
  _atom_site_fract_x
  _atom_site_fract_y
  _atom_site_fract_z
  _atom_site_occupancy
  Cd  Cd1       1.0  0.00000  0.00000  0.00000  1.0000
  Cd  Cd2       1.0  0.18800  0.53800  0.30700  1.0000
  Cd  Cd3       1.0  0.81200  0.46200  0.69300  1.0000
  Na  Na1       1.0  0.41600  0.99100  0.31900  1.0000
  Na  Na2       1.0  0.58400  0.00900  0.68100  1.0000
  O   O1        1.0  0.31400  0.29900  0.12000  1.0000
  O   O2        1.0  0.37100  0.76400  0.14300  1.0000
  O   O3        1.0  0.74700  0.42400  0.14800  1.0000
  O   O4        1.0  0.81300  0.76300  0.15800  1.0000
  O   O5        1.0  0.96500  0.05390  0.28200  1.0000
  O   O6        1.0  0.54700  0.26400  0.42800  1.0000
  O   O7        1.0  0.94900  0.34000  0.44000  1.0000
  O   O8        1.0  0.05110  0.66000  0.56000  1.0000
  O   O9        1.0  0.45300  0.73600  0.57200  1.0000
  O   O10       1.0  0.03470  0.94600  0.71800  1.0000
  O   O11       1.0  0.18700  0.23700  0.84200  1.0000
  O   O12       1.0  0.25300  0.57600  0.85200  1.0000
  O   O13       1.0  0.62900  0.23600  0.85700  1.0000
  O   O14       1.0  0.68600  0.70100  0.88000  1.0000
  P   P1        1.0  0.65400  0.67300  0.07610  1.0000
  P   P2        1.0  0.80400  0.26100  0.33600  1.0000
  P   P3        1.0  0.19600  0.73900  0.66400  1.0000
  P   P4        1.0  0.34600  0.32700  0.92400  1.0000
