data_image0
_chemical_formula_structural       Cu5Nd5O13
_chemical_formula_sum              "Cu5 Nd5 O13"
_cell_length_a       8.41424
_cell_length_b       8.41386
_cell_length_c       3.78366
_cell_angle_alpha    90
_cell_angle_beta     90
_cell_angle_gamma    90.2243

_space_group_name_H-M_alt    "P 1"
_space_group_IT_number       1

loop_
  _space_group_symop_operation_xyz
  'x, y, z'

loop_
  _atom_site_type_symbol
  _atom_site_label
  _atom_site_symmetry_multiplicity
  _atom_site_fract_x
  _atom_site_fract_y
  _atom_site_fract_z
  _atom_site_occupancy
  Cu  Cu1       1.0  0.00000  0.00000  0.00000  1.0000
  Cu  Cu2       1.0  0.56300  0.16300  0.00000  1.0000
  Cu  Cu3       1.0  0.16000  0.43600  0.00000  1.0000
  Cu  Cu4       1.0  0.84000  0.56400  0.00000  1.0000
  Cu  Cu5       1.0  0.43700  0.83700  0.00000  1.0000
  Nd  Nd1       1.0  0.26100  0.15500  0.50000  1.0000
  Nd  Nd2       1.0  0.84600  0.26100  0.50000  1.0000
  Nd  Nd3       1.0  0.50000  0.50000  0.50000  1.0000
  Nd  Nd4       1.0  0.15400  0.73900  0.50000  1.0000
  Nd  Nd5       1.0  0.73900  0.84500  0.50000  1.0000
  O   O1        1.0  0.75200  0.03940  0.00000  1.0000
  O   O2        1.0  0.04160  0.24300  0.00000  1.0000
  O   O3        1.0  0.38800  0.30100  0.00000  1.0000
  O   O4        1.0  0.70500  0.38600  0.00000  1.0000
  O   O5        1.0  0.29500  0.61400  0.00000  1.0000
  O   O6        1.0  0.61200  0.69900  0.00000  1.0000
  O   O7        1.0  0.95800  0.75700  0.00000  1.0000
  O   O8        1.0  0.24800  0.96100  0.00000  1.0000
  O   O9        1.0  0.00000  0.00000  0.50000  1.0000
  O   O10       1.0  0.56100  0.18100  0.50000  1.0000
  O   O11       1.0  0.17800  0.43800  0.50000  1.0000
  O   O12       1.0  0.82200  0.56200  0.50000  1.0000
  O   O13       1.0  0.43900  0.81900  0.50000  1.0000
