data_image0
_chemical_formula_structural       BaMn2O14Si4Sr2
_chemical_formula_sum              "Ba1 Mn2 O14 Si4 Sr2"
_cell_length_a       5.14217
_cell_length_b       7.78066
_cell_length_c       8.27714
_cell_angle_alpha    118.035
_cell_angle_beta     92.8865
_cell_angle_gamma    90

_space_group_name_H-M_alt    "P 1"
_space_group_IT_number       1

loop_
  _space_group_symop_operation_xyz
  'x, y, z'

loop_
  _atom_site_type_symbol
  _atom_site_label
  _atom_site_symmetry_multiplicity
  _atom_site_fract_x
  _atom_site_fract_y
  _atom_site_fract_z
  _atom_site_occupancy
  Ba  Ba1       1.0  0.00000  0.99800  0.00000  1.0000
  Mn  Mn1       1.0  0.00000  0.46900  0.00000  1.0000
  Mn  Mn2       1.0  0.50000  0.66500  0.00000  1.0000
  O   O1        1.0  0.22300  0.35200  0.12200  1.0000
  O   O2        1.0  0.19200  0.71000  0.12500  1.0000
  O   O3        1.0  0.63600  0.94900  0.19100  1.0000
  O   O4        1.0  0.67500  0.58700  0.19900  1.0000
  O   O5        1.0  0.63100  0.33300  0.32500  1.0000
  O   O6        1.0  0.20600  0.15100  0.36800  1.0000
  O   O7        1.0  0.32700  0.63800  0.45400  1.0000
  O   O8        1.0  0.67300  0.18400  0.54600  1.0000
  O   O9        1.0  0.79400  0.78400  0.63200  1.0000
  O   O10       1.0  0.36900  0.00803  0.67500  1.0000
  O   O11       1.0  0.32500  0.38900  0.80100  1.0000
  O   O12       1.0  0.36400  0.75800  0.80900  1.0000
  O   O13       1.0  0.80800  0.58500  0.87500  1.0000
  O   O14       1.0  0.77700  0.23100  0.87800  1.0000
  Si  Si1       1.0  0.46400  0.47800  0.26100  1.0000
  Si  Si2       1.0  0.51400  0.14400  0.34700  1.0000
  Si  Si3       1.0  0.48600  0.79700  0.65300  1.0000
  Si  Si4       1.0  0.53600  0.21700  0.73900  1.0000
  Sr  Sr1       1.0  0.98100  0.88200  0.41100  1.0000
  Sr  Sr2       1.0  0.01860  0.47100  0.58900  1.0000
