data_image0
_chemical_formula_structural       Br2Ni5O12Se4
_chemical_formula_sum              "Br2 Ni5 O12 Se4"
_cell_length_a       6.44494
_cell_length_b       7.57765
_cell_length_c       7.60872
_cell_angle_alpha    67.8164
_cell_angle_beta     74.0042
_cell_angle_gamma    81.5755

_space_group_name_H-M_alt    "P 1"
_space_group_IT_number       1

loop_
  _space_group_symop_operation_xyz
  'x, y, z'

loop_
  _atom_site_type_symbol
  _atom_site_label
  _atom_site_symmetry_multiplicity
  _atom_site_fract_x
  _atom_site_fract_y
  _atom_site_fract_z
  _atom_site_occupancy
  Br  Br1       1.0  0.70700  0.65600  0.02750  1.0000
  Br  Br2       1.0  0.29300  0.34400  0.97300  1.0000
  Ni  Ni1       1.0  0.50000  0.00000  0.00000  1.0000
  Ni  Ni2       1.0  0.17700  0.12700  0.35100  1.0000
  Ni  Ni3       1.0  0.63200  0.69100  0.41400  1.0000
  Ni  Ni4       1.0  0.36800  0.30900  0.58600  1.0000
  Ni  Ni5       1.0  0.82300  0.87300  0.64900  1.0000
  O   O1        1.0  0.66300  0.95900  0.20500  1.0000
  O   O2        1.0  0.23100  0.92700  0.21200  1.0000
  O   O3        1.0  0.45600  0.20600  0.36600  1.0000
  O   O4        1.0  0.86100  0.09850  0.39300  1.0000
  O   O5        1.0  0.33800  0.59500  0.45700  1.0000
  O   O6        1.0  0.91900  0.69700  0.48000  1.0000
  O   O7        1.0  0.08100  0.30300  0.52000  1.0000
  O   O8        1.0  0.66200  0.40500  0.54300  1.0000
  O   O9        1.0  0.13900  0.90100  0.60700  1.0000
  O   O10       1.0  0.54400  0.79400  0.63400  1.0000
  O   O11       1.0  0.76900  0.07310  0.78800  1.0000
  O   O12       1.0  0.33700  0.04140  0.79500  1.0000
  Se  Se1       1.0  0.70700  0.17100  0.22400  1.0000
  Se  Se2       1.0  0.16000  0.69200  0.30900  1.0000
  Se  Se3       1.0  0.84000  0.30800  0.69100  1.0000
  Se  Se4       1.0  0.29300  0.82900  0.77600  1.0000
