data_image0
_chemical_formula_structural       Ni9Yb3
_chemical_formula_sum              "Ni9 Yb3"
_cell_length_a       4.89994
_cell_length_b       4.89994
_cell_length_c       8.49175
_cell_angle_alpha    106.769
_cell_angle_beta     73.2311
_cell_angle_gamma    120

_space_group_name_H-M_alt    "P 1"
_space_group_IT_number       1

loop_
  _space_group_symop_operation_xyz
  'x, y, z'

loop_
  _atom_site_type_symbol
  _atom_site_label
  _atom_site_symmetry_multiplicity
  _atom_site_fract_x
  _atom_site_fract_y
  _atom_site_fract_z
  _atom_site_occupancy
  Ni  Ni1       1.0  0.33300  0.66700  0.00233  1.0000
  Ni  Ni2       1.0  0.41800  0.08180  0.24600  1.0000
  Ni  Ni3       1.0  0.41800  0.58200  0.24600  1.0000
  Ni  Ni4       1.0  0.91800  0.58200  0.24600  1.0000
  Ni  Ni5       1.0  0.50000  0.50000  0.50000  1.0000
  Ni  Ni6       1.0  0.08180  0.41800  0.75400  1.0000
  Ni  Ni7       1.0  0.58200  0.41800  0.75400  1.0000
  Ni  Ni8       1.0  0.58200  0.91800  0.75400  1.0000
  Ni  Ni9       1.0  0.66700  0.33300  0.99800  1.0000
  Yb  Yb1       1.0  0.00000  0.00000  0.00000  1.0000
  Yb  Yb2       1.0  0.85900  0.14100  0.42200  1.0000
  Yb  Yb3       1.0  0.14100  0.85900  0.57800  1.0000
