data_image0
_chemical_formula_structural       CuN6O12PbRb2
_chemical_formula_sum              "Cu1 N6 O12 Pb1 Rb2"
_cell_length_a       7.2405
_cell_length_b       7.2405
_cell_length_c       7.24427
_cell_angle_alpha    119.589
_cell_angle_beta     119.589
_cell_angle_gamma    90.6839

_space_group_name_H-M_alt    "P 1"
_space_group_IT_number       1

loop_
  _space_group_symop_operation_xyz
  'x, y, z'

loop_
  _atom_site_type_symbol
  _atom_site_label
  _atom_site_symmetry_multiplicity
  _atom_site_fract_x
  _atom_site_fract_y
  _atom_site_fract_z
  _atom_site_occupancy
  Cu  Cu1       1.0  0.00000  0.00000  0.00000  1.0000
  N   N1        1.0  0.19600  0.19600  0.00000  1.0000
  N   N2        1.0  0.79800  0.20200  0.00000  1.0000
  N   N3        1.0  0.20200  0.79800  0.00000  1.0000
  N   N4        1.0  0.80400  0.80400  0.00000  1.0000
  N   N5        1.0  0.20200  0.20200  0.40400  1.0000
  N   N6        1.0  0.79800  0.79800  0.59600  1.0000
  O   O1        1.0  0.36400  0.15300  0.00000  1.0000
  O   O2        1.0  0.15300  0.36400  0.00000  1.0000
  O   O3        1.0  0.84700  0.63600  0.00000  1.0000
  O   O4        1.0  0.63600  0.84700  0.00000  1.0000
  O   O5        1.0  0.84100  0.37000  0.21100  1.0000
  O   O6        1.0  0.37000  0.84100  0.21100  1.0000
  O   O7        1.0  0.62900  0.62900  0.47100  1.0000
  O   O8        1.0  0.84200  0.84200  0.47100  1.0000
  O   O9        1.0  0.15800  0.15800  0.52900  1.0000
  O   O10       1.0  0.37100  0.37100  0.52900  1.0000
  O   O11       1.0  0.63000  0.15900  0.78900  1.0000
  O   O12       1.0  0.15900  0.63000  0.78900  1.0000
  Pb  Pb1       1.0  0.50000  0.50000  0.00000  1.0000
  Rb  Rb1       1.0  0.75000  0.25000  0.50000  1.0000
  Rb  Rb2       1.0  0.25000  0.75000  0.50000  1.0000
