data_image0
_chemical_formula_structural       Ba6Cl2IrNb2O12
_chemical_formula_sum              "Ba6 Cl2 Ir1 Nb2 O12"
_cell_length_a       5.92514
_cell_length_b       5.92515
_cell_length_c       14.8582
_cell_angle_alpha    90
_cell_angle_beta     89.9999
_cell_angle_gamma    120

_space_group_name_H-M_alt    "P 1"
_space_group_IT_number       1

loop_
  _space_group_symop_operation_xyz
  'x, y, z'

loop_
  _atom_site_type_symbol
  _atom_site_label
  _atom_site_symmetry_multiplicity
  _atom_site_fract_x
  _atom_site_fract_y
  _atom_site_fract_z
  _atom_site_occupancy
  Ba  Ba1       1.0  0.33300  0.66700  0.07240  1.0000
  Ba  Ba2       1.0  0.66700  0.33300  0.21100  1.0000
  Ba  Ba3       1.0  0.33300  0.66700  0.36900  1.0000
  Ba  Ba4       1.0  0.66700  0.33300  0.63100  1.0000
  Ba  Ba5       1.0  0.33300  0.66700  0.78900  1.0000
  Ba  Ba6       1.0  0.66700  0.33300  0.92800  1.0000
  Cl  Cl1       1.0  0.66700  0.33300  0.42100  1.0000
  Cl  Cl2       1.0  0.33300  0.66700  0.57900  1.0000
  Ir  Ir1       1.0  0.00000  0.00000  0.00000  1.0000
  Nb  Nb1       1.0  0.00000  0.00000  0.18700  1.0000
  Nb  Nb2       1.0  0.00000  0.00000  0.81300  1.0000
  O   O1        1.0  0.84400  0.68700  0.08310  1.0000
  O   O2        1.0  0.84400  0.15600  0.08310  1.0000
  O   O3        1.0  0.31300  0.15600  0.08310  1.0000
  O   O4        1.0  0.67100  0.83500  0.24500  1.0000
  O   O5        1.0  0.16500  0.83500  0.24500  1.0000
  O   O6        1.0  0.16500  0.32900  0.24500  1.0000
  O   O7        1.0  0.83500  0.67100  0.75500  1.0000
  O   O8        1.0  0.83500  0.16500  0.75500  1.0000
  O   O9        1.0  0.32900  0.16500  0.75500  1.0000
  O   O10       1.0  0.68700  0.84400  0.91700  1.0000
  O   O11       1.0  0.15600  0.84400  0.91700  1.0000
  O   O12       1.0  0.15600  0.31300  0.91700  1.0000
