data_image0
_chemical_formula_structural       K4N6O12Ru
_chemical_formula_sum              "K4 N6 O12 Ru1"
_cell_length_a       8.28263
_cell_length_b       8.28263
_cell_length_c       8.28263
_cell_angle_alpha    52.1814
_cell_angle_beta     52.1814
_cell_angle_gamma    52.1814

_space_group_name_H-M_alt    "P 1"
_space_group_IT_number       1

loop_
  _space_group_symop_operation_xyz
  'x, y, z'

loop_
  _atom_site_type_symbol
  _atom_site_label
  _atom_site_symmetry_multiplicity
  _atom_site_fract_x
  _atom_site_fract_y
  _atom_site_fract_z
  _atom_site_occupancy
  K   K1        1.0  0.18800  0.18800  0.18800  1.0000
  K   K2        1.0  0.38600  0.38600  0.38600  1.0000
  K   K3        1.0  0.61400  0.61400  0.61400  1.0000
  K   K4        1.0  0.81200  0.81200  0.81200  1.0000
  N   N1        1.0  0.08110  0.68200  0.06830  1.0000
  N   N2        1.0  0.68200  0.06830  0.08110  1.0000
  N   N3        1.0  0.93200  0.91900  0.31800  1.0000
  N   N4        1.0  0.06830  0.08110  0.68200  1.0000
  N   N5        1.0  0.31800  0.93200  0.91900  1.0000
  N   N6        1.0  0.91900  0.31800  0.93200  1.0000
  O   O1        1.0  0.54300  0.26500  0.04240  1.0000
  O   O2        1.0  0.83700  0.38100  0.08230  1.0000
  O   O3        1.0  0.61900  0.91800  0.16300  1.0000
  O   O4        1.0  0.04240  0.54300  0.26500  1.0000
  O   O5        1.0  0.08230  0.83700  0.38100  1.0000
  O   O6        1.0  0.73500  0.95800  0.45700  1.0000
  O   O7        1.0  0.26500  0.04240  0.54300  1.0000
  O   O8        1.0  0.91800  0.16300  0.61900  1.0000
  O   O9        1.0  0.95800  0.45700  0.73500  1.0000
  O   O10       1.0  0.38100  0.08230  0.83700  1.0000
  O   O11       1.0  0.16300  0.61900  0.91800  1.0000
  O   O12       1.0  0.45700  0.73500  0.95800  1.0000
  Ru  Ru1       1.0  0.00000  0.00000  0.00000  1.0000
