data_image0
_chemical_formula_structural       Ba3Fe3NbO14Si2
_chemical_formula_sum              "Ba3 Fe3 Nb1 O14 Si2"
_cell_length_a       8.54029
_cell_length_b       8.54025
_cell_length_c       5.24683
_cell_angle_alpha    90
_cell_angle_beta     89.9997
_cell_angle_gamma    120

_space_group_name_H-M_alt    "P 1"
_space_group_IT_number       1

loop_
  _space_group_symop_operation_xyz
  'x, y, z'

loop_
  _atom_site_type_symbol
  _atom_site_label
  _atom_site_symmetry_multiplicity
  _atom_site_fract_x
  _atom_site_fract_y
  _atom_site_fract_z
  _atom_site_occupancy
  Ba  Ba1       1.0  0.56500  0.00000  0.00000  1.0000
  Ba  Ba2       1.0  0.43500  0.43500  0.00000  1.0000
  Ba  Ba3       1.0  0.00000  0.56500  0.00000  1.0000
  Fe  Fe1       1.0  0.75000  0.75000  0.50000  1.0000
  Fe  Fe2       1.0  0.00000  0.25000  0.50000  1.0000
  Fe  Fe3       1.0  0.25000  0.00000  0.50000  1.0000
  Nb  Nb1       1.0  0.00000  0.00000  0.00000  1.0000
  O   O1        1.0  0.66700  0.33300  0.21700  1.0000
  O   O2        1.0  0.88100  0.09960  0.22500  1.0000
  O   O3        1.0  0.90000  0.78100  0.22500  1.0000
  O   O4        1.0  0.21900  0.11900  0.22500  1.0000
  O   O5        1.0  0.52700  0.70300  0.35000  1.0000
  O   O6        1.0  0.29700  0.82300  0.35000  1.0000
  O   O7        1.0  0.17700  0.47300  0.35000  1.0000
  O   O8        1.0  0.82300  0.29700  0.65000  1.0000
  O   O9        1.0  0.70300  0.52700  0.65000  1.0000
  O   O10       1.0  0.47300  0.17700  0.65000  1.0000
  O   O11       1.0  0.78100  0.90000  0.77500  1.0000
  O   O12       1.0  0.09960  0.88100  0.77500  1.0000
  O   O13       1.0  0.11900  0.21900  0.77500  1.0000
  O   O14       1.0  0.33300  0.66700  0.78300  1.0000
  Si  Si1       1.0  0.33300  0.66700  0.47700  1.0000
  Si  Si2       1.0  0.66700  0.33300  0.52300  1.0000
