data_image0
_chemical_formula_structural       Dy6Fe16O
_chemical_formula_sum              "Dy6 Fe16 O1"
_cell_length_a       8.02657
_cell_length_b       8.02657
_cell_length_c       8.02657
_cell_angle_alpha    109.471
_cell_angle_beta     109.471
_cell_angle_gamma    109.471

_space_group_name_H-M_alt    "P 1"
_space_group_IT_number       1

loop_
  _space_group_symop_operation_xyz
  'x, y, z'

loop_
  _atom_site_type_symbol
  _atom_site_label
  _atom_site_symmetry_multiplicity
  _atom_site_fract_x
  _atom_site_fract_y
  _atom_site_fract_z
  _atom_site_occupancy
  Dy  Dy1       1.0  0.26700  0.26700  0.00000  1.0000
  Dy  Dy2       1.0  0.73300  0.73300  0.00000  1.0000
  Dy  Dy3       1.0  0.26700  0.00000  0.26700  1.0000
  Dy  Dy4       1.0  0.00000  0.26700  0.26700  1.0000
  Dy  Dy5       1.0  0.73300  0.00000  0.73300  1.0000
  Dy  Dy6       1.0  0.00000  0.73300  0.73300  1.0000
  Fe  Fe1       1.0  0.50000  0.00000  0.00000  1.0000
  Fe  Fe2       1.0  0.66400  0.33600  0.00000  1.0000
  Fe  Fe3       1.0  0.00000  0.50000  0.00000  1.0000
  Fe  Fe4       1.0  0.33600  0.66400  0.00000  1.0000
  Fe  Fe5       1.0  0.66400  0.66400  0.32800  1.0000
  Fe  Fe6       1.0  0.67200  0.33600  0.33600  1.0000
  Fe  Fe7       1.0  0.33600  0.67200  0.33600  1.0000
  Fe  Fe8       1.0  0.66400  0.00000  0.33600  1.0000
  Fe  Fe9       1.0  0.00000  0.66400  0.33600  1.0000
  Fe  Fe10      1.0  0.00000  0.00000  0.50000  1.0000
  Fe  Fe11      1.0  0.50000  0.50000  0.50000  1.0000
  Fe  Fe12      1.0  0.33600  0.00000  0.66400  1.0000
  Fe  Fe13      1.0  0.66400  0.32800  0.66400  1.0000
  Fe  Fe14      1.0  0.00000  0.33600  0.66400  1.0000
  Fe  Fe15      1.0  0.32800  0.66400  0.66400  1.0000
  Fe  Fe16      1.0  0.33600  0.33600  0.67200  1.0000
  O   O1        1.0  0.00000  0.00000  0.00000  1.0000
