data_image0
_chemical_formula_structural       As2O14Pb3TeZn3
_chemical_formula_sum              "As2 O14 Pb3 Te1 Zn3"
_cell_length_a       8.48697
_cell_length_b       8.48694
_cell_length_c       5.26189
_cell_angle_alpha    90
_cell_angle_beta     89.9998
_cell_angle_gamma    120

_space_group_name_H-M_alt    "P 1"
_space_group_IT_number       1

loop_
  _space_group_symop_operation_xyz
  'x, y, z'

loop_
  _atom_site_type_symbol
  _atom_site_label
  _atom_site_symmetry_multiplicity
  _atom_site_fract_x
  _atom_site_fract_y
  _atom_site_fract_z
  _atom_site_occupancy
  As  As1       1.0  0.66700  0.33300  0.45700  1.0000
  As  As2       1.0  0.33300  0.66700  0.54300  1.0000
  O   O1        1.0  0.78400  0.91200  0.21200  1.0000
  O   O2        1.0  0.12700  0.21600  0.21200  1.0000
  O   O3        1.0  0.08830  0.87300  0.21200  1.0000
  O   O4        1.0  0.33300  0.66700  0.22000  1.0000
  O   O5        1.0  0.45800  0.18900  0.32100  1.0000
  O   O6        1.0  0.73100  0.54200  0.32100  1.0000
  O   O7        1.0  0.81100  0.26800  0.32100  1.0000
  O   O8        1.0  0.18900  0.45800  0.67900  1.0000
  O   O9        1.0  0.26900  0.81100  0.67900  1.0000
  O   O10       1.0  0.54200  0.73200  0.67900  1.0000
  O   O11       1.0  0.66700  0.33300  0.78000  1.0000
  O   O12       1.0  0.91200  0.78400  0.78800  1.0000
  O   O13       1.0  0.87300  0.08830  0.78800  1.0000
  O   O14       1.0  0.21600  0.12700  0.78800  1.0000
  Pb  Pb1       1.0  0.59200  0.00000  0.00000  1.0000
  Pb  Pb2       1.0  0.40800  0.40800  0.00000  1.0000
  Pb  Pb3       1.0  0.00000  0.59200  0.00000  1.0000
  Te  Te1       1.0  0.00000  0.00000  0.00000  1.0000
  Zn  Zn1       1.0  0.23900  0.00000  0.50000  1.0000
  Zn  Zn2       1.0  0.00000  0.23900  0.50000  1.0000
  Zn  Zn3       1.0  0.76100  0.76100  0.50000  1.0000
