data_image0
_chemical_formula_structural       N2Ni6
_chemical_formula_sum              "N2 Ni6"
_cell_length_a       4.60258
_cell_length_b       4.60258
_cell_length_c       4.29996
_cell_angle_alpha    89.9938
_cell_angle_beta     90.0062
_cell_angle_gamma    120

_space_group_name_H-M_alt    "P 1"
_space_group_IT_number       1

loop_
  _space_group_symop_operation_xyz
  'x, y, z'

loop_
  _atom_site_type_symbol
  _atom_site_label
  _atom_site_symmetry_multiplicity
  _atom_site_fract_x
  _atom_site_fract_y
  _atom_site_fract_z
  _atom_site_occupancy
  N   N1        1.0  0.33300  0.66700  0.25000  1.0000
  N   N2        1.0  0.66700  0.33300  0.75000  1.0000
  Ni  Ni1       1.0  0.00000  0.32800  1.00000  1.0000
  Ni  Ni2       1.0  0.67200  0.67200  0.00000  1.0000
  Ni  Ni3       1.0  0.32800  0.00000  0.00002  1.0000
  Ni  Ni4       1.0  0.67200  0.00000  0.50000  1.0000
  Ni  Ni5       1.0  0.32800  0.32800  0.50000  1.0000
  Ni  Ni6       1.0  0.00000  0.67200  0.50000  1.0000
