data_image0
_chemical_formula_structural       FNaNb6O15
_chemical_formula_sum              "F1 Na1 Nb6 O15"
_cell_length_a       3.9233
_cell_length_b       9.00563
_cell_length_c       9.00563
_cell_angle_alpha    110.031
_cell_angle_beta     90
_cell_angle_gamma    90

_space_group_name_H-M_alt    "P 1"
_space_group_IT_number       1

loop_
  _space_group_symop_operation_xyz
  'x, y, z'

loop_
  _atom_site_type_symbol
  _atom_site_label
  _atom_site_symmetry_multiplicity
  _atom_site_fract_x
  _atom_site_fract_y
  _atom_site_fract_z
  _atom_site_occupancy
  F   F1        1.0  0.50000  0.00000  0.00019  1.0000
  Na  Na1       1.0  0.50000  0.59700  0.40300  1.0000
  Nb  Nb1       1.0  0.00000  0.99900  0.00052  1.0000
  Nb  Nb2       1.0  0.00000  0.78100  0.21900  1.0000
  Nb  Nb3       1.0  0.00000  0.26600  0.37800  1.0000
  Nb  Nb4       1.0  0.00000  0.00648  0.62700  1.0000
  Nb  Nb5       1.0  0.00000  0.62200  0.73400  1.0000
  Nb  Nb6       1.0  0.00000  0.37300  0.99400  1.0000
  O   O1        1.0  0.00000  0.23100  0.14300  1.0000
  O   O2        1.0  0.00000  0.55200  0.18600  1.0000
  O   O3        1.0  0.50000  0.77800  0.22200  1.0000
  O   O4        1.0  0.00000  0.01090  0.23200  1.0000
  O   O5        1.0  0.50000  0.28600  0.36400  1.0000
  O   O6        1.0  0.00000  0.81400  0.44800  1.0000
  O   O7        1.0  0.00000  0.49300  0.50700  1.0000
  O   O8        1.0  0.00000  0.17300  0.53800  1.0000
  O   O9        1.0  0.50000  0.00828  0.63800  1.0000
  O   O10       1.0  0.50000  0.63600  0.71400  1.0000
  O   O11       1.0  0.00000  0.85700  0.76900  1.0000
  O   O12       1.0  0.00000  0.46200  0.82700  1.0000
  O   O13       1.0  0.00000  0.13700  0.86300  1.0000
  O   O14       1.0  0.00000  0.76800  0.98900  1.0000
  O   O15       1.0  0.50000  0.36200  0.99200  1.0000
