data_image0
_chemical_formula_structural       Cu4In4S12Si2
_chemical_formula_sum              "Cu4 In4 S12 Si2"
_cell_length_a       6.83018
_cell_length_b       6.88454
_cell_length_c       11.9382
_cell_angle_alpha    105.832
_cell_angle_beta     106.622
_cell_angle_gamma    60.2609

_space_group_name_H-M_alt    "P 1"
_space_group_IT_number       1

loop_
  _space_group_symop_operation_xyz
  'x, y, z'

loop_
  _atom_site_type_symbol
  _atom_site_label
  _atom_site_symmetry_multiplicity
  _atom_site_fract_x
  _atom_site_fract_y
  _atom_site_fract_z
  _atom_site_occupancy
  Cu  Cu1       1.0  0.17300  0.29600  0.09120  1.0000
  Cu  Cu2       1.0  0.98100  0.04990  0.24700  1.0000
  Cu  Cu3       1.0  0.62200  0.79600  0.59100  1.0000
  Cu  Cu4       1.0  0.21600  0.55000  0.74700  1.0000
  In  In1       1.0  0.68700  0.73100  0.24700  1.0000
  In  In2       1.0  0.46200  0.27700  0.44100  1.0000
  In  In3       1.0  0.82900  0.23100  0.74700  1.0000
  In  In4       1.0  0.70200  0.77700  0.94100  1.0000
  S   S1        1.0  0.96900  0.70400  0.13800  1.0000
  S   S2        1.0  0.64400  0.37400  0.19300  1.0000
  S   S3        1.0  0.30500  0.09080  0.24800  1.0000
  S   S4        1.0  0.38300  0.67400  0.43900  1.0000
  S   S5        1.0  0.88700  0.15500  0.44100  1.0000
  S   S6        1.0  0.89300  0.64600  0.45600  1.0000
  S   S7        1.0  0.46500  0.20400  0.63800  1.0000
  S   S8        1.0  0.17500  0.87400  0.69300  1.0000
  S   S9        1.0  0.85200  0.59100  0.74800  1.0000
  S   S10       1.0  0.38200  0.17400  0.93900  1.0000
  S   S11       1.0  0.40000  0.65500  0.94100  1.0000
  S   S12       1.0  0.91700  0.14600  0.95600  1.0000
  Si  Si1       1.0  0.59000  0.34300  0.00574  1.0000
  Si  Si2       1.0  0.07250  0.84300  0.50600  1.0000
