data_image0
_chemical_formula_structural       Nd4Ni6
_chemical_formula_sum              "Nd4 Ni6"
_cell_length_a       6.55729
_cell_length_b       6.55729
_cell_length_c       6.91382
_cell_angle_alpha    118.308
_cell_angle_beta     61.6916
_cell_angle_gamma    120

_space_group_name_H-M_alt    "P 1"
_space_group_IT_number       1

loop_
  _space_group_symop_operation_xyz
  'x, y, z'

loop_
  _atom_site_type_symbol
  _atom_site_label
  _atom_site_symmetry_multiplicity
  _atom_site_fract_x
  _atom_site_fract_y
  _atom_site_fract_z
  _atom_site_occupancy
  Nd  Nd1       1.0  0.60500  0.39500  0.18600  1.0000
  Nd  Nd2       1.0  0.89500  0.10500  0.31400  1.0000
  Nd  Nd3       1.0  0.10500  0.89500  0.68600  1.0000
  Nd  Nd4       1.0  0.39500  0.60500  0.81400  1.0000
  Ni  Ni1       1.0  0.25000  0.95700  0.25000  1.0000
  Ni  Ni2       1.0  0.04310  0.54300  0.25000  1.0000
  Ni  Ni3       1.0  0.45700  0.75000  0.25000  1.0000
  Ni  Ni4       1.0  0.75000  0.04310  0.75000  1.0000
  Ni  Ni5       1.0  0.54300  0.25000  0.75000  1.0000
  Ni  Ni6       1.0  0.95700  0.45700  0.75000  1.0000
