data_image0
_chemical_formula_structural       F4H4O12S4
_chemical_formula_sum              "F4 H4 O12 S4"
_cell_length_a       4.56399
_cell_length_b       6.62567
_cell_length_c       8.46675
_cell_angle_alpha    90
_cell_angle_beta     90
_cell_angle_gamma    90

_space_group_name_H-M_alt    "P 1"
_space_group_IT_number       1

loop_
  _space_group_symop_operation_xyz
  'x, y, z'

loop_
  _atom_site_type_symbol
  _atom_site_label
  _atom_site_symmetry_multiplicity
  _atom_site_fract_x
  _atom_site_fract_y
  _atom_site_fract_z
  _atom_site_occupancy
  F   F1        1.0  0.22500  0.39600  0.23300  1.0000
  F   F2        1.0  0.77500  0.89600  0.26700  1.0000
  F   F3        1.0  0.27500  0.60400  0.73300  1.0000
  F   F4        1.0  0.72500  0.10400  0.76700  1.0000
  H   H1        1.0  0.33000  0.08480  0.20900  1.0000
  H   H2        1.0  0.67000  0.58500  0.29100  1.0000
  H   H3        1.0  0.17000  0.91500  0.70900  1.0000
  H   H4        1.0  0.83000  0.41500  0.79100  1.0000
  O   O1        1.0  0.72000  0.41400  0.05480  1.0000
  O   O2        1.0  0.26900  0.76900  0.10800  1.0000
  O   O3        1.0  0.85600  0.02040  0.12900  1.0000
  O   O4        1.0  0.14400  0.52000  0.37100  1.0000
  O   O5        1.0  0.73100  0.26900  0.39200  1.0000
  O   O6        1.0  0.28000  0.91400  0.44500  1.0000
  O   O7        1.0  0.78000  0.58600  0.55500  1.0000
  O   O8        1.0  0.23100  0.23100  0.60800  1.0000
  O   O9        1.0  0.64400  0.98000  0.62900  1.0000
  O   O10       1.0  0.35600  0.48000  0.87100  1.0000
  O   O11       1.0  0.76900  0.73100  0.89200  1.0000
  O   O12       1.0  0.22000  0.08570  0.94500  1.0000
  S   S1        1.0  0.20300  0.97800  0.09150  1.0000
  S   S2        1.0  0.79700  0.47800  0.40800  1.0000
  S   S3        1.0  0.29700  0.02240  0.59200  1.0000
  S   S4        1.0  0.70300  0.52200  0.90800  1.0000
