data_image0
_chemical_formula_structural       Ca3Ga3O14Si2Ta
_chemical_formula_sum              "Ca3 Ga3 O14 Si2 Ta1"
_cell_length_a       8.07514
_cell_length_b       8.07509
_cell_length_c       4.97695
_cell_angle_alpha    90
_cell_angle_beta     89.9997
_cell_angle_gamma    120

_space_group_name_H-M_alt    "P 1"
_space_group_IT_number       1

loop_
  _space_group_symop_operation_xyz
  'x, y, z'

loop_
  _atom_site_type_symbol
  _atom_site_label
  _atom_site_symmetry_multiplicity
  _atom_site_fract_x
  _atom_site_fract_y
  _atom_site_fract_z
  _atom_site_occupancy
  Ca  Ca1       1.0  0.42600  0.00000  0.00000  1.0000
  Ca  Ca2       1.0  0.00000  0.42600  0.00000  1.0000
  Ca  Ca3       1.0  0.57400  0.57400  0.00000  1.0000
  Ga  Ga1       1.0  0.25400  0.25400  0.50000  1.0000
  Ga  Ga2       1.0  0.00000  0.74600  0.50000  1.0000
  Ga  Ga3       1.0  0.74600  0.00000  0.50000  1.0000
  O   O1        1.0  0.33300  0.66700  0.22900  1.0000
  O   O2        1.0  0.14500  0.91900  0.23700  1.0000
  O   O3        1.0  0.08110  0.22600  0.23700  1.0000
  O   O4        1.0  0.77400  0.85500  0.23700  1.0000
  O   O5        1.0  0.47600  0.32200  0.30500  1.0000
  O   O6        1.0  0.67800  0.15400  0.30600  1.0000
  O   O7        1.0  0.84600  0.52400  0.30600  1.0000
  O   O8        1.0  0.15400  0.67800  0.69400  1.0000
  O   O9        1.0  0.32200  0.47600  0.69400  1.0000
  O   O10       1.0  0.52400  0.84600  0.69500  1.0000
  O   O11       1.0  0.22600  0.08110  0.76300  1.0000
  O   O12       1.0  0.91900  0.14500  0.76300  1.0000
  O   O13       1.0  0.85500  0.77400  0.76300  1.0000
  O   O14       1.0  0.66700  0.33300  0.77100  1.0000
  Si  Si1       1.0  0.66700  0.33300  0.44900  1.0000
  Si  Si2       1.0  0.33300  0.66700  0.55100  1.0000
  Ta  Ta1       1.0  0.00000  0.00000  0.00000  1.0000
