data_image0
_chemical_formula_structural       CuH8O12Re2
_chemical_formula_sum              "Cu1 H8 O12 Re2"
_cell_length_a       5.14486
_cell_length_b       7.86204
_cell_length_c       6.24744
_cell_angle_alpha    74.5129
_cell_angle_beta     75.2308
_cell_angle_gamma    66.1316

_space_group_name_H-M_alt    "P 1"
_space_group_IT_number       1

loop_
  _space_group_symop_operation_xyz
  'x, y, z'

loop_
  _atom_site_type_symbol
  _atom_site_label
  _atom_site_symmetry_multiplicity
  _atom_site_fract_x
  _atom_site_fract_y
  _atom_site_fract_z
  _atom_site_occupancy
  Cu  Cu1       1.0  0.50000  0.00000  0.00000  1.0000
  H   H1        1.0  0.52600  0.45000  0.03280  1.0000
  H   H2        1.0  0.91400  0.11800  0.09860  1.0000
  H   H3        1.0  0.96600  0.61300  0.26800  1.0000
  H   H4        1.0  0.63200  0.52200  0.27700  1.0000
  H   H5        1.0  0.36800  0.47800  0.72300  1.0000
  H   H6        1.0  0.03440  0.38700  0.73200  1.0000
  H   H7        1.0  0.08590  0.88200  0.90100  1.0000
  H   H8        1.0  0.47400  0.54900  0.96700  1.0000
  O   O1        1.0  0.08690  0.15100  0.07050  1.0000
  O   O2        1.0  0.48200  0.15300  0.19400  1.0000
  O   O3        1.0  0.11000  0.49300  0.21100  1.0000
  O   O4        1.0  0.69500  0.39300  0.36300  1.0000
  O   O5        1.0  0.79200  0.77100  0.40200  1.0000
  O   O6        1.0  0.88000  0.08790  0.49400  1.0000
  O   O7        1.0  0.12000  0.91200  0.50600  1.0000
  O   O8        1.0  0.20800  0.22900  0.59800  1.0000
  O   O9        1.0  0.30500  0.60700  0.63700  1.0000
  O   O10       1.0  0.89000  0.50700  0.78900  1.0000
  O   O11       1.0  0.51800  0.84700  0.80600  1.0000
  O   O12       1.0  0.91300  0.84900  0.92900  1.0000
  Re  Re1       1.0  0.10900  0.25400  0.33900  1.0000
  Re  Re2       1.0  0.89100  0.74600  0.66100  1.0000
