data_image0
_chemical_formula_structural       Ni4Pr6
_chemical_formula_sum              "Ni4 Pr6"
_cell_length_a       6.93415
_cell_length_b       6.93415
_cell_length_c       7.51372
_cell_angle_alpha    117.48
_cell_angle_beta     62.5204
_cell_angle_gamma    120

_space_group_name_H-M_alt    "P 1"
_space_group_IT_number       1

loop_
  _space_group_symop_operation_xyz
  'x, y, z'

loop_
  _atom_site_type_symbol
  _atom_site_label
  _atom_site_symmetry_multiplicity
  _atom_site_fract_x
  _atom_site_fract_y
  _atom_site_fract_z
  _atom_site_occupancy
  Ni  Ni1       1.0  0.31400  0.68600  0.05780  1.0000
  Ni  Ni2       1.0  0.18600  0.81400  0.44200  1.0000
  Ni  Ni3       1.0  0.81400  0.18600  0.55800  1.0000
  Ni  Ni4       1.0  0.68600  0.31400  0.94200  1.0000
  Pr  Pr1       1.0  0.25000  0.12600  0.25000  1.0000
  Pr  Pr2       1.0  0.87400  0.37400  0.25000  1.0000
  Pr  Pr3       1.0  0.62600  0.75000  0.25000  1.0000
  Pr  Pr4       1.0  0.37400  0.25000  0.75000  1.0000
  Pr  Pr5       1.0  0.12600  0.62600  0.75000  1.0000
  Pr  Pr6       1.0  0.75000  0.87400  0.75000  1.0000
