data_image0
_chemical_formula_structural       Al2O16W5
_chemical_formula_sum              "Al2 O16 W5"
_cell_length_a       3.82333
_cell_length_b       3.82333
_cell_length_c       20.5839
_cell_angle_alpha    95.3288
_cell_angle_beta     95.3288
_cell_angle_gamma    90

_space_group_name_H-M_alt    "P 1"
_space_group_IT_number       1

loop_
  _space_group_symop_operation_xyz
  'x, y, z'

loop_
  _atom_site_type_symbol
  _atom_site_label
  _atom_site_symmetry_multiplicity
  _atom_site_fract_x
  _atom_site_fract_y
  _atom_site_fract_z
  _atom_site_occupancy
  Al  Al1       1.0  0.75000  0.25000  0.50000  1.0000
  Al  Al2       1.0  0.25000  0.75000  0.50000  1.0000
  O   O1        1.0  0.50000  0.00000  0.00000  1.0000
  O   O2        1.0  0.00000  0.50000  0.00000  1.0000
  O   O3        1.0  0.04820  0.04820  0.09630  1.0000
  O   O4        1.0  0.59700  0.09670  0.19300  1.0000
  O   O5        1.0  0.09670  0.59700  0.19300  1.0000
  O   O6        1.0  0.14600  0.14600  0.29200  1.0000
  O   O7        1.0  0.70500  0.20500  0.40900  1.0000
  O   O8        1.0  0.20500  0.70500  0.40900  1.0000
  O   O9        1.0  0.24700  0.24700  0.49400  1.0000
  O   O10       1.0  0.75300  0.75300  0.50600  1.0000
  O   O11       1.0  0.79500  0.29500  0.59100  1.0000
  O   O12       1.0  0.29500  0.79500  0.59100  1.0000
  O   O13       1.0  0.85400  0.85400  0.70800  1.0000
  O   O14       1.0  0.90300  0.40300  0.80700  1.0000
  O   O15       1.0  0.40300  0.90300  0.80700  1.0000
  O   O16       1.0  0.95200  0.95200  0.90400  1.0000
  W   W1        1.0  0.00000  0.00000  0.00000  1.0000
  W   W2        1.0  0.09230  0.09230  0.18500  1.0000
  W   W3        1.0  0.18800  0.18800  0.37700  1.0000
  W   W4        1.0  0.81200  0.81200  0.62300  1.0000
  W   W5        1.0  0.90800  0.90800  0.81500  1.0000
