data_image0
_chemical_formula_structural       C10HgMn2O10
_chemical_formula_sum              "C10 Hg1 Mn2 O10"
_cell_length_a       6.12471
_cell_length_b       9.24744
_cell_length_c       6.11733
_cell_angle_alpha    90.3735
_cell_angle_beta     81.4606
_cell_angle_gamma    96.7778

_space_group_name_H-M_alt    "P 1"
_space_group_IT_number       1

loop_
  _space_group_symop_operation_xyz
  'x, y, z'

loop_
  _atom_site_type_symbol
  _atom_site_label
  _atom_site_symmetry_multiplicity
  _atom_site_fract_x
  _atom_site_fract_y
  _atom_site_fract_z
  _atom_site_occupancy
  C   C1        1.0  0.56100  0.81000  0.02890  1.0000
  C   C2        1.0  0.88900  0.67700  0.11500  1.0000
  C   C3        1.0  0.32200  0.41500  0.22900  1.0000
  C   C4        1.0  0.90500  0.26300  0.28000  1.0000
  C   C5        1.0  0.23500  0.13400  0.36800  1.0000
  C   C6        1.0  0.76500  0.86600  0.63200  1.0000
  C   C7        1.0  0.09500  0.73700  0.72000  1.0000
  C   C8        1.0  0.67800  0.58500  0.77100  1.0000
  C   C9        1.0  0.11100  0.32300  0.88500  1.0000
  C   C10       1.0  0.43900  0.19000  0.97100  1.0000
  Hg  Hg1       1.0  0.00000  0.00000  0.00000  1.0000
  Mn  Mn1       1.0  0.18800  0.24600  0.13600  1.0000
  Mn  Mn2       1.0  0.81200  0.75400  0.86400  1.0000
  O   O1        1.0  0.40100  0.84600  0.13100  1.0000
  O   O2        1.0  0.93800  0.62800  0.27200  1.0000
  O   O3        1.0  0.41200  0.52300  0.28500  1.0000
  O   O4        1.0  0.72600  0.27200  0.36700  1.0000
  O   O5        1.0  0.73600  0.93600  0.48400  1.0000
  O   O6        1.0  0.26400  0.06420  0.51600  1.0000
  O   O7        1.0  0.27400  0.72800  0.63300  1.0000
  O   O8        1.0  0.58800  0.47700  0.71500  1.0000
  O   O9        1.0  0.06170  0.37200  0.72800  1.0000
  O   O10       1.0  0.59900  0.15400  0.86900  1.0000
