data_image0
_chemical_formula_structural       Sm4Ti6
_chemical_formula_sum              "Sm4 Ti6"
_cell_length_a       7.12384
_cell_length_b       7.12384
_cell_length_c       6.90434
_cell_angle_alpha    121.057
_cell_angle_beta     58.9427
_cell_angle_gamma    120

_space_group_name_H-M_alt    "P 1"
_space_group_IT_number       1

loop_
  _space_group_symop_operation_xyz
  'x, y, z'

loop_
  _atom_site_type_symbol
  _atom_site_label
  _atom_site_symmetry_multiplicity
  _atom_site_fract_x
  _atom_site_fract_y
  _atom_site_fract_z
  _atom_site_occupancy
  Sm  Sm1       1.0  0.59000  0.41000  0.22900  1.0000
  Sm  Sm2       1.0  0.91000  0.09030  0.27100  1.0000
  Sm  Sm3       1.0  0.09030  0.91000  0.72900  1.0000
  Sm  Sm4       1.0  0.41000  0.59000  0.77100  1.0000
  Ti  Ti1       1.0  0.25000  0.95600  0.25000  1.0000
  Ti  Ti2       1.0  0.04370  0.54400  0.25000  1.0000
  Ti  Ti3       1.0  0.45600  0.75000  0.25000  1.0000
  Ti  Ti4       1.0  0.75000  0.04370  0.75000  1.0000
  Ti  Ti5       1.0  0.54400  0.25000  0.75000  1.0000
  Ti  Ti6       1.0  0.95600  0.45600  0.75000  1.0000
