data_image0
_chemical_formula_structural       Ge2La3O14SbZn3
_chemical_formula_sum              "Ge2 La3 O14 Sb1 Zn3"
_cell_length_a       5.24241
_cell_length_b       8.29154
_cell_length_c       8.29154
_cell_angle_alpha    119.892
_cell_angle_beta     89.9628
_cell_angle_gamma    90.0372

_space_group_name_H-M_alt    "P 1"
_space_group_IT_number       1

loop_
  _space_group_symop_operation_xyz
  'x, y, z'

loop_
  _atom_site_type_symbol
  _atom_site_label
  _atom_site_symmetry_multiplicity
  _atom_site_fract_x
  _atom_site_fract_y
  _atom_site_fract_z
  _atom_site_occupancy
  Ge  Ge1       1.0  0.45000  0.66000  0.32700  1.0000
  Ge  Ge2       1.0  0.55000  0.32700  0.66000  1.0000
  La  La1       1.0  0.00070  0.99500  0.41900  1.0000
  La  La2       1.0  0.00000  0.57200  0.57200  1.0000
  La  La3       1.0  0.99900  0.41900  0.99500  1.0000
  O   O1        1.0  0.77800  0.22000  0.07530  1.0000
  O   O2        1.0  0.78300  0.91000  0.13800  1.0000
  O   O3        1.0  0.30000  0.67200  0.14200  1.0000
  O   O4        1.0  0.22200  0.07530  0.22000  1.0000
  O   O5        1.0  0.29500  0.46400  0.31400  1.0000
  O   O6        1.0  0.78500  0.66100  0.32900  1.0000
  O   O7        1.0  0.70500  0.31400  0.46400  1.0000
  O   O8        1.0  0.29500  0.84300  0.52300  1.0000
  O   O9        1.0  0.21500  0.32900  0.66100  1.0000
  O   O10       1.0  0.70000  0.14200  0.67200  1.0000
  O   O11       1.0  0.77700  0.84900  0.77100  1.0000
  O   O12       1.0  0.70500  0.52300  0.84300  1.0000
  O   O13       1.0  0.22300  0.77100  0.84900  1.0000
  O   O14       1.0  0.21700  0.13800  0.91000  1.0000
  Sb  Sb1       1.0  0.00000  0.99500  0.99500  1.0000
  Zn  Zn1       1.0  0.50000  0.23100  0.23100  1.0000
  Zn  Zn2       1.0  0.49800  0.99300  0.75900  1.0000
  Zn  Zn3       1.0  0.50200  0.75900  0.99300  1.0000
