data_image0
_chemical_formula_structural       K4N6NiO12
_chemical_formula_sum              "K4 N6 Ni1 O12"
_cell_length_a       7.29186
_cell_length_b       7.29186
_cell_length_c       8.33331
_cell_angle_alpha    64.0547
_cell_angle_beta     115.945
_cell_angle_gamma    120

_space_group_name_H-M_alt    "P 1"
_space_group_IT_number       1

loop_
  _space_group_symop_operation_xyz
  'x, y, z'

loop_
  _atom_site_type_symbol
  _atom_site_label
  _atom_site_symmetry_multiplicity
  _atom_site_fract_x
  _atom_site_fract_y
  _atom_site_fract_z
  _atom_site_occupancy
  K   K1        1.0  0.38500  0.61500  0.15500  1.0000
  K   K2        1.0  0.81300  0.18700  0.43800  1.0000
  K   K3        1.0  0.18700  0.81300  0.56200  1.0000
  K   K4        1.0  0.61500  0.38500  0.84500  1.0000
  N   N1        1.0  0.91500  0.06570  0.16900  1.0000
  N   N2        1.0  0.32000  0.08470  0.16900  1.0000
  N   N3        1.0  0.93400  0.68000  0.16900  1.0000
  N   N4        1.0  0.06570  0.32000  0.83100  1.0000
  N   N5        1.0  0.68000  0.91500  0.83100  1.0000
  N   N6        1.0  0.08470  0.93400  0.83100  1.0000
  Ni  Ni1       1.0  0.00000  0.00000  0.00000  1.0000
  O   O1        1.0  0.95700  0.26300  0.15100  1.0000
  O   O2        1.0  0.45600  0.04330  0.15100  1.0000
  O   O3        1.0  0.73700  0.54400  0.15100  1.0000
  O   O4        1.0  0.38200  0.16300  0.30100  1.0000
  O   O5        1.0  0.83700  0.91700  0.30100  1.0000
  O   O6        1.0  0.08300  0.61800  0.30100  1.0000
  O   O7        1.0  0.91700  0.38200  0.69900  1.0000
  O   O8        1.0  0.16300  0.08300  0.69900  1.0000
  O   O9        1.0  0.61800  0.83700  0.69900  1.0000
  O   O10       1.0  0.26300  0.45600  0.84900  1.0000
  O   O11       1.0  0.54400  0.95700  0.84900  1.0000
  O   O12       1.0  0.04330  0.73700  0.84900  1.0000
