data_image0
_chemical_formula_structural       Be6Fe2
_chemical_formula_sum              "Be6 Fe2"
_cell_length_a       4.58139
_cell_length_b       4.58138
_cell_length_c       3.64972
_cell_angle_alpha    90
_cell_angle_beta     90
_cell_angle_gamma    120

_space_group_name_H-M_alt    "P 1"
_space_group_IT_number       1

loop_
  _space_group_symop_operation_xyz
  'x, y, z'

loop_
  _atom_site_type_symbol
  _atom_site_label
  _atom_site_symmetry_multiplicity
  _atom_site_fract_x
  _atom_site_fract_y
  _atom_site_fract_z
  _atom_site_occupancy
  Be  Be1       1.0  0.16700  0.33400  0.25000  1.0000
  Be  Be2       1.0  0.16700  0.83300  0.25000  1.0000
  Be  Be3       1.0  0.66600  0.83300  0.25000  1.0000
  Be  Be4       1.0  0.33400  0.16700  0.75000  1.0000
  Be  Be5       1.0  0.83300  0.16700  0.75000  1.0000
  Be  Be6       1.0  0.83300  0.66600  0.75000  1.0000
  Fe  Fe1       1.0  0.66700  0.33300  0.25000  1.0000
  Fe  Fe2       1.0  0.33300  0.66700  0.75000  1.0000
