data_image0
_chemical_formula_structural       Cs2CuN6O12Pb
_chemical_formula_sum              "Cs2 Cu1 N6 O12 Pb1"
_cell_length_a       7.3865
_cell_length_b       7.3865
_cell_length_c       7.3865
_cell_angle_alpha    120
_cell_angle_beta     90
_cell_angle_gamma    120

_space_group_name_H-M_alt    "P 1"
_space_group_IT_number       1

loop_
  _space_group_symop_operation_xyz
  'x, y, z'

loop_
  _atom_site_type_symbol
  _atom_site_label
  _atom_site_symmetry_multiplicity
  _atom_site_fract_x
  _atom_site_fract_y
  _atom_site_fract_z
  _atom_site_occupancy
  Cs  Cs1       1.0  0.75000  0.50000  0.25000  1.0000
  Cs  Cs2       1.0  0.25000  0.50000  0.75000  1.0000
  Cu  Cu1       1.0  0.00000  0.00000  0.00000  1.0000
  N   N1        1.0  0.20000  0.00000  0.20000  1.0000
  N   N2        1.0  0.80000  0.00000  0.20000  1.0000
  N   N3        1.0  0.20000  0.40000  0.20000  1.0000
  N   N4        1.0  0.20000  0.00000  0.80000  1.0000
  N   N5        1.0  0.80000  0.60000  0.80000  1.0000
  N   N6        1.0  0.80000  0.00000  0.80000  1.0000
  O   O1        1.0  0.63400  0.79400  0.15900  1.0000
  O   O2        1.0  0.36600  0.00000  0.15900  1.0000
  O   O3        1.0  0.15900  0.52500  0.15900  1.0000
  O   O4        1.0  0.15900  0.00000  0.36600  1.0000
  O   O5        1.0  0.84100  0.20600  0.36600  1.0000
  O   O6        1.0  0.36600  0.52500  0.36600  1.0000
  O   O7        1.0  0.84100  0.00000  0.63400  1.0000
  O   O8        1.0  0.63400  0.47500  0.63400  1.0000
  O   O9        1.0  0.15900  0.79400  0.63400  1.0000
  O   O10       1.0  0.63400  0.00000  0.84100  1.0000
  O   O11       1.0  0.36600  0.20600  0.84100  1.0000
  O   O12       1.0  0.84100  0.47500  0.84100  1.0000
  Pb  Pb1       1.0  0.50000  0.00000  0.50000  1.0000
