data_image0
_chemical_formula_structural       Nd3Ni9
_chemical_formula_sum              "Nd3 Ni9"
_cell_length_a       5.02918
_cell_length_b       5.02918
_cell_length_c       8.77403
_cell_angle_alpha    106.654
_cell_angle_beta     73.3458
_cell_angle_gamma    120

_space_group_name_H-M_alt    "P 1"
_space_group_IT_number       1

loop_
  _space_group_symop_operation_xyz
  'x, y, z'

loop_
  _atom_site_type_symbol
  _atom_site_label
  _atom_site_symmetry_multiplicity
  _atom_site_fract_x
  _atom_site_fract_y
  _atom_site_fract_z
  _atom_site_occupancy
  Nd  Nd1       1.0  0.00000  0.00000  0.00000  1.0000
  Nd  Nd2       1.0  0.86100  0.13900  0.41600  1.0000
  Nd  Nd3       1.0  0.13900  0.86100  0.58400  1.0000
  Ni  Ni1       1.0  0.66800  0.33200  0.99700  1.0000
  Ni  Ni2       1.0  0.33200  0.66800  0.00269  1.0000
  Ni  Ni3       1.0  0.91800  0.58000  0.24200  1.0000
  Ni  Ni4       1.0  0.42000  0.08170  0.24200  1.0000
  Ni  Ni5       1.0  0.42000  0.58000  0.24200  1.0000
  Ni  Ni6       1.0  0.50000  0.50000  0.50000  1.0000
  Ni  Ni7       1.0  0.58000  0.42000  0.75800  1.0000
  Ni  Ni8       1.0  0.58000  0.91800  0.75800  1.0000
  Ni  Ni9       1.0  0.08170  0.42000  0.75800  1.0000
