data_image0
_chemical_formula_structural       Bi3Mn4NO15
_chemical_formula_sum              "Bi3 Mn4 N1 O15"
_cell_length_a       4.98867
_cell_length_b       4.98854
_cell_length_c       12.9429
_cell_angle_alpha    90
_cell_angle_beta     89.9987
_cell_angle_gamma    120.002

_space_group_name_H-M_alt    "P 1"
_space_group_IT_number       1

loop_
  _space_group_symop_operation_xyz
  'x, y, z'

loop_
  _atom_site_type_symbol
  _atom_site_label
  _atom_site_symmetry_multiplicity
  _atom_site_fract_x
  _atom_site_fract_y
  _atom_site_fract_z
  _atom_site_occupancy
  Bi  Bi1       1.0  0.00000  0.00000  0.03250  1.0000
  Bi  Bi2       1.0  0.00000  0.00000  0.39300  1.0000
  Bi  Bi3       1.0  0.00000  0.00000  0.67200  1.0000
  Mn  Mn1       1.0  0.66700  0.33300  0.22100  1.0000
  Mn  Mn2       1.0  0.33300  0.66700  0.22100  1.0000
  Mn  Mn3       1.0  0.33300  0.66700  0.84400  1.0000
  Mn  Mn4       1.0  0.66700  0.33300  0.84400  1.0000
  N   N1        1.0  0.66700  0.33300  0.53300  1.0000
  O   O1        1.0  0.00064  0.62500  0.14200  1.0000
  O   O2        1.0  0.37600  0.37600  0.14200  1.0000
  O   O3        1.0  0.62400  0.99900  0.14200  1.0000
  O   O4        1.0  0.36500  0.00094  0.30700  1.0000
  O   O5        1.0  0.63600  0.63500  0.30700  1.0000
  O   O6        1.0  0.99900  0.36400  0.30700  1.0000
  O   O7        1.0  0.52000  0.03980  0.53300  1.0000
  O   O8        1.0  0.96000  0.48000  0.53300  1.0000
  O   O9        1.0  0.52000  0.48000  0.53300  1.0000
  O   O10       1.0  0.99900  0.63400  0.75800  1.0000
  O   O11       1.0  0.63500  0.00076  0.75800  1.0000
  O   O12       1.0  0.36600  0.36500  0.75800  1.0000
  O   O13       1.0  0.00048  0.37600  0.92400  1.0000
  O   O14       1.0  0.37600  0.99900  0.92400  1.0000
  O   O15       1.0  0.62400  0.62400  0.92400  1.0000
