data_image0
_chemical_formula_structural       Hg2O6V2
_chemical_formula_sum              "Hg2 O6 V2"
_cell_length_a       3.60042
_cell_length_b       4.71459
_cell_length_c       8.57838
_cell_angle_alpha    88.0719
_cell_angle_beta     80.019
_cell_angle_gamma    90.1262

_space_group_name_H-M_alt    "P 1"
_space_group_IT_number       1

loop_
  _space_group_symop_operation_xyz
  'x, y, z'

loop_
  _atom_site_type_symbol
  _atom_site_label
  _atom_site_symmetry_multiplicity
  _atom_site_fract_x
  _atom_site_fract_y
  _atom_site_fract_z
  _atom_site_occupancy
  Hg  Hg1       1.0  0.71800  0.81700  0.42200  1.0000
  Hg  Hg2       1.0  0.28200  0.18300  0.57800  1.0000
  O   O1        1.0  0.71200  0.48700  0.09320  1.0000
  O   O2        1.0  0.19100  0.03510  0.15400  1.0000
  O   O3        1.0  0.10900  0.49000  0.33200  1.0000
  O   O4        1.0  0.89100  0.51000  0.66800  1.0000
  O   O5        1.0  0.80900  0.96500  0.84600  1.0000
  O   O6        1.0  0.28800  0.51300  0.90700  1.0000
  V   V1        1.0  0.19600  0.38100  0.13600  1.0000
  V   V2        1.0  0.80400  0.61900  0.86400  1.0000
