data_image0
_chemical_formula_structural       Er3Ni9
_chemical_formula_sum              "Er3 Ni9"
_cell_length_a       4.91607
_cell_length_b       4.91607
_cell_length_c       8.5445
_cell_angle_alpha    73.2812
_cell_angle_beta     106.719
_cell_angle_gamma    120

_space_group_name_H-M_alt    "P 1"
_space_group_IT_number       1

loop_
  _space_group_symop_operation_xyz
  'x, y, z'

loop_
  _atom_site_type_symbol
  _atom_site_label
  _atom_site_symmetry_multiplicity
  _atom_site_fract_x
  _atom_site_fract_y
  _atom_site_fract_z
  _atom_site_occupancy
  Er  Er1       1.0  0.00000  0.00000  0.00000  1.0000
  Er  Er2       1.0  0.13900  0.86100  0.41800  1.0000
  Er  Er3       1.0  0.86100  0.13900  0.58200  1.0000
  Ni  Ni1       1.0  0.33300  0.66700  0.99900  1.0000
  Ni  Ni2       1.0  0.66700  0.33300  0.00075  1.0000
  Ni  Ni3       1.0  0.08090  0.41700  0.24700  1.0000
  Ni  Ni4       1.0  0.58300  0.41700  0.24700  1.0000
  Ni  Ni5       1.0  0.58300  0.91900  0.24700  1.0000
  Ni  Ni6       1.0  0.50000  0.50000  0.50000  1.0000
  Ni  Ni7       1.0  0.41700  0.08090  0.75300  1.0000
  Ni  Ni8       1.0  0.41700  0.58300  0.75300  1.0000
  Ni  Ni9       1.0  0.91900  0.58300  0.75300  1.0000
