data_image0
_chemical_formula_structural       Te6Ti2
_chemical_formula_sum              "Te6 Ti2"
_cell_length_a       8.57363
_cell_length_b       8.57364
_cell_length_c       3.66288
_cell_angle_alpha    90
_cell_angle_beta     90
_cell_angle_gamma    120

_space_group_name_H-M_alt    "P 1"
_space_group_IT_number       1

loop_
  _space_group_symop_operation_xyz
  'x, y, z'

loop_
  _atom_site_type_symbol
  _atom_site_label
  _atom_site_symmetry_multiplicity
  _atom_site_fract_x
  _atom_site_fract_y
  _atom_site_fract_z
  _atom_site_occupancy
  Te  Te1       1.0  0.19300  0.38600  0.25000  1.0000
  Te  Te2       1.0  0.19300  0.80700  0.25000  1.0000
  Te  Te3       1.0  0.61400  0.80700  0.25000  1.0000
  Te  Te4       1.0  0.38600  0.19300  0.75000  1.0000
  Te  Te5       1.0  0.80700  0.19300  0.75000  1.0000
  Te  Te6       1.0  0.80700  0.61400  0.75000  1.0000
  Ti  Ti1       1.0  0.66700  0.33300  0.25000  1.0000
  Ti  Ti2       1.0  0.33300  0.66700  0.75000  1.0000
