data_image0
_chemical_formula_structural       Al2N6
_chemical_formula_sum              "Al2 N6"
_cell_length_a       6.03458
_cell_length_b       6.03459
_cell_length_c       3.31773
_cell_angle_alpha    90
_cell_angle_beta     90
_cell_angle_gamma    120

_space_group_name_H-M_alt    "P 1"
_space_group_IT_number       1

loop_
  _space_group_symop_operation_xyz
  'x, y, z'

loop_
  _atom_site_type_symbol
  _atom_site_label
  _atom_site_symmetry_multiplicity
  _atom_site_fract_x
  _atom_site_fract_y
  _atom_site_fract_z
  _atom_site_occupancy
  Al  Al1       1.0  0.66700  0.33300  0.25000  1.0000
  Al  Al2       1.0  0.33300  0.66700  0.75000  1.0000
  N   N1        1.0  0.24500  0.49100  0.25000  1.0000
  N   N2        1.0  0.24500  0.75500  0.25000  1.0000
  N   N3        1.0  0.50900  0.75500  0.25000  1.0000
  N   N4        1.0  0.49100  0.24500  0.75000  1.0000
  N   N5        1.0  0.75500  0.24500  0.75000  1.0000
  N   N6        1.0  0.75500  0.50900  0.75000  1.0000
