data_image0
_chemical_formula_structural       As6Sr2
_chemical_formula_sum              "As6 Sr2"
_cell_length_a       5.9401
_cell_length_b       6.20768
_cell_length_c       6.20768
_cell_angle_alpha    102.982
_cell_angle_beta     107.654
_cell_angle_gamma    72.3462

_space_group_name_H-M_alt    "P 1"
_space_group_IT_number       1

loop_
  _space_group_symop_operation_xyz
  'x, y, z'

loop_
  _atom_site_type_symbol
  _atom_site_label
  _atom_site_symmetry_multiplicity
  _atom_site_fract_x
  _atom_site_fract_y
  _atom_site_fract_z
  _atom_site_occupancy
  As  As1       1.0  0.21600  0.99400  0.00569  1.0000
  As  As2       1.0  0.19500  0.40800  0.13000  1.0000
  As  As3       1.0  0.80500  0.13000  0.40800  1.0000
  As  As4       1.0  0.19500  0.87000  0.59200  1.0000
  As  As5       1.0  0.80500  0.59200  0.87000  1.0000
  As  As6       1.0  0.78400  0.00569  0.99400  1.0000
  Sr  Sr1       1.0  0.66600  0.66400  0.33600  1.0000
  Sr  Sr2       1.0  0.33400  0.33600  0.66400  1.0000
