data_image0
_chemical_formula_structural       Nd12Ni4
_chemical_formula_sum              "Nd12 Ni4"
_cell_length_a       7.04871
_cell_length_b       9.96091
_cell_length_c       6.51138
_cell_angle_alpha    90
_cell_angle_beta     90
_cell_angle_gamma    90

_space_group_name_H-M_alt    "P 1"
_space_group_IT_number       1

loop_
  _space_group_symop_operation_xyz
  'x, y, z'

loop_
  _atom_site_type_symbol
  _atom_site_label
  _atom_site_symmetry_multiplicity
  _atom_site_fract_x
  _atom_site_fract_y
  _atom_site_fract_z
  _atom_site_occupancy
  Nd  Nd1       1.0  0.46700  0.75000  0.14200  1.0000
  Nd  Nd2       1.0  0.17800  0.06570  0.17500  1.0000
  Nd  Nd3       1.0  0.17800  0.43400  0.17500  1.0000
  Nd  Nd4       1.0  0.67800  0.06570  0.32500  1.0000
  Nd  Nd5       1.0  0.67800  0.43400  0.32500  1.0000
  Nd  Nd6       1.0  0.96700  0.75000  0.35800  1.0000
  Nd  Nd7       1.0  0.03340  0.25000  0.64200  1.0000
  Nd  Nd8       1.0  0.32200  0.56600  0.67500  1.0000
  Nd  Nd9       1.0  0.32200  0.93400  0.67500  1.0000
  Nd  Nd10      1.0  0.82200  0.56600  0.82500  1.0000
  Nd  Nd11      1.0  0.82200  0.93400  0.82500  1.0000
  Nd  Nd12      1.0  0.53300  0.25000  0.85800  1.0000
  Ni  Ni1       1.0  0.89000  0.25000  0.06560  1.0000
  Ni  Ni2       1.0  0.39000  0.25000  0.43400  1.0000
  Ni  Ni3       1.0  0.61000  0.75000  0.56600  1.0000
  Ni  Ni4       1.0  0.11000  0.75000  0.93400  1.0000
