data_image0
_chemical_formula_structural       In3MgSr
_chemical_formula_sum              "In3 Mg1 Sr1"
_cell_length_a       4.70626
_cell_length_b       4.70626
_cell_length_c       7.17732
_cell_angle_alpha    109.139
_cell_angle_beta     109.139
_cell_angle_gamma    90

_space_group_name_H-M_alt    "P 1"
_space_group_IT_number       1

loop_
  _space_group_symop_operation_xyz
  'x, y, z'

loop_
  _atom_site_type_symbol
  _atom_site_label
  _atom_site_symmetry_multiplicity
  _atom_site_fract_x
  _atom_site_fract_y
  _atom_site_fract_z
  _atom_site_occupancy
  In  In1       1.0  0.61100  0.61100  0.22200  1.0000
  In  In2       1.0  0.25000  0.75000  0.50000  1.0000
  In  In3       1.0  0.38900  0.38900  0.77800  1.0000
  Mg  Mg1       1.0  0.75000  0.25000  0.50000  1.0000
  Sr  Sr1       1.0  0.00000  0.00000  0.00000  1.0000
