data_image0
_chemical_formula_structural       Na6Ni2
_chemical_formula_sum              "Na6 Ni2"
_cell_length_a       6.44303
_cell_length_b       6.44303
_cell_length_c       5.13646
_cell_angle_alpha    90
_cell_angle_beta     90
_cell_angle_gamma    120

_space_group_name_H-M_alt    "P 1"
_space_group_IT_number       1

loop_
  _space_group_symop_operation_xyz
  'x, y, z'

loop_
  _atom_site_type_symbol
  _atom_site_label
  _atom_site_symmetry_multiplicity
  _atom_site_fract_x
  _atom_site_fract_y
  _atom_site_fract_z
  _atom_site_occupancy
  Na  Na1       1.0  0.17800  0.35600  0.25000  1.0000
  Na  Na2       1.0  0.17800  0.82200  0.25000  1.0000
  Na  Na3       1.0  0.64400  0.82200  0.25000  1.0000
  Na  Na4       1.0  0.35600  0.17800  0.75000  1.0000
  Na  Na5       1.0  0.82200  0.17800  0.75000  1.0000
  Na  Na6       1.0  0.82200  0.64400  0.75000  1.0000
  Ni  Ni1       1.0  0.66700  0.33300  0.25000  1.0000
  Ni  Ni2       1.0  0.33300  0.66700  0.75000  1.0000
