data_image0
_chemical_formula_structural       Ni4Tm12
_chemical_formula_sum              "Ni4 Tm12"
_cell_length_a       6.77206
_cell_length_b       9.40796
_cell_length_c       6.19693
_cell_angle_alpha    90
_cell_angle_beta     90
_cell_angle_gamma    90

_space_group_name_H-M_alt    "P 1"
_space_group_IT_number       1

loop_
  _space_group_symop_operation_xyz
  'x, y, z'

loop_
  _atom_site_type_symbol
  _atom_site_label
  _atom_site_symmetry_multiplicity
  _atom_site_fract_x
  _atom_site_fract_y
  _atom_site_fract_z
  _atom_site_occupancy
  Ni  Ni1       1.0  0.89100  0.25000  0.05410  1.0000
  Ni  Ni2       1.0  0.39100  0.25000  0.44600  1.0000
  Ni  Ni3       1.0  0.60900  0.75000  0.55400  1.0000
  Ni  Ni4       1.0  0.10900  0.75000  0.94600  1.0000
  Tm  Tm1       1.0  0.46600  0.75000  0.13900  1.0000
  Tm  Tm2       1.0  0.18000  0.06550  0.17800  1.0000
  Tm  Tm3       1.0  0.18000  0.43500  0.17800  1.0000
  Tm  Tm4       1.0  0.68000  0.06550  0.32200  1.0000
  Tm  Tm5       1.0  0.68000  0.43500  0.32200  1.0000
  Tm  Tm6       1.0  0.96600  0.75000  0.36100  1.0000
  Tm  Tm7       1.0  0.03410  0.25000  0.63900  1.0000
  Tm  Tm8       1.0  0.32000  0.56500  0.67800  1.0000
  Tm  Tm9       1.0  0.32000  0.93500  0.67800  1.0000
  Tm  Tm10      1.0  0.82000  0.56500  0.82200  1.0000
  Tm  Tm11      1.0  0.82000  0.93500  0.82200  1.0000
  Tm  Tm12      1.0  0.53400  0.25000  0.86100  1.0000
