data_image0
_chemical_formula_structural       Ir6Si2
_chemical_formula_sum              "Ir6 Si2"
_cell_length_a       5.27952
_cell_length_b       5.27952
_cell_length_c       5.48986
_cell_angle_alpha    118.74
_cell_angle_beta     118.74
_cell_angle_gamma    90

_space_group_name_H-M_alt    "P 1"
_space_group_IT_number       1

loop_
  _space_group_symop_operation_xyz
  'x, y, z'

loop_
  _atom_site_type_symbol
  _atom_site_label
  _atom_site_symmetry_multiplicity
  _atom_site_fract_x
  _atom_site_fract_y
  _atom_site_fract_z
  _atom_site_occupancy
  Ir  Ir1       1.0  0.31500  0.18500  0.00000  1.0000
  Ir  Ir2       1.0  0.81500  0.31500  0.00000  1.0000
  Ir  Ir3       1.0  0.18500  0.68500  0.00000  1.0000
  Ir  Ir4       1.0  0.68500  0.81500  0.00000  1.0000
  Ir  Ir5       1.0  0.25000  0.25000  0.50000  1.0000
  Ir  Ir6       1.0  0.75000  0.75000  0.50000  1.0000
  Si  Si1       1.0  0.75000  0.25000  0.50000  1.0000
  Si  Si2       1.0  0.25000  0.75000  0.50000  1.0000
