data_image0
_chemical_formula_structural       Fe2Pr6
_chemical_formula_sum              "Fe2 Pr6"
_cell_length_a       7.12682
_cell_length_b       7.12682
_cell_length_c       5.25411
_cell_angle_alpha    90
_cell_angle_beta     90
_cell_angle_gamma    120

_space_group_name_H-M_alt    "P 1"
_space_group_IT_number       1

loop_
  _space_group_symop_operation_xyz
  'x, y, z'

loop_
  _atom_site_type_symbol
  _atom_site_label
  _atom_site_symmetry_multiplicity
  _atom_site_fract_x
  _atom_site_fract_y
  _atom_site_fract_z
  _atom_site_occupancy
  Fe  Fe1       1.0  0.66700  0.33300  0.25000  1.0000
  Fe  Fe2       1.0  0.33300  0.66700  0.75000  1.0000
  Pr  Pr1       1.0  0.17900  0.35700  0.25000  1.0000
  Pr  Pr2       1.0  0.17900  0.82100  0.25000  1.0000
  Pr  Pr3       1.0  0.64300  0.82100  0.25000  1.0000
  Pr  Pr4       1.0  0.35700  0.17900  0.75000  1.0000
  Pr  Pr5       1.0  0.82100  0.17900  0.75000  1.0000
  Pr  Pr6       1.0  0.82100  0.64300  0.75000  1.0000
