data_image0
_chemical_formula_structural       Fe12P4
_chemical_formula_sum              "Fe12 P4"
_cell_length_a       4.36651
_cell_length_b       6.73968
_cell_length_c       6.73968
_cell_angle_alpha    96.0236
_cell_angle_beta     108.901
_cell_angle_gamma    71.0986

_space_group_name_H-M_alt    "P 1"
_space_group_IT_number       1

loop_
  _space_group_symop_operation_xyz
  'x, y, z'

loop_
  _atom_site_type_symbol
  _atom_site_label
  _atom_site_symmetry_multiplicity
  _atom_site_fract_x
  _atom_site_fract_y
  _atom_site_fract_z
  _atom_site_occupancy
  Fe  Fe1       1.0  0.68900  0.18400  0.02780  1.0000
  Fe  Fe2       1.0  0.07150  0.39000  0.04990  1.0000
  Fe  Fe3       1.0  0.33900  0.97200  0.18400  1.0000
  Fe  Fe4       1.0  0.37300  0.60700  0.33200  1.0000
  Fe  Fe5       1.0  0.97800  0.95000  0.39000  1.0000
  Fe  Fe6       1.0  0.02060  0.33200  0.39300  1.0000
  Fe  Fe7       1.0  0.95900  0.66800  0.60700  1.0000
  Fe  Fe8       1.0  0.53800  0.04990  0.61000  1.0000
  Fe  Fe9       1.0  0.64700  0.39300  0.66800  1.0000
  Fe  Fe10      1.0  0.12700  0.02780  0.81600  1.0000
  Fe  Fe11      1.0  0.41200  0.61000  0.95000  1.0000
  Fe  Fe12      1.0  0.84500  0.81600  0.97200  1.0000
  P   P1        1.0  0.79700  0.66500  0.24600  1.0000
  P   P2        1.0  0.53800  0.24600  0.33500  1.0000
  P   P3        1.0  0.44900  0.75400  0.66500  1.0000
  P   P4        1.0  0.21600  0.33500  0.75400  1.0000
