data_image0
_chemical_formula_structural       Gd12Ni4
_chemical_formula_sum              "Gd12 Ni4"
_cell_length_a       6.89331
_cell_length_b       9.69147
_cell_length_c       6.35609
_cell_angle_alpha    90
_cell_angle_beta     90
_cell_angle_gamma    90

_space_group_name_H-M_alt    "P 1"
_space_group_IT_number       1

loop_
  _space_group_symop_operation_xyz
  'x, y, z'

loop_
  _atom_site_type_symbol
  _atom_site_label
  _atom_site_symmetry_multiplicity
  _atom_site_fract_x
  _atom_site_fract_y
  _atom_site_fract_z
  _atom_site_occupancy
  Gd  Gd1       1.0  0.03330  0.25000  0.14100  1.0000
  Gd  Gd2       1.0  0.32100  0.56600  0.17600  1.0000
  Gd  Gd3       1.0  0.32100  0.93400  0.17600  1.0000
  Gd  Gd4       1.0  0.82100  0.56600  0.32400  1.0000
  Gd  Gd5       1.0  0.82100  0.93400  0.32400  1.0000
  Gd  Gd6       1.0  0.53300  0.25000  0.35900  1.0000
  Gd  Gd7       1.0  0.46700  0.75000  0.64100  1.0000
  Gd  Gd8       1.0  0.17900  0.06590  0.67600  1.0000
  Gd  Gd9       1.0  0.17900  0.43400  0.67600  1.0000
  Gd  Gd10      1.0  0.67900  0.06590  0.82400  1.0000
  Gd  Gd11      1.0  0.67900  0.43400  0.82400  1.0000
  Gd  Gd12      1.0  0.96700  0.75000  0.85900  1.0000
  Ni  Ni1       1.0  0.61000  0.75000  0.05950  1.0000
  Ni  Ni2       1.0  0.11000  0.75000  0.44100  1.0000
  Ni  Ni3       1.0  0.89000  0.25000  0.55900  1.0000
  Ni  Ni4       1.0  0.39000  0.25000  0.94100  1.0000
