data_image0
_chemical_formula_structural       Fe6N2
_chemical_formula_sum              "Fe6 N2"
_cell_length_a       4.642
_cell_length_b       4.64333
_cell_length_c       4.30498
_cell_angle_alpha    89.9984
_cell_angle_beta     90.0032
_cell_angle_gamma    119.99

_space_group_name_H-M_alt    "P 1"
_space_group_IT_number       1

loop_
  _space_group_symop_operation_xyz
  'x, y, z'

loop_
  _atom_site_type_symbol
  _atom_site_label
  _atom_site_symmetry_multiplicity
  _atom_site_fract_x
  _atom_site_fract_y
  _atom_site_fract_z
  _atom_site_occupancy
  Fe  Fe1       1.0  0.99200  0.33300  0.25000  1.0000
  Fe  Fe2       1.0  0.66700  0.65900  0.25000  1.0000
  Fe  Fe3       1.0  0.34200  0.00815  0.25000  1.0000
  Fe  Fe4       1.0  0.66700  0.00815  0.75000  1.0000
  Fe  Fe5       1.0  0.99200  0.65900  0.75000  1.0000
  Fe  Fe6       1.0  0.34100  0.33300  0.75000  1.0000
  N   N1        1.0  0.00000  0.00000  1.00000  1.0000
  N   N2        1.0  0.33300  0.66700  0.50000  1.0000
