data_image0
_chemical_formula_structural       Ti3Yb
_chemical_formula_sum              "Ti3 Yb1"
_cell_length_a       5.19649
_cell_length_b       5.19649
_cell_length_c       5.19649
_cell_angle_alpha    130.884
_cell_angle_beta     130.884
_cell_angle_gamma    71.9969

_space_group_name_H-M_alt    "P 1"
_space_group_IT_number       1

loop_
  _space_group_symop_operation_xyz
  'x, y, z'

loop_
  _atom_site_type_symbol
  _atom_site_label
  _atom_site_symmetry_multiplicity
  _atom_site_fract_x
  _atom_site_fract_y
  _atom_site_fract_z
  _atom_site_occupancy
  Ti  Ti1       1.0  0.75000  0.25000  0.50000  1.0000
  Ti  Ti2       1.0  0.25000  0.75000  0.50000  1.0000
  Ti  Ti3       1.0  0.50000  0.50000  0.00000  1.0000
  Yb  Yb1       1.0  0.00000  0.00000  0.00000  1.0000
