data_image0
_chemical_formula_structural       Ni4Pr12
_chemical_formula_sum              "Ni4 Pr12"
_cell_length_a       7.10794
_cell_length_b       10.0659
_cell_length_c       6.5507
_cell_angle_alpha    90
_cell_angle_beta     90
_cell_angle_gamma    90

_space_group_name_H-M_alt    "P 1"
_space_group_IT_number       1

loop_
  _space_group_symop_operation_xyz
  'x, y, z'

loop_
  _atom_site_type_symbol
  _atom_site_label
  _atom_site_symmetry_multiplicity
  _atom_site_fract_x
  _atom_site_fract_y
  _atom_site_fract_z
  _atom_site_occupancy
  Ni  Ni1       1.0  0.88800  0.25000  0.06700  1.0000
  Ni  Ni2       1.0  0.38800  0.25000  0.43300  1.0000
  Ni  Ni3       1.0  0.61200  0.75000  0.56700  1.0000
  Ni  Ni4       1.0  0.11200  0.75000  0.93300  1.0000
  Pr  Pr1       1.0  0.46600  0.75000  0.14400  1.0000
  Pr  Pr2       1.0  0.17700  0.06640  0.17300  1.0000
  Pr  Pr3       1.0  0.17700  0.43400  0.17300  1.0000
  Pr  Pr4       1.0  0.67700  0.06640  0.32700  1.0000
  Pr  Pr5       1.0  0.67700  0.43400  0.32700  1.0000
  Pr  Pr6       1.0  0.96600  0.75000  0.35600  1.0000
  Pr  Pr7       1.0  0.03420  0.25000  0.64400  1.0000
  Pr  Pr8       1.0  0.32300  0.56600  0.67300  1.0000
  Pr  Pr9       1.0  0.32300  0.93400  0.67300  1.0000
  Pr  Pr10      1.0  0.82300  0.56600  0.82700  1.0000
  Pr  Pr11      1.0  0.82300  0.93400  0.82700  1.0000
  Pr  Pr12      1.0  0.53400  0.25000  0.85600  1.0000
