data_image0
_chemical_formula_structural       Ni4Sm12
_chemical_formula_sum              "Ni4 Sm12"
_cell_length_a       6.96053
_cell_length_b       9.81026
_cell_length_c       6.40727
_cell_angle_alpha    90
_cell_angle_beta     90
_cell_angle_gamma    90

_space_group_name_H-M_alt    "P 1"
_space_group_IT_number       1

loop_
  _space_group_symop_operation_xyz
  'x, y, z'

loop_
  _atom_site_type_symbol
  _atom_site_label
  _atom_site_symmetry_multiplicity
  _atom_site_fract_x
  _atom_site_fract_y
  _atom_site_fract_z
  _atom_site_occupancy
  Ni  Ni1       1.0  0.88900  0.25000  0.06290  1.0000
  Ni  Ni2       1.0  0.38900  0.25000  0.43700  1.0000
  Ni  Ni3       1.0  0.61100  0.75000  0.56300  1.0000
  Ni  Ni4       1.0  0.11100  0.75000  0.93700  1.0000
  Sm  Sm1       1.0  0.46600  0.75000  0.14200  1.0000
  Sm  Sm2       1.0  0.17800  0.06620  0.17500  1.0000
  Sm  Sm3       1.0  0.17800  0.43400  0.17500  1.0000
  Sm  Sm4       1.0  0.67800  0.06620  0.32500  1.0000
  Sm  Sm5       1.0  0.67800  0.43400  0.32500  1.0000
  Sm  Sm6       1.0  0.96600  0.75000  0.35800  1.0000
  Sm  Sm7       1.0  0.03380  0.25000  0.64200  1.0000
  Sm  Sm8       1.0  0.32200  0.56600  0.67500  1.0000
  Sm  Sm9       1.0  0.32200  0.93400  0.67500  1.0000
  Sm  Sm10      1.0  0.82200  0.56600  0.82500  1.0000
  Sm  Sm11      1.0  0.82200  0.93400  0.82500  1.0000
  Sm  Sm12      1.0  0.53400  0.25000  0.85800  1.0000
