data_image0
_chemical_formula_structural       Np4O6
_chemical_formula_sum              "Np4 O6"
_cell_length_a       6.10632
_cell_length_b       6.10632
_cell_length_c       6.29064
_cell_angle_alpha    119.035
_cell_angle_beta     60.9646
_cell_angle_gamma    120

_space_group_name_H-M_alt    "P 1"
_space_group_IT_number       1

loop_
  _space_group_symop_operation_xyz
  'x, y, z'

loop_
  _atom_site_type_symbol
  _atom_site_label
  _atom_site_symmetry_multiplicity
  _atom_site_fract_x
  _atom_site_fract_y
  _atom_site_fract_z
  _atom_site_occupancy
  Np  Np1       1.0  0.63900  0.36100  0.08250  1.0000
  Np  Np2       1.0  0.86100  0.13900  0.41800  1.0000
  Np  Np3       1.0  0.13900  0.86100  0.58200  1.0000
  Np  Np4       1.0  0.36100  0.63900  0.91800  1.0000
  O   O1        1.0  0.96500  0.46500  0.25000  1.0000
  O   O2        1.0  0.25000  0.03480  0.25000  1.0000
  O   O3        1.0  0.53500  0.75000  0.25000  1.0000
  O   O4        1.0  0.46500  0.25000  0.75000  1.0000
  O   O5        1.0  0.75000  0.96500  0.75000  1.0000
  O   O6        1.0  0.03480  0.53500  0.75000  1.0000
