data_image0
_chemical_formula_structural       FeH8O12Re2
_chemical_formula_sum              "Fe1 H8 O12 Re2"
_cell_length_a       6.18555
_cell_length_b       7.34559
_cell_length_c       6.18932
_cell_angle_alpha    60.0492
_cell_angle_beta     69.3887
_cell_angle_gamma    69.4431

_space_group_name_H-M_alt    "P 1"
_space_group_IT_number       1

loop_
  _space_group_symop_operation_xyz
  'x, y, z'

loop_
  _atom_site_type_symbol
  _atom_site_label
  _atom_site_symmetry_multiplicity
  _atom_site_fract_x
  _atom_site_fract_y
  _atom_site_fract_z
  _atom_site_occupancy
  Fe  Fe1       1.0  0.50000  0.00000  0.00000  1.0000
  H   H1        1.0  0.58600  0.31900  0.01680  1.0000
  H   H2        1.0  0.99700  0.13100  0.10400  1.0000
  H   H3        1.0  0.62500  0.62400  0.34900  1.0000
  H   H4        1.0  0.62900  0.29900  0.49200  1.0000
  H   H5        1.0  0.37100  0.70100  0.50800  1.0000
  H   H6        1.0  0.37500  0.37600  0.65100  1.0000
  H   H7        1.0  0.00312  0.86900  0.89600  1.0000
  H   H8        1.0  0.41400  0.68100  0.98300  1.0000
  O   O1        1.0  0.14900  0.13600  0.11300  1.0000
  O   O2        1.0  0.47700  0.21700  0.13700  1.0000
  O   O3        1.0  0.21500  0.56100  0.20800  1.0000
  O   O4        1.0  0.83400  0.43900  0.22100  1.0000
  O   O5        1.0  0.50400  0.75000  0.36400  1.0000
  O   O6        1.0  0.88900  0.83100  0.42400  1.0000
  O   O7        1.0  0.11100  0.16900  0.57600  1.0000
  O   O8        1.0  0.49600  0.25000  0.63600  1.0000
  O   O9        1.0  0.16600  0.56100  0.77900  1.0000
  O   O10       1.0  0.78500  0.43900  0.79200  1.0000
  O   O11       1.0  0.52300  0.78300  0.86300  1.0000
  O   O12       1.0  0.85100  0.86400  0.88700  1.0000
  Re  Re1       1.0  0.13900  0.33300  0.25500  1.0000
  Re  Re2       1.0  0.86100  0.66700  0.74500  1.0000
