data_image0
_chemical_formula_structural       B8Ca4H12
_chemical_formula_sum              "B8 Ca4 H12"
_cell_length_a       15.9395
_cell_length_b       3.45629
_cell_length_c       3.5308
_cell_angle_alpha    90
_cell_angle_beta     90
_cell_angle_gamma    90

_space_group_name_H-M_alt    "P 1"
_space_group_IT_number       1

loop_
  _space_group_symop_operation_xyz
  'x, y, z'

loop_
  _atom_site_type_symbol
  _atom_site_label
  _atom_site_symmetry_multiplicity
  _atom_site_fract_x
  _atom_site_fract_y
  _atom_site_fract_z
  _atom_site_occupancy
  B   B1        1.0  0.75000  0.25000  0.98500  1.0000
  B   B2        1.0  0.25000  0.75000  0.01510  1.0000
  B   B3        1.0  0.52300  0.75000  0.04930  1.0000
  B   B4        1.0  0.02310  0.75000  0.45100  1.0000
  B   B5        1.0  0.75000  0.75000  0.48500  1.0000
  B   B6        1.0  0.25000  0.25000  0.51500  1.0000
  B   B7        1.0  0.97700  0.25000  0.54900  1.0000
  B   B8        1.0  0.47700  0.25000  0.95100  1.0000
  Ca  Ca1       1.0  0.11300  0.25000  0.99500  1.0000
  Ca  Ca2       1.0  0.88700  0.75000  0.00457  1.0000
  Ca  Ca3       1.0  0.38700  0.75000  0.49500  1.0000
  Ca  Ca4       1.0  0.61300  0.25000  0.50500  1.0000
  H   H1        1.0  0.40000  0.25000  0.04380  1.0000
  H   H2        1.0  0.17500  0.75000  0.06230  1.0000
  H   H3        1.0  0.03010  0.75000  0.10300  1.0000
  H   H4        1.0  0.53000  0.75000  0.39700  1.0000
  H   H5        1.0  0.67500  0.75000  0.43800  1.0000
  H   H6        1.0  0.90000  0.25000  0.45600  1.0000
  H   H7        1.0  0.09950  0.75000  0.54400  1.0000
  H   H8        1.0  0.32500  0.25000  0.56200  1.0000
  H   H9        1.0  0.47000  0.25000  0.60300  1.0000
  H   H10       1.0  0.97000  0.25000  0.89700  1.0000
  H   H11       1.0  0.82500  0.25000  0.93800  1.0000
  H   H12       1.0  0.60000  0.75000  0.95600  1.0000
