data_image0
_chemical_formula_structural       B2C6F8FeO6
_chemical_formula_sum              "B2 C6 F8 Fe1 O6"
_cell_length_a       7.13054
_cell_length_b       6.94748
_cell_length_c       6.94748
_cell_angle_alpha    90
_cell_angle_beta     119.154
_cell_angle_gamma    119.154

_space_group_name_H-M_alt    "P 1"
_space_group_IT_number       1

loop_
  _space_group_symop_operation_xyz
  'x, y, z'

loop_
  _atom_site_type_symbol
  _atom_site_label
  _atom_site_symmetry_multiplicity
  _atom_site_fract_x
  _atom_site_fract_y
  _atom_site_fract_z
  _atom_site_occupancy
  B   B1        1.0  0.50000  0.75000  0.25000  1.0000
  B   B2        1.0  0.50000  0.25000  0.75000  1.0000
  C   C1        1.0  0.00000  0.35600  0.27300  1.0000
  C   C2        1.0  0.63700  0.31800  0.31800  1.0000
  C   C3        1.0  0.00000  0.72700  0.35600  1.0000
  C   C4        1.0  0.00000  0.27300  0.64400  1.0000
  C   C5        1.0  0.36300  0.68200  0.68200  1.0000
  C   C6        1.0  0.00000  0.64400  0.72700  1.0000
  F   F1        1.0  0.34500  0.57500  0.03770  1.0000
  F   F2        1.0  0.65500  0.96200  0.23000  1.0000
  F   F3        1.0  0.34500  0.77000  0.30700  1.0000
  F   F4        1.0  0.65500  0.69300  0.42500  1.0000
  F   F5        1.0  0.34500  0.30700  0.57500  1.0000
  F   F6        1.0  0.65500  0.23000  0.69300  1.0000
  F   F7        1.0  0.34500  0.03770  0.77000  1.0000
  F   F8        1.0  0.65500  0.42500  0.96200  1.0000
  Fe  Fe1       1.0  0.00000  0.50000  0.50000  1.0000
  O   O1        1.0  0.00000  0.26600  0.13700  1.0000
  O   O2        1.0  0.41700  0.20900  0.20900  1.0000
  O   O3        1.0  0.00000  0.86300  0.26600  1.0000
  O   O4        1.0  0.00000  0.13700  0.73400  1.0000
  O   O5        1.0  0.58300  0.79100  0.79100  1.0000
  O   O6        1.0  0.00000  0.73400  0.86300  1.0000
