data_image0
_chemical_formula_structural       Au4F16Pd2
_chemical_formula_sum              "Au4 F16 Pd2"
_cell_length_a       3.36547
_cell_length_b       5.67834
_cell_length_c       13.195
_cell_angle_alpha    89.9746
_cell_angle_beta     89.8433
_cell_angle_gamma    89.2705

_space_group_name_H-M_alt    "P 1"
_space_group_IT_number       1

loop_
  _space_group_symop_operation_xyz
  'x, y, z'

loop_
  _atom_site_type_symbol
  _atom_site_label
  _atom_site_symmetry_multiplicity
  _atom_site_fract_x
  _atom_site_fract_y
  _atom_site_fract_z
  _atom_site_occupancy
  Au  Au1       1.0  0.22900  0.49700  0.16100  1.0000
  Au  Au2       1.0  0.74000  0.99700  0.33900  1.0000
  Au  Au3       1.0  0.26600  0.00315  0.66100  1.0000
  Au  Au4       1.0  0.76500  0.50200  0.83900  1.0000
  F   F1        1.0  0.74200  0.68900  0.01620  1.0000
  F   F2        1.0  0.20500  0.94800  0.12300  1.0000
  F   F3        1.0  0.72900  0.28800  0.12800  1.0000
  F   F4        1.0  0.72800  0.67900  0.21100  1.0000
  F   F5        1.0  0.24100  0.17900  0.28900  1.0000
  F   F6        1.0  0.23700  0.78800  0.37200  1.0000
  F   F7        1.0  0.71500  0.44900  0.37700  1.0000
  F   F8        1.0  0.24900  0.19000  0.48400  1.0000
  F   F9        1.0  0.75700  0.81100  0.51600  1.0000
  F   F10       1.0  0.29100  0.55200  0.62400  1.0000
  F   F11       1.0  0.76800  0.21200  0.62800  1.0000
  F   F12       1.0  0.76500  0.82100  0.71100  1.0000
  F   F13       1.0  0.26600  0.32000  0.78900  1.0000
  F   F14       1.0  0.26600  0.71200  0.87200  1.0000
  F   F15       1.0  0.79000  0.05130  0.87700  1.0000
  F   F16       1.0  0.25200  0.31000  0.98400  1.0000
  Pd  Pd1       1.0  0.49700  0.00000  0.00000  1.0000
  Pd  Pd2       1.0  0.00283  0.50000  0.50000  1.0000
