data_image0
_chemical_formula_structural       Ag4Al6
_chemical_formula_sum              "Ag4 Al6"
_cell_length_a       5.87017
_cell_length_b       5.87017
_cell_length_c       7.22226
_cell_angle_alpha    113.979
_cell_angle_beta     66.0215
_cell_angle_gamma    120

_space_group_name_H-M_alt    "P 1"
_space_group_IT_number       1

loop_
  _space_group_symop_operation_xyz
  'x, y, z'

loop_
  _atom_site_type_symbol
  _atom_site_label
  _atom_site_symmetry_multiplicity
  _atom_site_fract_x
  _atom_site_fract_y
  _atom_site_fract_z
  _atom_site_occupancy
  Ag  Ag1       1.0  0.32100  0.67900  0.03660  1.0000
  Ag  Ag2       1.0  0.17900  0.82100  0.46300  1.0000
  Ag  Ag3       1.0  0.82100  0.17900  0.53700  1.0000
  Ag  Ag4       1.0  0.67900  0.32100  0.96300  1.0000
  Al  Al1       1.0  0.25000  0.15200  0.25000  1.0000
  Al  Al2       1.0  0.84800  0.34800  0.25000  1.0000
  Al  Al3       1.0  0.65200  0.75000  0.25000  1.0000
  Al  Al4       1.0  0.34800  0.25000  0.75000  1.0000
  Al  Al5       1.0  0.15200  0.65200  0.75000  1.0000
  Al  Al6       1.0  0.75000  0.84800  0.75000  1.0000
