data_image0
_chemical_formula_structural       Al4In6
_chemical_formula_sum              "Al4 In6"
_cell_length_a       6.98324
_cell_length_b       6.98324
_cell_length_c       7.27042
_cell_angle_alpha    118.702
_cell_angle_beta     61.2982
_cell_angle_gamma    120

_space_group_name_H-M_alt    "P 1"
_space_group_IT_number       1

loop_
  _space_group_symop_operation_xyz
  'x, y, z'

loop_
  _atom_site_type_symbol
  _atom_site_label
  _atom_site_symmetry_multiplicity
  _atom_site_fract_x
  _atom_site_fract_y
  _atom_site_fract_z
  _atom_site_occupancy
  Al  Al1       1.0  0.32100  0.67900  0.03600  1.0000
  Al  Al2       1.0  0.17900  0.82100  0.46400  1.0000
  Al  Al3       1.0  0.82100  0.17900  0.53600  1.0000
  Al  Al4       1.0  0.67900  0.32100  0.96400  1.0000
  In  In1       1.0  0.63800  0.75000  0.25000  1.0000
  In  In2       1.0  0.25000  0.13800  0.25000  1.0000
  In  In3       1.0  0.86200  0.36200  0.25000  1.0000
  In  In4       1.0  0.13800  0.63800  0.75000  1.0000
  In  In5       1.0  0.75000  0.86200  0.75000  1.0000
  In  In6       1.0  0.36200  0.25000  0.75000  1.0000
