data_image0
_chemical_formula_structural       Al4Ti6
_chemical_formula_sum              "Al4 Ti6"
_cell_length_a       4.79821
_cell_length_b       4.79821
_cell_length_c       9.78563
_cell_angle_alpha    104.192
_cell_angle_beta     75.8083
_cell_angle_gamma    120

_space_group_name_H-M_alt    "P 1"
_space_group_IT_number       1

loop_
  _space_group_symop_operation_xyz
  'x, y, z'

loop_
  _atom_site_type_symbol
  _atom_site_label
  _atom_site_symmetry_multiplicity
  _atom_site_fract_x
  _atom_site_fract_y
  _atom_site_fract_z
  _atom_site_occupancy
  Al  Al1       1.0  0.66600  0.33400  0.00110  1.0000
  Al  Al2       1.0  0.83400  0.16600  0.49900  1.0000
  Al  Al3       1.0  0.16600  0.83400  0.50100  1.0000
  Al  Al4       1.0  0.33400  0.66600  0.99900  1.0000
  Ti  Ti1       1.0  0.25000  0.07710  0.25000  1.0000
  Ti  Ti2       1.0  0.92300  0.42300  0.25000  1.0000
  Ti  Ti3       1.0  0.57700  0.75000  0.25000  1.0000
  Ti  Ti4       1.0  0.42300  0.25000  0.75000  1.0000
  Ti  Ti5       1.0  0.07710  0.57700  0.75000  1.0000
  Ti  Ti6       1.0  0.75000  0.92300  0.75000  1.0000
