data_image0
_chemical_formula_structural       Hg4Ti6
_chemical_formula_sum              "Hg4 Ti6"
_cell_length_a       6.92909
_cell_length_b       6.92909
_cell_length_c       6.39777
_cell_angle_alpha    122.787
_cell_angle_beta     57.2126
_cell_angle_gamma    120

_space_group_name_H-M_alt    "P 1"
_space_group_IT_number       1

loop_
  _space_group_symop_operation_xyz
  'x, y, z'

loop_
  _atom_site_type_symbol
  _atom_site_label
  _atom_site_symmetry_multiplicity
  _atom_site_fract_x
  _atom_site_fract_y
  _atom_site_fract_z
  _atom_site_occupancy
  Hg  Hg1       1.0  0.59100  0.40900  0.22600  1.0000
  Hg  Hg2       1.0  0.90900  0.09140  0.27400  1.0000
  Hg  Hg3       1.0  0.09140  0.90900  0.72600  1.0000
  Hg  Hg4       1.0  0.40900  0.59100  0.77400  1.0000
  Ti  Ti1       1.0  0.47400  0.75000  0.25000  1.0000
  Ti  Ti2       1.0  0.25000  0.97400  0.25000  1.0000
  Ti  Ti3       1.0  0.02600  0.52600  0.25000  1.0000
  Ti  Ti4       1.0  0.97400  0.47400  0.75000  1.0000
  Ti  Ti5       1.0  0.75000  0.02600  0.75000  1.0000
  Ti  Ti6       1.0  0.52600  0.25000  0.75000  1.0000
