data_image0
_chemical_formula_structural       Ho4Ti6
_chemical_formula_sum              "Ho4 Ti6"
_cell_length_a       7.12294
_cell_length_b       7.12294
_cell_length_c       6.82794
_cell_angle_alpha    121.44
_cell_angle_beta     58.5602
_cell_angle_gamma    120

_space_group_name_H-M_alt    "P 1"
_space_group_IT_number       1

loop_
  _space_group_symop_operation_xyz
  'x, y, z'

loop_
  _atom_site_type_symbol
  _atom_site_label
  _atom_site_symmetry_multiplicity
  _atom_site_fract_x
  _atom_site_fract_y
  _atom_site_fract_z
  _atom_site_occupancy
  Ho  Ho1       1.0  0.59200  0.40800  0.22500  1.0000
  Ho  Ho2       1.0  0.90800  0.09180  0.27500  1.0000
  Ho  Ho3       1.0  0.09180  0.90800  0.72500  1.0000
  Ho  Ho4       1.0  0.40800  0.59200  0.77500  1.0000
  Ti  Ti1       1.0  0.04220  0.54200  0.25000  1.0000
  Ti  Ti2       1.0  0.45800  0.75000  0.25000  1.0000
  Ti  Ti3       1.0  0.25000  0.95800  0.25000  1.0000
  Ti  Ti4       1.0  0.75000  0.04220  0.75000  1.0000
  Ti  Ti5       1.0  0.54200  0.25000  0.75000  1.0000
  Ti  Ti6       1.0  0.95800  0.45800  0.75000  1.0000
