data_image0
_chemical_formula_structural       Fe2U6
_chemical_formula_sum              "Fe2 U6"
_cell_length_a       5.99136
_cell_length_b       5.99135
_cell_length_c       4.69208
_cell_angle_alpha    90
_cell_angle_beta     90
_cell_angle_gamma    120

_space_group_name_H-M_alt    "P 1"
_space_group_IT_number       1

loop_
  _space_group_symop_operation_xyz
  'x, y, z'

loop_
  _atom_site_type_symbol
  _atom_site_label
  _atom_site_symmetry_multiplicity
  _atom_site_fract_x
  _atom_site_fract_y
  _atom_site_fract_z
  _atom_site_occupancy
  Fe  Fe1       1.0  0.66700  0.33300  0.25000  1.0000
  Fe  Fe2       1.0  0.33300  0.66700  0.75000  1.0000
  U   U1        1.0  0.18100  0.36200  0.25000  1.0000
  U   U2        1.0  0.18100  0.81900  0.25000  1.0000
  U   U3        1.0  0.63800  0.81900  0.25000  1.0000
  U   U4        1.0  0.36200  0.18100  0.75000  1.0000
  U   U5        1.0  0.81900  0.18100  0.75000  1.0000
  U   U6        1.0  0.81900  0.63800  0.75000  1.0000
