data_image0
_chemical_formula_structural       Mg4Pt6
_chemical_formula_sum              "Mg4 Pt6"
_cell_length_a       6.68527
_cell_length_b       6.68527
_cell_length_c       5.87922
_cell_angle_alpha    124.649
_cell_angle_beta     55.3508
_cell_angle_gamma    120

_space_group_name_H-M_alt    "P 1"
_space_group_IT_number       1

loop_
  _space_group_symop_operation_xyz
  'x, y, z'

loop_
  _atom_site_type_symbol
  _atom_site_label
  _atom_site_symmetry_multiplicity
  _atom_site_fract_x
  _atom_site_fract_y
  _atom_site_fract_z
  _atom_site_occupancy
  Mg  Mg1       1.0  0.60000  0.40100  0.20200  1.0000
  Mg  Mg2       1.0  0.90100  0.09950  0.29800  1.0000
  Mg  Mg3       1.0  0.09950  0.90100  0.70200  1.0000
  Mg  Mg4       1.0  0.40100  0.59900  0.79800  1.0000
  Pt  Pt1       1.0  0.50200  0.75000  0.25000  1.0000
  Pt  Pt2       1.0  0.99800  0.49800  0.25000  1.0000
  Pt  Pt3       1.0  0.25000  0.00248  0.25000  1.0000
  Pt  Pt4       1.0  0.75000  0.99800  0.75000  1.0000
  Pt  Pt5       1.0  0.00247  0.50200  0.75000  1.0000
  Pt  Pt6       1.0  0.49800  0.25000  0.75000  1.0000
