data_image0
_chemical_formula_structural       Al4Yb6
_chemical_formula_sum              "Al4 Yb6"
_cell_length_a       7.03367
_cell_length_b       7.03367
_cell_length_c       8.30046
_cell_angle_alpha    115.068
_cell_angle_beta     64.9321
_cell_angle_gamma    120

_space_group_name_H-M_alt    "P 1"
_space_group_IT_number       1

loop_
  _space_group_symop_operation_xyz
  'x, y, z'

loop_
  _atom_site_type_symbol
  _atom_site_label
  _atom_site_symmetry_multiplicity
  _atom_site_fract_x
  _atom_site_fract_y
  _atom_site_fract_z
  _atom_site_occupancy
  Al  Al1       1.0  0.30800  0.69200  0.07570  1.0000
  Al  Al2       1.0  0.19200  0.80800  0.42400  1.0000
  Al  Al3       1.0  0.80800  0.19200  0.57600  1.0000
  Al  Al4       1.0  0.69200  0.30800  0.92400  1.0000
  Yb  Yb1       1.0  0.25000  0.18400  0.25000  1.0000
  Yb  Yb2       1.0  0.81600  0.31600  0.25000  1.0000
  Yb  Yb3       1.0  0.68400  0.75000  0.25000  1.0000
  Yb  Yb4       1.0  0.31600  0.25000  0.75000  1.0000
  Yb  Yb5       1.0  0.18400  0.68400  0.75000  1.0000
  Yb  Yb6       1.0  0.75000  0.81600  0.75000  1.0000
