data_image0
_chemical_formula_structural       Bi4Ni6
_chemical_formula_sum              "Bi4 Ni6"
_cell_length_a       6.4973
_cell_length_b       6.4973
_cell_length_c       6.45596
_cell_angle_alpha    120.212
_cell_angle_beta     59.788
_cell_angle_gamma    120

_space_group_name_H-M_alt    "P 1"
_space_group_IT_number       1

loop_
  _space_group_symop_operation_xyz
  'x, y, z'

loop_
  _atom_site_type_symbol
  _atom_site_label
  _atom_site_symmetry_multiplicity
  _atom_site_fract_x
  _atom_site_fract_y
  _atom_site_fract_z
  _atom_site_occupancy
  Bi  Bi1       1.0  0.60800  0.39200  0.17500  1.0000
  Bi  Bi2       1.0  0.89200  0.10800  0.32500  1.0000
  Bi  Bi3       1.0  0.10800  0.89200  0.67500  1.0000
  Bi  Bi4       1.0  0.39200  0.60800  0.82500  1.0000
  Ni  Ni1       1.0  0.02570  0.52600  0.25000  1.0000
  Ni  Ni2       1.0  0.47400  0.75000  0.25000  1.0000
  Ni  Ni3       1.0  0.25000  0.97400  0.25000  1.0000
  Ni  Ni4       1.0  0.75000  0.02570  0.75000  1.0000
  Ni  Ni5       1.0  0.52600  0.25000  0.75000  1.0000
  Ni  Ni6       1.0  0.97400  0.47400  0.75000  1.0000
