data_image0
_chemical_formula_structural       Al8Dy12
_chemical_formula_sum              "Al8 Dy12"
_cell_length_a       8.24105
_cell_length_b       8.24105
_cell_length_c       7.57788
_cell_angle_alpha    90
_cell_angle_beta     90
_cell_angle_gamma    90

_space_group_name_H-M_alt    "P 1"
_space_group_IT_number       1

loop_
  _space_group_symop_operation_xyz
  'x, y, z'

loop_
  _atom_site_type_symbol
  _atom_site_label
  _atom_site_symmetry_multiplicity
  _atom_site_fract_x
  _atom_site_fract_y
  _atom_site_fract_z
  _atom_site_occupancy
  Al  Al1       1.0  0.11900  0.11900  0.19500  1.0000
  Al  Al2       1.0  0.88100  0.88100  0.19500  1.0000
  Al  Al3       1.0  0.61900  0.38100  0.30500  1.0000
  Al  Al4       1.0  0.38100  0.61900  0.30500  1.0000
  Al  Al5       1.0  0.88100  0.88100  0.80500  1.0000
  Al  Al6       1.0  0.11900  0.11900  0.80500  1.0000
  Al  Al7       1.0  0.61900  0.38100  0.69500  1.0000
  Al  Al8       1.0  0.38100  0.61900  0.69500  1.0000
  Dy  Dy1       1.0  0.20200  0.79800  0.00000  1.0000
  Dy  Dy2       1.0  0.79800  0.20200  0.00000  1.0000
  Dy  Dy3       1.0  0.70200  0.70200  0.50000  1.0000
  Dy  Dy4       1.0  0.29800  0.29800  0.50000  1.0000
  Dy  Dy5       1.0  0.00000  0.50000  0.25000  1.0000
  Dy  Dy6       1.0  0.50000  0.00000  0.25000  1.0000
  Dy  Dy7       1.0  0.50000  0.00000  0.75000  1.0000
  Dy  Dy8       1.0  0.00000  0.50000  0.75000  1.0000
  Dy  Dy9       1.0  0.35000  0.35000  0.00000  1.0000
  Dy  Dy10      1.0  0.65000  0.65000  0.00000  1.0000
  Dy  Dy11      1.0  0.85000  0.15000  0.50000  1.0000
  Dy  Dy12      1.0  0.15000  0.85000  0.50000  1.0000
