data_image0
_chemical_formula_structural       C4Ti6
_chemical_formula_sum              "C4 Ti6"
_cell_length_a       5.29986
_cell_length_b       5.29986
_cell_length_c       5.80846
_cell_angle_alpha    117.143
_cell_angle_beta     62.8566
_cell_angle_gamma    120

_space_group_name_H-M_alt    "P 1"
_space_group_IT_number       1

loop_
  _space_group_symop_operation_xyz
  'x, y, z'

loop_
  _atom_site_type_symbol
  _atom_site_label
  _atom_site_symmetry_multiplicity
  _atom_site_fract_x
  _atom_site_fract_y
  _atom_site_fract_z
  _atom_site_occupancy
  C   C1        1.0  0.65900  0.34100  0.02170  1.0000
  C   C2        1.0  0.84100  0.15900  0.47800  1.0000
  C   C3        1.0  0.15900  0.84100  0.52200  1.0000
  C   C4        1.0  0.34100  0.65900  0.97800  1.0000
  Ti  Ti1       1.0  0.25000  0.07040  0.25000  1.0000
  Ti  Ti2       1.0  0.93000  0.43000  0.25000  1.0000
  Ti  Ti3       1.0  0.57000  0.75000  0.25000  1.0000
  Ti  Ti4       1.0  0.43000  0.25000  0.75000  1.0000
  Ti  Ti5       1.0  0.07040  0.57000  0.75000  1.0000
  Ti  Ti6       1.0  0.75000  0.93000  0.75000  1.0000
