data_image0
_chemical_formula_structural       Mg4P6
_chemical_formula_sum              "Mg4 P6"
_cell_length_a       7.2129
_cell_length_b       7.2129
_cell_length_c       5.8698
_cell_angle_alpha    127.909
_cell_angle_beta     52.0911
_cell_angle_gamma    120

_space_group_name_H-M_alt    "P 1"
_space_group_IT_number       1

loop_
  _space_group_symop_operation_xyz
  'x, y, z'

loop_
  _atom_site_type_symbol
  _atom_site_label
  _atom_site_symmetry_multiplicity
  _atom_site_fract_x
  _atom_site_fract_y
  _atom_site_fract_z
  _atom_site_occupancy
  Mg  Mg1       1.0  0.62500  0.37500  0.12600  1.0000
  Mg  Mg2       1.0  0.87500  0.12500  0.37400  1.0000
  Mg  Mg3       1.0  0.12500  0.87500  0.62600  1.0000
  Mg  Mg4       1.0  0.37500  0.62500  0.87400  1.0000
  P   P1        1.0  0.25000  0.05140  0.25000  1.0000
  P   P2        1.0  0.94900  0.44900  0.25000  1.0000
  P   P3        1.0  0.55100  0.75000  0.25000  1.0000
  P   P4        1.0  0.44900  0.25000  0.75000  1.0000
  P   P5        1.0  0.05140  0.55100  0.75000  1.0000
  P   P6        1.0  0.75000  0.94900  0.75000  1.0000
