data_image0
_chemical_formula_structural       Al4Pa6
_chemical_formula_sum              "Al4 Pa6"
_cell_length_a       7.26036
_cell_length_b       7.26036
_cell_length_c       7.66933
_cell_angle_alpha    118.251
_cell_angle_beta     61.7488
_cell_angle_gamma    120

_space_group_name_H-M_alt    "P 1"
_space_group_IT_number       1

loop_
  _space_group_symop_operation_xyz
  'x, y, z'

loop_
  _atom_site_type_symbol
  _atom_site_label
  _atom_site_symmetry_multiplicity
  _atom_site_fract_x
  _atom_site_fract_y
  _atom_site_fract_z
  _atom_site_occupancy
  Al  Al1       1.0  0.65100  0.34900  0.04570  1.0000
  Al  Al2       1.0  0.84900  0.15100  0.45400  1.0000
  Al  Al3       1.0  0.15100  0.84900  0.54600  1.0000
  Al  Al4       1.0  0.34900  0.65100  0.95400  1.0000
  Pa  Pa1       1.0  0.54900  0.75000  0.25000  1.0000
  Pa  Pa2       1.0  0.25000  0.04910  0.25000  1.0000
  Pa  Pa3       1.0  0.95100  0.45100  0.25000  1.0000
  Pa  Pa4       1.0  0.04910  0.54900  0.75000  1.0000
  Pa  Pa5       1.0  0.75000  0.95100  0.75000  1.0000
  Pa  Pa6       1.0  0.45100  0.25000  0.75000  1.0000
