data_image0
_chemical_formula_structural       C4Mg6
_chemical_formula_sum              "C4 Mg6"
_cell_length_a       5.52452
_cell_length_b       5.52452
_cell_length_c       6.19626
_cell_angle_alpha    116.474
_cell_angle_beta     63.5258
_cell_angle_gamma    120

_space_group_name_H-M_alt    "P 1"
_space_group_IT_number       1

loop_
  _space_group_symop_operation_xyz
  'x, y, z'

loop_
  _atom_site_type_symbol
  _atom_site_label
  _atom_site_symmetry_multiplicity
  _atom_site_fract_x
  _atom_site_fract_y
  _atom_site_fract_z
  _atom_site_occupancy
  C   C1        1.0  0.65100  0.34900  0.04750  1.0000
  C   C2        1.0  0.84900  0.15100  0.45200  1.0000
  C   C3        1.0  0.15100  0.84900  0.54800  1.0000
  C   C4        1.0  0.34900  0.65100  0.95200  1.0000
  Mg  Mg1       1.0  0.25000  0.05280  0.25000  1.0000
  Mg  Mg2       1.0  0.94700  0.44700  0.25000  1.0000
  Mg  Mg3       1.0  0.55300  0.75000  0.25000  1.0000
  Mg  Mg4       1.0  0.44700  0.25000  0.75000  1.0000
  Mg  Mg5       1.0  0.05280  0.55300  0.75000  1.0000
  Mg  Mg6       1.0  0.75000  0.94700  0.75000  1.0000
