data_image0
_chemical_formula_structural       Al4Pr6
_chemical_formula_sum              "Al4 Pr6"
_cell_length_a       6.68236
_cell_length_b       6.68236
_cell_length_c       9.58246
_cell_angle_alpha    110.406
_cell_angle_beta     69.5936
_cell_angle_gamma    120

_space_group_name_H-M_alt    "P 1"
_space_group_IT_number       1

loop_
  _space_group_symop_operation_xyz
  'x, y, z'

loop_
  _atom_site_type_symbol
  _atom_site_label
  _atom_site_symmetry_multiplicity
  _atom_site_fract_x
  _atom_site_fract_y
  _atom_site_fract_z
  _atom_site_occupancy
  Al  Al1       1.0  0.66500  0.33500  0.00548  1.0000
  Al  Al2       1.0  0.83500  0.16500  0.49500  1.0000
  Al  Al3       1.0  0.16500  0.83500  0.50500  1.0000
  Al  Al4       1.0  0.33500  0.66500  0.99500  1.0000
  Pr  Pr1       1.0  0.92200  0.42200  0.25000  1.0000
  Pr  Pr2       1.0  0.25000  0.07810  0.25000  1.0000
  Pr  Pr3       1.0  0.57800  0.75000  0.25000  1.0000
  Pr  Pr4       1.0  0.42200  0.25000  0.75000  1.0000
  Pr  Pr5       1.0  0.75000  0.92200  0.75000  1.0000
  Pr  Pr6       1.0  0.07810  0.57800  0.75000  1.0000
