data_image0
_chemical_formula_structural       Al4Sm6
_chemical_formula_sum              "Al4 Sm6"
_cell_length_a       6.51558
_cell_length_b       6.51558
_cell_length_c       9.48474
_cell_angle_alpha    110.089
_cell_angle_beta     69.9111
_cell_angle_gamma    120

_space_group_name_H-M_alt    "P 1"
_space_group_IT_number       1

loop_
  _space_group_symop_operation_xyz
  'x, y, z'

loop_
  _atom_site_type_symbol
  _atom_site_label
  _atom_site_symmetry_multiplicity
  _atom_site_fract_x
  _atom_site_fract_y
  _atom_site_fract_z
  _atom_site_occupancy
  Al  Al1       1.0  0.66400  0.33600  0.00673  1.0000
  Al  Al2       1.0  0.83600  0.16400  0.49300  1.0000
  Al  Al3       1.0  0.16400  0.83600  0.50700  1.0000
  Al  Al4       1.0  0.33600  0.66400  0.99300  1.0000
  Sm  Sm1       1.0  0.92400  0.42400  0.25000  1.0000
  Sm  Sm2       1.0  0.25000  0.07570  0.25000  1.0000
  Sm  Sm3       1.0  0.57600  0.75000  0.25000  1.0000
  Sm  Sm4       1.0  0.42400  0.25000  0.75000  1.0000
  Sm  Sm5       1.0  0.75000  0.92400  0.75000  1.0000
  Sm  Sm6       1.0  0.07570  0.57600  0.75000  1.0000
