data_image0
_chemical_formula_structural       Ce4Fe6
_chemical_formula_sum              "Ce4 Fe6"
_cell_length_a       6.87194
_cell_length_b       6.87194
_cell_length_c       6.99102
_cell_angle_alpha    119.438
_cell_angle_beta     60.5619
_cell_angle_gamma    120

_space_group_name_H-M_alt    "P 1"
_space_group_IT_number       1

loop_
  _space_group_symop_operation_xyz
  'x, y, z'

loop_
  _atom_site_type_symbol
  _atom_site_label
  _atom_site_symmetry_multiplicity
  _atom_site_fract_x
  _atom_site_fract_y
  _atom_site_fract_z
  _atom_site_occupancy
  Ce  Ce1       1.0  0.59600  0.40400  0.21200  1.0000
  Ce  Ce2       1.0  0.90400  0.09580  0.28800  1.0000
  Ce  Ce3       1.0  0.09580  0.90400  0.71200  1.0000
  Ce  Ce4       1.0  0.40400  0.59600  0.78800  1.0000
  Fe  Fe1       1.0  0.25000  0.94000  0.25000  1.0000
  Fe  Fe2       1.0  0.44000  0.75000  0.25000  1.0000
  Fe  Fe3       1.0  0.06000  0.56000  0.25000  1.0000
  Fe  Fe4       1.0  0.94000  0.44000  0.75000  1.0000
  Fe  Fe5       1.0  0.56000  0.25000  0.75000  1.0000
  Fe  Fe6       1.0  0.75000  0.06000  0.75000  1.0000
