data_image0
_chemical_formula_structural       Al4Sn6
_chemical_formula_sum              "Al4 Sn6"
_cell_length_a       7.56909
_cell_length_b       7.56909
_cell_length_c       6.80957
_cell_angle_alpha    123.764
_cell_angle_beta     56.2363
_cell_angle_gamma    120

_space_group_name_H-M_alt    "P 1"
_space_group_IT_number       1

loop_
  _space_group_symop_operation_xyz
  'x, y, z'

loop_
  _atom_site_type_symbol
  _atom_site_label
  _atom_site_symmetry_multiplicity
  _atom_site_fract_x
  _atom_site_fract_y
  _atom_site_fract_z
  _atom_site_occupancy
  Al  Al1       1.0  0.66500  0.33500  0.00480  1.0000
  Al  Al2       1.0  0.83500  0.16500  0.49500  1.0000
  Al  Al3       1.0  0.16500  0.83500  0.50500  1.0000
  Al  Al4       1.0  0.33500  0.66500  0.99500  1.0000
  Sn  Sn1       1.0  0.60100  0.75000  0.25000  1.0000
  Sn  Sn2       1.0  0.89900  0.39900  0.25000  1.0000
  Sn  Sn3       1.0  0.25000  0.10100  0.25000  1.0000
  Sn  Sn4       1.0  0.75000  0.89900  0.75000  1.0000
  Sn  Sn5       1.0  0.10100  0.60100  0.75000  1.0000
  Sn  Sn6       1.0  0.39900  0.25000  0.75000  1.0000
