data_image0
_chemical_formula_structural       Fe4Sb6
_chemical_formula_sum              "Fe4 Sb6"
_cell_length_a       6.44141
_cell_length_b       6.44141
_cell_length_c       6.56925
_cell_angle_alpha    119.358
_cell_angle_beta     60.6417
_cell_angle_gamma    120

_space_group_name_H-M_alt    "P 1"
_space_group_IT_number       1

loop_
  _space_group_symop_operation_xyz
  'x, y, z'

loop_
  _atom_site_type_symbol
  _atom_site_label
  _atom_site_symmetry_multiplicity
  _atom_site_fract_x
  _atom_site_fract_y
  _atom_site_fract_z
  _atom_site_occupancy
  Fe  Fe1       1.0  0.33000  0.67000  0.00884  1.0000
  Fe  Fe2       1.0  0.17000  0.83000  0.49100  1.0000
  Fe  Fe3       1.0  0.83000  0.17000  0.50900  1.0000
  Fe  Fe4       1.0  0.67000  0.33000  0.99100  1.0000
  Sb  Sb1       1.0  0.25000  0.09710  0.25000  1.0000
  Sb  Sb2       1.0  0.90300  0.40300  0.25000  1.0000
  Sb  Sb3       1.0  0.59700  0.75000  0.25000  1.0000
  Sb  Sb4       1.0  0.40300  0.25000  0.75000  1.0000
  Sb  Sb5       1.0  0.09710  0.59700  0.75000  1.0000
  Sb  Sb6       1.0  0.75000  0.90300  0.75000  1.0000
