data_image0
_chemical_formula_structural       Fe4P6
_chemical_formula_sum              "Fe4 P6"
_cell_length_a       5.61626
_cell_length_b       5.61626
_cell_length_c       5.80388
_cell_angle_alpha    118.936
_cell_angle_beta     61.0637
_cell_angle_gamma    120

_space_group_name_H-M_alt    "P 1"
_space_group_IT_number       1

loop_
  _space_group_symop_operation_xyz
  'x, y, z'

loop_
  _atom_site_type_symbol
  _atom_site_label
  _atom_site_symmetry_multiplicity
  _atom_site_fract_x
  _atom_site_fract_y
  _atom_site_fract_z
  _atom_site_occupancy
  Fe  Fe1       1.0  0.66500  0.33500  0.00544  1.0000
  Fe  Fe2       1.0  0.83500  0.16500  0.49500  1.0000
  Fe  Fe3       1.0  0.16500  0.83500  0.50500  1.0000
  Fe  Fe4       1.0  0.33500  0.66500  0.99500  1.0000
  P   P1        1.0  0.90500  0.40500  0.25000  1.0000
  P   P2        1.0  0.59500  0.75000  0.25000  1.0000
  P   P3        1.0  0.25000  0.09510  0.25000  1.0000
  P   P4        1.0  0.75000  0.90500  0.75000  1.0000
  P   P5        1.0  0.40500  0.25000  0.75000  1.0000
  P   P6        1.0  0.09510  0.59500  0.75000  1.0000
