data_image0
_chemical_formula_structural       Mg4V6
_chemical_formula_sum              "Mg4 V6"
_cell_length_a       6.42567
_cell_length_b       6.42567
_cell_length_c       6.29811
_cell_angle_alpha    120.672
_cell_angle_beta     59.3278
_cell_angle_gamma    120

_space_group_name_H-M_alt    "P 1"
_space_group_IT_number       1

loop_
  _space_group_symop_operation_xyz
  'x, y, z'

loop_
  _atom_site_type_symbol
  _atom_site_label
  _atom_site_symmetry_multiplicity
  _atom_site_fract_x
  _atom_site_fract_y
  _atom_site_fract_z
  _atom_site_occupancy
  Mg  Mg1       1.0  0.58700  0.41300  0.23800  1.0000
  Mg  Mg2       1.0  0.91300  0.08740  0.26200  1.0000
  Mg  Mg3       1.0  0.08740  0.91300  0.73800  1.0000
  Mg  Mg4       1.0  0.41300  0.58700  0.76200  1.0000
  V   V1        1.0  0.05240  0.55200  0.25000  1.0000
  V   V2        1.0  0.44800  0.75000  0.25000  1.0000
  V   V3        1.0  0.25000  0.94800  0.25000  1.0000
  V   V4        1.0  0.75000  0.05240  0.75000  1.0000
  V   V5        1.0  0.55200  0.25000  0.75000  1.0000
  V   V6        1.0  0.94800  0.44800  0.75000  1.0000
