data_image0
_chemical_formula_structural       Fe4Ni6
_chemical_formula_sum              "Fe4 Ni6"
_cell_length_a       5.92137
_cell_length_b       5.92137
_cell_length_c       5.27056
_cell_angle_alpha    124.176
_cell_angle_beta     55.8238
_cell_angle_gamma    120

_space_group_name_H-M_alt    "P 1"
_space_group_IT_number       1

loop_
  _space_group_symop_operation_xyz
  'x, y, z'

loop_
  _atom_site_type_symbol
  _atom_site_label
  _atom_site_symmetry_multiplicity
  _atom_site_fract_x
  _atom_site_fract_y
  _atom_site_fract_z
  _atom_site_occupancy
  Fe  Fe1       1.0  0.59500  0.40500  0.21600  1.0000
  Fe  Fe2       1.0  0.90500  0.09470  0.28400  1.0000
  Fe  Fe3       1.0  0.09470  0.90500  0.71600  1.0000
  Fe  Fe4       1.0  0.40500  0.59500  0.78400  1.0000
  Ni  Ni1       1.0  0.00133  0.50100  0.25000  1.0000
  Ni  Ni2       1.0  0.49900  0.75000  0.25000  1.0000
  Ni  Ni3       1.0  0.25000  0.99900  0.25000  1.0000
  Ni  Ni4       1.0  0.75000  0.00133  0.75000  1.0000
  Ni  Ni5       1.0  0.50100  0.25000  0.75000  1.0000
  Ni  Ni6       1.0  0.99900  0.49900  0.75000  1.0000
