data_image0
_chemical_formula_structural       Be9Ti3
_chemical_formula_sum              "Be9 Ti3"
_cell_length_a       4.47051
_cell_length_b       4.47051
_cell_length_c       7.51842
_cell_angle_alpha    107.296
_cell_angle_beta     72.7043
_cell_angle_gamma    120

_space_group_name_H-M_alt    "P 1"
_space_group_IT_number       1

loop_
  _space_group_symop_operation_xyz
  'x, y, z'

loop_
  _atom_site_type_symbol
  _atom_site_label
  _atom_site_symmetry_multiplicity
  _atom_site_fract_x
  _atom_site_fract_y
  _atom_site_fract_z
  _atom_site_occupancy
  Be  Be1       1.0  0.66600  0.33400  0.00173  1.0000
  Be  Be2       1.0  0.92100  0.58200  0.24300  1.0000
  Be  Be3       1.0  0.41800  0.07900  0.24300  1.0000
  Be  Be4       1.0  0.41800  0.58200  0.24300  1.0000
  Be  Be5       1.0  0.50000  0.50000  0.50000  1.0000
  Be  Be6       1.0  0.58200  0.41800  0.75700  1.0000
  Be  Be7       1.0  0.58200  0.92100  0.75700  1.0000
  Be  Be8       1.0  0.07900  0.41800  0.75700  1.0000
  Be  Be9       1.0  0.33400  0.66600  0.99800  1.0000
  Ti  Ti1       1.0  0.00000  0.00000  0.00000  1.0000
  Ti  Ti2       1.0  0.85700  0.14300  0.42800  1.0000
  Ti  Ti3       1.0  0.14300  0.85700  0.57200  1.0000
