data_image0
_chemical_formula_structural       Fe4Ge6
_chemical_formula_sum              "Fe4 Ge6"
_cell_length_a       5.39948
_cell_length_b       5.39948
_cell_length_c       6.72893
_cell_angle_alpha    113.654
_cell_angle_beta     66.3459
_cell_angle_gamma    120

_space_group_name_H-M_alt    "P 1"
_space_group_IT_number       1

loop_
  _space_group_symop_operation_xyz
  'x, y, z'

loop_
  _atom_site_type_symbol
  _atom_site_label
  _atom_site_symmetry_multiplicity
  _atom_site_fract_x
  _atom_site_fract_y
  _atom_site_fract_z
  _atom_site_occupancy
  Fe  Fe1       1.0  0.33100  0.66900  0.00714  1.0000
  Fe  Fe2       1.0  0.16900  0.83100  0.49300  1.0000
  Fe  Fe3       1.0  0.83100  0.16900  0.50700  1.0000
  Fe  Fe4       1.0  0.66900  0.33100  0.99300  1.0000
  Ge  Ge1       1.0  0.89400  0.39400  0.25000  1.0000
  Ge  Ge2       1.0  0.60600  0.75000  0.25000  1.0000
  Ge  Ge3       1.0  0.25000  0.10600  0.25000  1.0000
  Ge  Ge4       1.0  0.75000  0.89400  0.75000  1.0000
  Ge  Ge5       1.0  0.39400  0.25000  0.75000  1.0000
  Ge  Ge6       1.0  0.10600  0.60600  0.75000  1.0000
