data_image0
_chemical_formula_structural       Au4Ni6
_chemical_formula_sum              "Au4 Ni6"
_cell_length_a       6.26067
_cell_length_b       6.26067
_cell_length_c       5.86807
_cell_angle_alpha    122.239
_cell_angle_beta     57.761
_cell_angle_gamma    120

_space_group_name_H-M_alt    "P 1"
_space_group_IT_number       1

loop_
  _space_group_symop_operation_xyz
  'x, y, z'

loop_
  _atom_site_type_symbol
  _atom_site_label
  _atom_site_symmetry_multiplicity
  _atom_site_fract_x
  _atom_site_fract_y
  _atom_site_fract_z
  _atom_site_occupancy
  Au  Au1       1.0  0.59500  0.40500  0.21500  1.0000
  Au  Au2       1.0  0.90500  0.09500  0.28500  1.0000
  Au  Au3       1.0  0.09500  0.90500  0.71500  1.0000
  Au  Au4       1.0  0.40500  0.59500  0.78500  1.0000
  Ni  Ni1       1.0  0.25000  0.97400  0.25000  1.0000
  Ni  Ni2       1.0  0.02550  0.52600  0.25000  1.0000
  Ni  Ni3       1.0  0.47400  0.75000  0.25000  1.0000
  Ni  Ni4       1.0  0.52600  0.25000  0.75000  1.0000
  Ni  Ni5       1.0  0.97400  0.47400  0.75000  1.0000
  Ni  Ni6       1.0  0.75000  0.02550  0.75000  1.0000
