data_image0
_chemical_formula_structural       Al4U6
_chemical_formula_sum              "Al4 U6"
_cell_length_a       7.27223
_cell_length_b       7.27223
_cell_length_c       6.49204
_cell_angle_alpha    124.062
_cell_angle_beta     55.9381
_cell_angle_gamma    120

_space_group_name_H-M_alt    "P 1"
_space_group_IT_number       1

loop_
  _space_group_symop_operation_xyz
  'x, y, z'

loop_
  _atom_site_type_symbol
  _atom_site_label
  _atom_site_symmetry_multiplicity
  _atom_site_fract_x
  _atom_site_fract_y
  _atom_site_fract_z
  _atom_site_occupancy
  Al  Al1       1.0  0.91800  0.08230  0.24700  1.0000
  Al  Al2       1.0  0.58200  0.41800  0.25300  1.0000
  Al  Al3       1.0  0.41800  0.58200  0.74700  1.0000
  Al  Al4       1.0  0.08230  0.91800  0.75300  1.0000
  U   U1        1.0  0.25000  0.95500  0.25000  1.0000
  U   U2        1.0  0.45500  0.75000  0.25000  1.0000
  U   U3        1.0  0.04450  0.54500  0.25000  1.0000
  U   U4        1.0  0.95500  0.45500  0.75000  1.0000
  U   U5        1.0  0.54500  0.25000  0.75000  1.0000
  U   U6        1.0  0.75000  0.04450  0.75000  1.0000
