data_image0
_chemical_formula_structural       As4Fe6
_chemical_formula_sum              "As4 Fe6"
_cell_length_a       6.11734
_cell_length_b       6.11734
_cell_length_c       5.75358
_cell_angle_alpha    122.114
_cell_angle_beta     57.8856
_cell_angle_gamma    120

_space_group_name_H-M_alt    "P 1"
_space_group_IT_number       1

loop_
  _space_group_symop_operation_xyz
  'x, y, z'

loop_
  _atom_site_type_symbol
  _atom_site_label
  _atom_site_symmetry_multiplicity
  _atom_site_fract_x
  _atom_site_fract_y
  _atom_site_fract_z
  _atom_site_occupancy
  As  As1       1.0  0.60600  0.39400  0.18100  1.0000
  As  As2       1.0  0.89400  0.10600  0.31900  1.0000
  As  As3       1.0  0.10600  0.89400  0.68100  1.0000
  As  As4       1.0  0.39400  0.60600  0.81900  1.0000
  Fe  Fe1       1.0  0.25000  0.99100  0.25000  1.0000
  Fe  Fe2       1.0  0.49100  0.75000  0.25000  1.0000
  Fe  Fe3       1.0  0.00945  0.50900  0.25000  1.0000
  Fe  Fe4       1.0  0.99100  0.49100  0.75000  1.0000
  Fe  Fe5       1.0  0.50900  0.25000  0.75000  1.0000
  Fe  Fe6       1.0  0.75000  0.00945  0.75000  1.0000
