data_image0
_chemical_formula_structural       Al4Sc6
_chemical_formula_sum              "Al4 Sc6"
_cell_length_a       6.11956
_cell_length_b       6.11956
_cell_length_c       7.72451
_cell_angle_alpha    113.335
_cell_angle_beta     66.6646
_cell_angle_gamma    120

_space_group_name_H-M_alt    "P 1"
_space_group_IT_number       1

loop_
  _space_group_symop_operation_xyz
  'x, y, z'

loop_
  _atom_site_type_symbol
  _atom_site_label
  _atom_site_symmetry_multiplicity
  _atom_site_fract_x
  _atom_site_fract_y
  _atom_site_fract_z
  _atom_site_occupancy
  Al  Al1       1.0  0.31100  0.68900  0.06690  1.0000
  Al  Al2       1.0  0.18900  0.81100  0.43300  1.0000
  Al  Al3       1.0  0.81100  0.18900  0.56700  1.0000
  Al  Al4       1.0  0.68900  0.31100  0.93300  1.0000
  Sc  Sc1       1.0  0.25000  0.18800  0.25000  1.0000
  Sc  Sc2       1.0  0.68800  0.75000  0.25000  1.0000
  Sc  Sc3       1.0  0.81200  0.31200  0.25000  1.0000
  Sc  Sc4       1.0  0.18800  0.68800  0.75000  1.0000
  Sc  Sc5       1.0  0.31200  0.25000  0.75000  1.0000
  Sc  Sc6       1.0  0.75000  0.81200  0.75000  1.0000
