data_image0
_chemical_formula_structural       As4Ni6
_chemical_formula_sum              "As4 Ni6"
_cell_length_a       6.08332
_cell_length_b       6.08332
_cell_length_c       5.66637
_cell_angle_alpha    122.466
_cell_angle_beta     57.5345
_cell_angle_gamma    120

_space_group_name_H-M_alt    "P 1"
_space_group_IT_number       1

loop_
  _space_group_symop_operation_xyz
  'x, y, z'

loop_
  _atom_site_type_symbol
  _atom_site_label
  _atom_site_symmetry_multiplicity
  _atom_site_fract_x
  _atom_site_fract_y
  _atom_site_fract_z
  _atom_site_occupancy
  As  As1       1.0  0.61100  0.38900  0.16800  1.0000
  As  As2       1.0  0.88900  0.11100  0.33200  1.0000
  As  As3       1.0  0.11100  0.88900  0.66800  1.0000
  As  As4       1.0  0.38900  0.61100  0.83200  1.0000
  Ni  Ni1       1.0  0.25000  0.99900  0.25000  1.0000
  Ni  Ni2       1.0  0.49900  0.75000  0.25000  1.0000
  Ni  Ni3       1.0  0.00098  0.50100  0.25000  1.0000
  Ni  Ni4       1.0  0.99900  0.49900  0.75000  1.0000
  Ni  Ni5       1.0  0.50100  0.25000  0.75000  1.0000
  Ni  Ni6       1.0  0.75000  0.00098  0.75000  1.0000
