data_image0
_chemical_formula_structural       H4Ni6
_chemical_formula_sum              "H4 Ni6"
_cell_length_a       4.4386
_cell_length_b       4.43861
_cell_length_c       4.95152
_cell_angle_alpha    116.612
_cell_angle_beta     63.4058
_cell_angle_gamma    119.999

_space_group_name_H-M_alt    "P 1"
_space_group_IT_number       1

loop_
  _space_group_symop_operation_xyz
  'x, y, z'

loop_
  _atom_site_type_symbol
  _atom_site_label
  _atom_site_symmetry_multiplicity
  _atom_site_fract_x
  _atom_site_fract_y
  _atom_site_fract_z
  _atom_site_occupancy
  H   H1        1.0  0.66100  0.33900  0.01830  1.0000
  H   H2        1.0  0.83900  0.16100  0.48200  1.0000
  H   H3        1.0  0.16100  0.83900  0.51800  1.0000
  H   H4        1.0  0.33900  0.66100  0.98200  1.0000
  Ni  Ni1       1.0  0.91700  0.41700  0.25000  1.0000
  Ni  Ni2       1.0  0.25000  0.08290  0.25000  1.0000
  Ni  Ni3       1.0  0.58300  0.75000  0.25000  1.0000
  Ni  Ni4       1.0  0.41700  0.25000  0.75000  1.0000
  Ni  Ni5       1.0  0.75000  0.91700  0.75000  1.0000
  Ni  Ni6       1.0  0.08290  0.58300  0.75000  1.0000
