data_image0
_chemical_formula_structural       Al4Ce6
_chemical_formula_sum              "Al4 Ce6"
_cell_length_a       6.76745
_cell_length_b       6.76742
_cell_length_c       9.5901
_cell_angle_alpha    110.659
_cell_angle_beta     69.3425
_cell_angle_gamma    119.999

_space_group_name_H-M_alt    "P 1"
_space_group_IT_number       1

loop_
  _space_group_symop_operation_xyz
  'x, y, z'

loop_
  _atom_site_type_symbol
  _atom_site_label
  _atom_site_symmetry_multiplicity
  _atom_site_fract_x
  _atom_site_fract_y
  _atom_site_fract_z
  _atom_site_occupancy
  Al  Al1       1.0  0.66500  0.33500  0.00432  1.0000
  Al  Al2       1.0  0.83500  0.16500  0.49600  1.0000
  Al  Al3       1.0  0.16500  0.83500  0.50400  1.0000
  Al  Al4       1.0  0.33500  0.66500  0.99600  1.0000
  Ce  Ce1       1.0  0.92100  0.42100  0.25000  1.0000
  Ce  Ce2       1.0  0.25000  0.07900  0.25000  1.0000
  Ce  Ce3       1.0  0.57900  0.75000  0.25000  1.0000
  Ce  Ce4       1.0  0.42100  0.25000  0.75000  1.0000
  Ce  Ce5       1.0  0.75000  0.92100  0.75000  1.0000
  Ce  Ce6       1.0  0.07910  0.57900  0.75000  1.0000
