data_image0
_chemical_formula_structural       Mg4Rh6
_chemical_formula_sum              "Mg4 Rh6"
_cell_length_a       6.53175
_cell_length_b       6.53175
_cell_length_c       5.83673
_cell_angle_alpha    124.024
_cell_angle_beta     55.9761
_cell_angle_gamma    120

_space_group_name_H-M_alt    "P 1"
_space_group_IT_number       1

loop_
  _space_group_symop_operation_xyz
  'x, y, z'

loop_
  _atom_site_type_symbol
  _atom_site_label
  _atom_site_symmetry_multiplicity
  _atom_site_fract_x
  _atom_site_fract_y
  _atom_site_fract_z
  _atom_site_occupancy
  Mg  Mg1       1.0  0.59700  0.40300  0.21000  1.0000
  Mg  Mg2       1.0  0.90300  0.09660  0.29000  1.0000
  Mg  Mg3       1.0  0.09660  0.90300  0.71000  1.0000
  Mg  Mg4       1.0  0.40300  0.59700  0.79000  1.0000
  Rh  Rh1       1.0  0.25000  0.99400  0.25000  1.0000
  Rh  Rh2       1.0  0.49400  0.75000  0.25000  1.0000
  Rh  Rh3       1.0  0.00606  0.50600  0.25000  1.0000
  Rh  Rh4       1.0  0.99400  0.49400  0.75000  1.0000
  Rh  Rh5       1.0  0.50600  0.25000  0.75000  1.0000
  Rh  Rh6       1.0  0.75000  0.00606  0.75000  1.0000
