data_image0
_chemical_formula_structural       C4Ni6
_chemical_formula_sum              "C4 Ni6"
_cell_length_a       5.14511
_cell_length_b       5.14511
_cell_length_c       5.03942
_cell_angle_alpha    120.696
_cell_angle_beta     59.3038
_cell_angle_gamma    120

_space_group_name_H-M_alt    "P 1"
_space_group_IT_number       1

loop_
  _space_group_symop_operation_xyz
  'x, y, z'

loop_
  _atom_site_type_symbol
  _atom_site_label
  _atom_site_symmetry_multiplicity
  _atom_site_fract_x
  _atom_site_fract_y
  _atom_site_fract_z
  _atom_site_occupancy
  C   C1        1.0  0.64100  0.35900  0.07550  1.0000
  C   C2        1.0  0.85900  0.14100  0.42400  1.0000
  C   C3        1.0  0.14100  0.85900  0.57600  1.0000
  C   C4        1.0  0.35900  0.64100  0.92400  1.0000
  Ni  Ni1       1.0  0.25000  0.04390  0.25000  1.0000
  Ni  Ni2       1.0  0.95600  0.45600  0.25000  1.0000
  Ni  Ni3       1.0  0.54400  0.75000  0.25000  1.0000
  Ni  Ni4       1.0  0.45600  0.25000  0.75000  1.0000
  Ni  Ni5       1.0  0.04390  0.54400  0.75000  1.0000
  Ni  Ni6       1.0  0.75000  0.95600  0.75000  1.0000
