data_image0
_chemical_formula_structural       Al4Ga6
_chemical_formula_sum              "Al4 Ga6"
_cell_length_a       6.20879
_cell_length_b       6.20879
_cell_length_c       7.0876
_cell_angle_alpha    115.977
_cell_angle_beta     64.0234
_cell_angle_gamma    120

_space_group_name_H-M_alt    "P 1"
_space_group_IT_number       1

loop_
  _space_group_symop_operation_xyz
  'x, y, z'

loop_
  _atom_site_type_symbol
  _atom_site_label
  _atom_site_symmetry_multiplicity
  _atom_site_fract_x
  _atom_site_fract_y
  _atom_site_fract_z
  _atom_site_occupancy
  Al  Al1       1.0  0.32100  0.67900  0.03670  1.0000
  Al  Al2       1.0  0.17900  0.82100  0.46300  1.0000
  Al  Al3       1.0  0.82100  0.17900  0.53700  1.0000
  Al  Al4       1.0  0.67900  0.32100  0.96300  1.0000
  Ga  Ga1       1.0  0.25000  0.14400  0.25000  1.0000
  Ga  Ga2       1.0  0.85600  0.35600  0.25000  1.0000
  Ga  Ga3       1.0  0.64400  0.75000  0.25000  1.0000
  Ga  Ga4       1.0  0.35600  0.25000  0.75000  1.0000
  Ga  Ga5       1.0  0.14400  0.64400  0.75000  1.0000
  Ga  Ga6       1.0  0.75000  0.85600  0.75000  1.0000
