data_image0
_chemical_formula_structural       H4Mg6
_chemical_formula_sum              "H4 Mg6"
_cell_length_a       5.53407
_cell_length_b       5.53407
_cell_length_c       5.98221
_cell_angle_alpha    117.551
_cell_angle_beta     62.4486
_cell_angle_gamma    120

_space_group_name_H-M_alt    "P 1"
_space_group_IT_number       1

loop_
  _space_group_symop_operation_xyz
  'x, y, z'

loop_
  _atom_site_type_symbol
  _atom_site_label
  _atom_site_symmetry_multiplicity
  _atom_site_fract_x
  _atom_site_fract_y
  _atom_site_fract_z
  _atom_site_occupancy
  H   H1        1.0  0.33000  0.67000  0.01120  1.0000
  H   H2        1.0  0.17000  0.83000  0.48900  1.0000
  H   H3        1.0  0.83000  0.17000  0.51100  1.0000
  H   H4        1.0  0.67000  0.33000  0.98900  1.0000
  Mg  Mg1       1.0  0.25000  0.08420  0.25000  1.0000
  Mg  Mg2       1.0  0.91600  0.41600  0.25000  1.0000
  Mg  Mg3       1.0  0.58400  0.75000  0.25000  1.0000
  Mg  Mg4       1.0  0.41600  0.25000  0.75000  1.0000
  Mg  Mg5       1.0  0.08420  0.58400  0.75000  1.0000
  Mg  Mg6       1.0  0.75000  0.91600  0.75000  1.0000
