data_image0
_chemical_formula_structural       Au4Fe6
_chemical_formula_sum              "Au4 Fe6"
_cell_length_a       6.38291
_cell_length_b       6.38291
_cell_length_c       6.01719
_cell_angle_alpha    122.032
_cell_angle_beta     57.9682
_cell_angle_gamma    120

_space_group_name_H-M_alt    "P 1"
_space_group_IT_number       1

loop_
  _space_group_symop_operation_xyz
  'x, y, z'

loop_
  _atom_site_type_symbol
  _atom_site_label
  _atom_site_symmetry_multiplicity
  _atom_site_fract_x
  _atom_site_fract_y
  _atom_site_fract_z
  _atom_site_occupancy
  Au  Au1       1.0  0.59300  0.40700  0.22100  1.0000
  Au  Au2       1.0  0.90700  0.09310  0.27900  1.0000
  Au  Au3       1.0  0.09310  0.90700  0.72100  1.0000
  Au  Au4       1.0  0.40700  0.59300  0.77900  1.0000
  Fe  Fe1       1.0  0.47100  0.75000  0.25000  1.0000
  Fe  Fe2       1.0  0.02890  0.52900  0.25000  1.0000
  Fe  Fe3       1.0  0.25000  0.97100  0.25000  1.0000
  Fe  Fe4       1.0  0.75000  0.02890  0.75000  1.0000
  Fe  Fe5       1.0  0.97100  0.47100  0.75000  1.0000
  Fe  Fe6       1.0  0.52900  0.25000  0.75000  1.0000
