data_image0
_chemical_formula_structural       Al8Tb12
_chemical_formula_sum              "Al8 Tb12"
_cell_length_a       8.28121
_cell_length_b       8.28121
_cell_length_c       7.60762
_cell_angle_alpha    90
_cell_angle_beta     90
_cell_angle_gamma    90

_space_group_name_H-M_alt    "P 1"
_space_group_IT_number       1

loop_
  _space_group_symop_operation_xyz
  'x, y, z'

loop_
  _atom_site_type_symbol
  _atom_site_label
  _atom_site_symmetry_multiplicity
  _atom_site_fract_x
  _atom_site_fract_y
  _atom_site_fract_z
  _atom_site_occupancy
  Al  Al1       1.0  0.38100  0.38100  0.30600  1.0000
  Al  Al2       1.0  0.61900  0.61900  0.30600  1.0000
  Al  Al3       1.0  0.88100  0.11900  0.19400  1.0000
  Al  Al4       1.0  0.11900  0.88100  0.19400  1.0000
  Al  Al5       1.0  0.61900  0.61900  0.69400  1.0000
  Al  Al6       1.0  0.38100  0.38100  0.69400  1.0000
  Al  Al7       1.0  0.88100  0.11900  0.80600  1.0000
  Al  Al8       1.0  0.11900  0.88100  0.80600  1.0000
  Tb  Tb1       1.0  0.20200  0.20200  0.00000  1.0000
  Tb  Tb2       1.0  0.79800  0.79800  0.00000  1.0000
  Tb  Tb3       1.0  0.70200  0.29800  0.50000  1.0000
  Tb  Tb4       1.0  0.29800  0.70200  0.50000  1.0000
  Tb  Tb5       1.0  0.00000  0.50000  0.25000  1.0000
  Tb  Tb6       1.0  0.50000  0.00000  0.25000  1.0000
  Tb  Tb7       1.0  0.50000  0.00000  0.75000  1.0000
  Tb  Tb8       1.0  0.00000  0.50000  0.75000  1.0000
  Tb  Tb9       1.0  0.15000  0.15000  0.50000  1.0000
  Tb  Tb10      1.0  0.85000  0.85000  0.50000  1.0000
  Tb  Tb11      1.0  0.65000  0.35000  0.00000  1.0000
  Tb  Tb12      1.0  0.35000  0.65000  0.00000  1.0000
