data_image0
_chemical_formula_structural       Al8Ho12
_chemical_formula_sum              "Al8 Ho12"
_cell_length_a       8.19995
_cell_length_b       8.19995
_cell_length_c       7.55413
_cell_angle_alpha    90
_cell_angle_beta     90
_cell_angle_gamma    90

_space_group_name_H-M_alt    "P 1"
_space_group_IT_number       1

loop_
  _space_group_symop_operation_xyz
  'x, y, z'

loop_
  _atom_site_type_symbol
  _atom_site_label
  _atom_site_symmetry_multiplicity
  _atom_site_fract_x
  _atom_site_fract_y
  _atom_site_fract_z
  _atom_site_occupancy
  Al  Al1       1.0  0.38000  0.38000  0.30400  1.0000
  Al  Al2       1.0  0.62000  0.62000  0.30400  1.0000
  Al  Al3       1.0  0.88000  0.12000  0.19600  1.0000
  Al  Al4       1.0  0.12000  0.88000  0.19600  1.0000
  Al  Al5       1.0  0.62000  0.62000  0.69600  1.0000
  Al  Al6       1.0  0.38000  0.38000  0.69600  1.0000
  Al  Al7       1.0  0.88000  0.12000  0.80400  1.0000
  Al  Al8       1.0  0.12000  0.88000  0.80400  1.0000
  Ho  Ho1       1.0  0.15000  0.15000  0.50000  1.0000
  Ho  Ho2       1.0  0.85000  0.85000  0.50000  1.0000
  Ho  Ho3       1.0  0.65000  0.35000  0.00000  1.0000
  Ho  Ho4       1.0  0.35000  0.65000  0.00000  1.0000
  Ho  Ho5       1.0  0.00000  0.50000  0.25000  1.0000
  Ho  Ho6       1.0  0.50000  0.00000  0.25000  1.0000
  Ho  Ho7       1.0  0.50000  0.00000  0.75000  1.0000
  Ho  Ho8       1.0  0.00000  0.50000  0.75000  1.0000
  Ho  Ho9       1.0  0.20100  0.20100  0.00000  1.0000
  Ho  Ho10      1.0  0.79900  0.79900  0.00000  1.0000
  Ho  Ho11      1.0  0.70100  0.29900  0.50000  1.0000
  Ho  Ho12      1.0  0.29900  0.70100  0.50000  1.0000
