data_image0
_chemical_formula_structural       Ce4Mg6
_chemical_formula_sum              "Ce4 Mg6"
_cell_length_a       9.49485
_cell_length_b       9.49485
_cell_length_c       6.81998
_cell_angle_alpha    134.115
_cell_angle_beta     45.8846
_cell_angle_gamma    120

_space_group_name_H-M_alt    "P 1"
_space_group_IT_number       1

loop_
  _space_group_symop_operation_xyz
  'x, y, z'

loop_
  _atom_site_type_symbol
  _atom_site_label
  _atom_site_symmetry_multiplicity
  _atom_site_fract_x
  _atom_site_fract_y
  _atom_site_fract_z
  _atom_site_occupancy
  Ce  Ce1       1.0  0.62400  0.37600  0.12700  1.0000
  Ce  Ce2       1.0  0.87600  0.12400  0.37300  1.0000
  Ce  Ce3       1.0  0.12400  0.87600  0.62700  1.0000
  Ce  Ce4       1.0  0.37600  0.62400  0.87300  1.0000
  Mg  Mg1       1.0  0.56900  0.75000  0.25000  1.0000
  Mg  Mg2       1.0  0.93100  0.43100  0.25000  1.0000
  Mg  Mg3       1.0  0.25000  0.06930  0.25000  1.0000
  Mg  Mg4       1.0  0.75000  0.93100  0.75000  1.0000
  Mg  Mg5       1.0  0.06930  0.56900  0.75000  1.0000
  Mg  Mg6       1.0  0.43100  0.25000  0.75000  1.0000
