data_image0
_chemical_formula_structural       Ba4Mg6
_chemical_formula_sum              "Ba4 Mg6"
_cell_length_a       9.92557
_cell_length_b       9.92557
_cell_length_c       7.4937
_cell_angle_alpha    131.473
_cell_angle_beta     48.5274
_cell_angle_gamma    120

_space_group_name_H-M_alt    "P 1"
_space_group_IT_number       1

loop_
  _space_group_symop_operation_xyz
  'x, y, z'

loop_
  _atom_site_type_symbol
  _atom_site_label
  _atom_site_symmetry_multiplicity
  _atom_site_fract_x
  _atom_site_fract_y
  _atom_site_fract_z
  _atom_site_occupancy
  Ba  Ba1       1.0  0.62200  0.37800  0.13300  1.0000
  Ba  Ba2       1.0  0.87800  0.12200  0.36700  1.0000
  Ba  Ba3       1.0  0.12200  0.87800  0.63300  1.0000
  Ba  Ba4       1.0  0.37800  0.62200  0.86700  1.0000
  Mg  Mg1       1.0  0.56000  0.75000  0.25000  1.0000
  Mg  Mg2       1.0  0.25000  0.05970  0.25000  1.0000
  Mg  Mg3       1.0  0.94000  0.44000  0.25000  1.0000
  Mg  Mg4       1.0  0.05970  0.56000  0.75000  1.0000
  Mg  Mg5       1.0  0.75000  0.94000  0.75000  1.0000
  Mg  Mg6       1.0  0.44000  0.25000  0.75000  1.0000
