data_image0
_chemical_formula_structural       Fe4Si6
_chemical_formula_sum              "Fe4 Si6"
_cell_length_a       5.11842
_cell_length_b       5.11842
_cell_length_c       6.50002
_cell_angle_alpha    113.186
_cell_angle_beta     66.8136
_cell_angle_gamma    120

_space_group_name_H-M_alt    "P 1"
_space_group_IT_number       1

loop_
  _space_group_symop_operation_xyz
  'x, y, z'

loop_
  _atom_site_type_symbol
  _atom_site_label
  _atom_site_symmetry_multiplicity
  _atom_site_fract_x
  _atom_site_fract_y
  _atom_site_fract_z
  _atom_site_occupancy
  Fe  Fe1       1.0  0.33100  0.66900  0.00814  1.0000
  Fe  Fe2       1.0  0.16900  0.83100  0.49200  1.0000
  Fe  Fe3       1.0  0.83100  0.16900  0.50800  1.0000
  Fe  Fe4       1.0  0.66900  0.33100  0.99200  1.0000
  Si  Si1       1.0  0.88900  0.38900  0.25000  1.0000
  Si  Si2       1.0  0.25000  0.11100  0.25000  1.0000
  Si  Si3       1.0  0.61100  0.75000  0.25000  1.0000
  Si  Si4       1.0  0.38900  0.25000  0.75000  1.0000
  Si  Si5       1.0  0.75000  0.88900  0.75000  1.0000
  Si  Si6       1.0  0.11100  0.61100  0.75000  1.0000
