data_image0
_chemical_formula_structural       Mg4Si6
_chemical_formula_sum              "Mg4 Si6"
_cell_length_a       7.54563
_cell_length_b       7.54563
_cell_length_c       5.85504
_cell_angle_alpha    130.118
_cell_angle_beta     49.8816
_cell_angle_gamma    120

_space_group_name_H-M_alt    "P 1"
_space_group_IT_number       1

loop_
  _space_group_symop_operation_xyz
  'x, y, z'

loop_
  _atom_site_type_symbol
  _atom_site_label
  _atom_site_symmetry_multiplicity
  _atom_site_fract_x
  _atom_site_fract_y
  _atom_site_fract_z
  _atom_site_occupancy
  Mg  Mg1       1.0  0.62200  0.37800  0.13300  1.0000
  Mg  Mg2       1.0  0.87800  0.12200  0.36700  1.0000
  Mg  Mg3       1.0  0.12200  0.87800  0.63300  1.0000
  Mg  Mg4       1.0  0.37800  0.62200  0.86700  1.0000
  Si  Si1       1.0  0.25000  0.05660  0.25000  1.0000
  Si  Si2       1.0  0.94300  0.44300  0.25000  1.0000
  Si  Si3       1.0  0.55700  0.75000  0.25000  1.0000
  Si  Si4       1.0  0.44300  0.25000  0.75000  1.0000
  Si  Si5       1.0  0.05660  0.55700  0.75000  1.0000
  Si  Si6       1.0  0.75000  0.94300  0.75000  1.0000
