data_image0
_chemical_formula_structural       Fe4Te6
_chemical_formula_sum              "Fe4 Te6"
_cell_length_a       6.65122
_cell_length_b       6.65122
_cell_length_c       6.4918
_cell_angle_alpha    120.816
_cell_angle_beta     59.1843
_cell_angle_gamma    120

_space_group_name_H-M_alt    "P 1"
_space_group_IT_number       1

loop_
  _space_group_symop_operation_xyz
  'x, y, z'

loop_
  _atom_site_type_symbol
  _atom_site_label
  _atom_site_symmetry_multiplicity
  _atom_site_fract_x
  _atom_site_fract_y
  _atom_site_fract_z
  _atom_site_occupancy
  Fe  Fe1       1.0  0.66000  0.34000  0.01990  1.0000
  Fe  Fe2       1.0  0.84000  0.16000  0.48000  1.0000
  Fe  Fe3       1.0  0.16000  0.84000  0.52000  1.0000
  Fe  Fe4       1.0  0.34000  0.66000  0.98000  1.0000
  Te  Te1       1.0  0.57300  0.75000  0.25000  1.0000
  Te  Te2       1.0  0.92700  0.42700  0.25000  1.0000
  Te  Te3       1.0  0.25000  0.07250  0.25000  1.0000
  Te  Te4       1.0  0.75000  0.92700  0.75000  1.0000
  Te  Te5       1.0  0.07250  0.57300  0.75000  1.0000
  Te  Te6       1.0  0.42700  0.25000  0.75000  1.0000
