data_image0
_chemical_formula_structural       Ac4Fe6
_chemical_formula_sum              "Ac4 Fe6"
_cell_length_a       7.03857
_cell_length_b       7.03857
_cell_length_c       7.39353
_cell_angle_alpha    118.424
_cell_angle_beta     61.5758
_cell_angle_gamma    120

_space_group_name_H-M_alt    "P 1"
_space_group_IT_number       1

loop_
  _space_group_symop_operation_xyz
  'x, y, z'

loop_
  _atom_site_type_symbol
  _atom_site_label
  _atom_site_symmetry_multiplicity
  _atom_site_fract_x
  _atom_site_fract_y
  _atom_site_fract_z
  _atom_site_occupancy
  Ac  Ac1       1.0  0.60000  0.40000  0.19900  1.0000
  Ac  Ac2       1.0  0.90000  0.10000  0.30100  1.0000
  Ac  Ac3       1.0  0.10000  0.90000  0.69900  1.0000
  Ac  Ac4       1.0  0.40000  0.60000  0.80100  1.0000
  Fe  Fe1       1.0  0.06600  0.56600  0.25000  1.0000
  Fe  Fe2       1.0  0.43400  0.75000  0.25000  1.0000
  Fe  Fe3       1.0  0.25000  0.93400  0.25000  1.0000
  Fe  Fe4       1.0  0.75000  0.06600  0.75000  1.0000
  Fe  Fe5       1.0  0.56600  0.25000  0.75000  1.0000
  Fe  Fe6       1.0  0.93400  0.43400  0.75000  1.0000
