data_image0
_chemical_formula_structural       Ba2Ca3Cu4O12Tl2
_chemical_formula_sum              "Ba2 Ca3 Cu4 O12 Tl2"
_cell_length_a       21.4438
_cell_length_b       3.87976
_cell_length_c       3.87976
_cell_angle_alpha    90
_cell_angle_beta     95.1903
_cell_angle_gamma    95.1903

_space_group_name_H-M_alt    "P 1"
_space_group_IT_number       1

loop_
  _space_group_symop_operation_xyz
  'x, y, z'

loop_
  _atom_site_type_symbol
  _atom_site_label
  _atom_site_symmetry_multiplicity
  _atom_site_fract_x
  _atom_site_fract_y
  _atom_site_fract_z
  _atom_site_occupancy
  Ba  Ba1       1.0  0.31100  0.15500  0.15500  1.0000
  Ba  Ba2       1.0  0.68900  0.84500  0.84500  1.0000
  Ca  Ca1       1.0  0.00000  0.00000  0.00000  1.0000
  Ca  Ca2       1.0  0.14800  0.07410  0.07410  1.0000
  Ca  Ca3       1.0  0.85200  0.92600  0.92600  1.0000
  Cu  Cu1       1.0  0.78200  0.39100  0.39100  1.0000
  Cu  Cu2       1.0  0.92600  0.46300  0.46300  1.0000
  Cu  Cu3       1.0  0.07420  0.53700  0.53700  1.0000
  Cu  Cu4       1.0  0.21800  0.60900  0.60900  1.0000
  O   O1        1.0  0.07330  0.53700  0.03670  1.0000
  O   O2        1.0  0.21900  0.61000  0.11000  1.0000
  O   O3        1.0  0.50000  0.75000  0.25000  1.0000
  O   O4        1.0  0.65200  0.32600  0.32600  1.0000
  O   O5        1.0  0.78100  0.89000  0.39000  1.0000
  O   O6        1.0  0.92700  0.96300  0.46300  1.0000
  O   O7        1.0  0.07330  0.03670  0.53700  1.0000
  O   O8        1.0  0.21900  0.11000  0.61000  1.0000
  O   O9        1.0  0.34800  0.67400  0.67400  1.0000
  O   O10       1.0  0.50000  0.25000  0.75000  1.0000
  O   O11       1.0  0.78100  0.39000  0.89000  1.0000
  O   O12       1.0  0.92700  0.46300  0.96300  1.0000
  Tl  Tl1       1.0  0.55400  0.27700  0.27700  1.0000
  Tl  Tl2       1.0  0.44600  0.72300  0.72300  1.0000
