data_image0
_chemical_formula_structural       Fe4Pt6
_chemical_formula_sum              "Fe4 Pt6"
_cell_length_a       6.60659
_cell_length_b       6.60659
_cell_length_c       5.60623
_cell_angle_alpha    126.102
_cell_angle_beta     53.8984
_cell_angle_gamma    120

_space_group_name_H-M_alt    "P 1"
_space_group_IT_number       1

loop_
  _space_group_symop_operation_xyz
  'x, y, z'

loop_
  _atom_site_type_symbol
  _atom_site_label
  _atom_site_symmetry_multiplicity
  _atom_site_fract_x
  _atom_site_fract_y
  _atom_site_fract_z
  _atom_site_occupancy
  Fe  Fe1       1.0  0.59600  0.40400  0.21300  1.0000
  Fe  Fe2       1.0  0.90400  0.09550  0.28700  1.0000
  Fe  Fe3       1.0  0.09550  0.90400  0.71300  1.0000
  Fe  Fe4       1.0  0.40400  0.59600  0.78700  1.0000
  Pt  Pt1       1.0  0.99000  0.49000  0.25000  1.0000
  Pt  Pt2       1.0  0.51000  0.75000  0.25000  1.0000
  Pt  Pt3       1.0  0.25000  0.01050  0.25000  1.0000
  Pt  Pt4       1.0  0.75000  0.99000  0.75000  1.0000
  Pt  Pt5       1.0  0.49000  0.25000  0.75000  1.0000
  Pt  Pt6       1.0  0.01050  0.51000  0.75000  1.0000
