data_image0
_chemical_formula_structural       Al4Au6
_chemical_formula_sum              "Al4 Au6"
_cell_length_a       6.8505
_cell_length_b       6.8505
_cell_length_c       6.01989
_cell_angle_alpha    124.68
_cell_angle_beta     55.3203
_cell_angle_gamma    120

_space_group_name_H-M_alt    "P 1"
_space_group_IT_number       1

loop_
  _space_group_symop_operation_xyz
  'x, y, z'

loop_
  _atom_site_type_symbol
  _atom_site_label
  _atom_site_symmetry_multiplicity
  _atom_site_fract_x
  _atom_site_fract_y
  _atom_site_fract_z
  _atom_site_occupancy
  Al  Al1       1.0  0.60100  0.39900  0.19700  1.0000
  Al  Al2       1.0  0.89900  0.10100  0.30300  1.0000
  Al  Al3       1.0  0.10100  0.89900  0.69700  1.0000
  Al  Al4       1.0  0.39900  0.60100  0.80300  1.0000
  Au  Au1       1.0  0.98900  0.48900  0.25000  1.0000
  Au  Au2       1.0  0.51100  0.75000  0.25000  1.0000
  Au  Au3       1.0  0.25000  0.01110  0.25000  1.0000
  Au  Au4       1.0  0.75000  0.98900  0.75000  1.0000
  Au  Au5       1.0  0.48900  0.25000  0.75000  1.0000
  Au  Au6       1.0  0.01110  0.51100  0.75000  1.0000
