data_image0
_chemical_formula_structural       Fe4Ga6
_chemical_formula_sum              "Fe4 Ga6"
_cell_length_a       5.24981
_cell_length_b       5.24981
_cell_length_c       6.86135
_cell_angle_alpha    112.493
_cell_angle_beta     67.5074
_cell_angle_gamma    120

_space_group_name_H-M_alt    "P 1"
_space_group_IT_number       1

loop_
  _space_group_symop_operation_xyz
  'x, y, z'

loop_
  _atom_site_type_symbol
  _atom_site_label
  _atom_site_symmetry_multiplicity
  _atom_site_fract_x
  _atom_site_fract_y
  _atom_site_fract_z
  _atom_site_occupancy
  Fe  Fe1       1.0  0.31500  0.68500  0.05400  1.0000
  Fe  Fe2       1.0  0.18500  0.81500  0.44600  1.0000
  Fe  Fe3       1.0  0.81500  0.18500  0.55400  1.0000
  Fe  Fe4       1.0  0.68500  0.31500  0.94600  1.0000
  Ga  Ga1       1.0  0.25000  0.17500  0.25000  1.0000
  Ga  Ga2       1.0  0.82500  0.32500  0.25000  1.0000
  Ga  Ga3       1.0  0.67500  0.75000  0.25000  1.0000
  Ga  Ga4       1.0  0.32500  0.25000  0.75000  1.0000
  Ga  Ga5       1.0  0.17500  0.67500  0.75000  1.0000
  Ga  Ga6       1.0  0.75000  0.82500  0.75000  1.0000
