data_image0
_chemical_formula_structural       Ni4Yb6
_chemical_formula_sum              "Ni4 Yb6"
_cell_length_a       6.86623
_cell_length_b       6.86623
_cell_length_c       7.16515
_cell_angle_alpha    118.629
_cell_angle_beta     61.3707
_cell_angle_gamma    120

_space_group_name_H-M_alt    "P 1"
_space_group_IT_number       1

loop_
  _space_group_symop_operation_xyz
  'x, y, z'

loop_
  _atom_site_type_symbol
  _atom_site_label
  _atom_site_symmetry_multiplicity
  _atom_site_fract_x
  _atom_site_fract_y
  _atom_site_fract_z
  _atom_site_occupancy
  Ni  Ni1       1.0  0.31700  0.68300  0.04880  1.0000
  Ni  Ni2       1.0  0.18300  0.81700  0.45100  1.0000
  Ni  Ni3       1.0  0.81700  0.18300  0.54900  1.0000
  Ni  Ni4       1.0  0.68300  0.31700  0.95100  1.0000
  Yb  Yb1       1.0  0.25000  0.10800  0.25000  1.0000
  Yb  Yb2       1.0  0.89200  0.39200  0.25000  1.0000
  Yb  Yb3       1.0  0.60800  0.75000  0.25000  1.0000
  Yb  Yb4       1.0  0.39200  0.25000  0.75000  1.0000
  Yb  Yb5       1.0  0.10800  0.60800  0.75000  1.0000
  Yb  Yb6       1.0  0.75000  0.89200  0.75000  1.0000
