data_image0
_chemical_formula_structural       P4Ti6
_chemical_formula_sum              "P4 Ti6"
_cell_length_a       6.09769
_cell_length_b       6.09769
_cell_length_c       6.40494
_cell_angle_alpha    118.425
_cell_angle_beta     61.5746
_cell_angle_gamma    120

_space_group_name_H-M_alt    "P 1"
_space_group_IT_number       1

loop_
  _space_group_symop_operation_xyz
  'x, y, z'

loop_
  _atom_site_type_symbol
  _atom_site_label
  _atom_site_symmetry_multiplicity
  _atom_site_fract_x
  _atom_site_fract_y
  _atom_site_fract_z
  _atom_site_occupancy
  P   P1        1.0  0.65100  0.34900  0.04790  1.0000
  P   P2        1.0  0.84900  0.15100  0.45200  1.0000
  P   P3        1.0  0.15100  0.84900  0.54800  1.0000
  P   P4        1.0  0.34900  0.65100  0.95200  1.0000
  Ti  Ti1       1.0  0.25000  0.05310  0.25000  1.0000
  Ti  Ti2       1.0  0.94700  0.44700  0.25000  1.0000
  Ti  Ti3       1.0  0.55300  0.75000  0.25000  1.0000
  Ti  Ti4       1.0  0.44700  0.25000  0.75000  1.0000
  Ti  Ti5       1.0  0.05310  0.55300  0.75000  1.0000
  Ti  Ti6       1.0  0.75000  0.94700  0.75000  1.0000
