data_image0
_chemical_formula_structural       Fe4Na6
_chemical_formula_sum              "Fe4 Na6"
_cell_length_a       6.18021
_cell_length_b       6.18021
_cell_length_c       7.67231
_cell_angle_alpha    113.751
_cell_angle_beta     66.2491
_cell_angle_gamma    120

_space_group_name_H-M_alt    "P 1"
_space_group_IT_number       1

loop_
  _space_group_symop_operation_xyz
  'x, y, z'

loop_
  _atom_site_type_symbol
  _atom_site_label
  _atom_site_symmetry_multiplicity
  _atom_site_fract_x
  _atom_site_fract_y
  _atom_site_fract_z
  _atom_site_occupancy
  Fe  Fe1       1.0  0.30100  0.69900  0.09730  1.0000
  Fe  Fe2       1.0  0.19900  0.80100  0.40300  1.0000
  Fe  Fe3       1.0  0.80100  0.19900  0.59700  1.0000
  Fe  Fe4       1.0  0.69900  0.30100  0.90300  1.0000
  Na  Na1       1.0  0.76400  0.26400  0.25000  1.0000
  Na  Na2       1.0  0.73600  0.75000  0.25000  1.0000
  Na  Na3       1.0  0.25000  0.23600  0.25000  1.0000
  Na  Na4       1.0  0.75000  0.76400  0.75000  1.0000
  Na  Na5       1.0  0.26400  0.25000  0.75000  1.0000
  Na  Na6       1.0  0.23600  0.73600  0.75000  1.0000
