data_image0
_chemical_formula_structural       H4Ti6
_chemical_formula_sum              "H4 Ti6"
_cell_length_a       5.13935
_cell_length_b       5.13935
_cell_length_c       5.56961
_cell_angle_alpha    117.476
_cell_angle_beta     62.5242
_cell_angle_gamma    120

_space_group_name_H-M_alt    "P 1"
_space_group_IT_number       1

loop_
  _space_group_symop_operation_xyz
  'x, y, z'

loop_
  _atom_site_type_symbol
  _atom_site_label
  _atom_site_symmetry_multiplicity
  _atom_site_fract_x
  _atom_site_fract_y
  _atom_site_fract_z
  _atom_site_occupancy
  H   H1        1.0  0.33200  0.66800  0.00300  1.0000
  H   H2        1.0  0.16800  0.83200  0.49700  1.0000
  H   H3        1.0  0.83200  0.16800  0.50300  1.0000
  H   H4        1.0  0.66800  0.33200  0.99700  1.0000
  Ti  Ti1       1.0  0.90700  0.40700  0.25000  1.0000
  Ti  Ti2       1.0  0.59300  0.75000  0.25000  1.0000
  Ti  Ti3       1.0  0.25000  0.09270  0.25000  1.0000
  Ti  Ti4       1.0  0.75000  0.90700  0.75000  1.0000
  Ti  Ti5       1.0  0.40700  0.25000  0.75000  1.0000
  Ti  Ti6       1.0  0.09270  0.59300  0.75000  1.0000
