data_image0
_chemical_formula_structural       Ni4Te6
_chemical_formula_sum              "Ni4 Te6"
_cell_length_a       6.62742
_cell_length_b       6.62742
_cell_length_c       6.88397
_cell_angle_alpha    118.775
_cell_angle_beta     61.2254
_cell_angle_gamma    120

_space_group_name_H-M_alt    "P 1"
_space_group_IT_number       1

loop_
  _space_group_symop_operation_xyz
  'x, y, z'

loop_
  _atom_site_type_symbol
  _atom_site_label
  _atom_site_symmetry_multiplicity
  _atom_site_fract_x
  _atom_site_fract_y
  _atom_site_fract_z
  _atom_site_occupancy
  Ni  Ni1       1.0  0.65000  0.35000  0.04920  1.0000
  Ni  Ni2       1.0  0.85000  0.15000  0.45100  1.0000
  Ni  Ni3       1.0  0.15000  0.85000  0.54900  1.0000
  Ni  Ni4       1.0  0.35000  0.65000  0.95100  1.0000
  Te  Te1       1.0  0.55500  0.75000  0.25000  1.0000
  Te  Te2       1.0  0.94500  0.44500  0.25000  1.0000
  Te  Te3       1.0  0.25000  0.05460  0.25000  1.0000
  Te  Te4       1.0  0.75000  0.94500  0.75000  1.0000
  Te  Te5       1.0  0.05460  0.55500  0.75000  1.0000
  Te  Te6       1.0  0.44500  0.25000  0.75000  1.0000
