data_image0
_chemical_formula_structural       K4Ti6
_chemical_formula_sum              "K4 Ti6"
_cell_length_a       7.92348
_cell_length_b       7.92348
_cell_length_c       7.84136
_cell_angle_alpha    120.347
_cell_angle_beta     59.653
_cell_angle_gamma    120

_space_group_name_H-M_alt    "P 1"
_space_group_IT_number       1

loop_
  _space_group_symop_operation_xyz
  'x, y, z'

loop_
  _atom_site_type_symbol
  _atom_site_label
  _atom_site_symmetry_multiplicity
  _atom_site_fract_x
  _atom_site_fract_y
  _atom_site_fract_z
  _atom_site_occupancy
  K   K1        1.0  0.91900  0.08130  0.24400  1.0000
  K   K2        1.0  0.58100  0.41900  0.25600  1.0000
  K   K3        1.0  0.41900  0.58100  0.74400  1.0000
  K   K4        1.0  0.08130  0.91900  0.75600  1.0000
  Ti  Ti1       1.0  0.07490  0.57500  0.25000  1.0000
  Ti  Ti2       1.0  0.42500  0.75000  0.25000  1.0000
  Ti  Ti3       1.0  0.25000  0.92500  0.25000  1.0000
  Ti  Ti4       1.0  0.75000  0.07490  0.75000  1.0000
  Ti  Ti5       1.0  0.57500  0.25000  0.75000  1.0000
  Ti  Ti6       1.0  0.92500  0.42500  0.75000  1.0000
