data_image0
_chemical_formula_structural       Ni4Rh6
_chemical_formula_sum              "Ni4 Rh6"
_cell_length_a       6.32901
_cell_length_b       6.32901
_cell_length_c       5.43772
_cell_angle_alpha    125.588
_cell_angle_beta     54.4119
_cell_angle_gamma    120

_space_group_name_H-M_alt    "P 1"
_space_group_IT_number       1

loop_
  _space_group_symop_operation_xyz
  'x, y, z'

loop_
  _atom_site_type_symbol
  _atom_site_label
  _atom_site_symmetry_multiplicity
  _atom_site_fract_x
  _atom_site_fract_y
  _atom_site_fract_z
  _atom_site_occupancy
  Ni  Ni1       1.0  0.59200  0.40800  0.22300  1.0000
  Ni  Ni2       1.0  0.90800  0.09230  0.27700  1.0000
  Ni  Ni3       1.0  0.09230  0.90800  0.72300  1.0000
  Ni  Ni4       1.0  0.40800  0.59200  0.77700  1.0000
  Rh  Rh1       1.0  0.99800  0.49800  0.25000  1.0000
  Rh  Rh2       1.0  0.50200  0.75000  0.25000  1.0000
  Rh  Rh3       1.0  0.25000  0.00207  0.25000  1.0000
  Rh  Rh4       1.0  0.00207  0.50200  0.75000  1.0000
  Rh  Rh5       1.0  0.49800  0.25000  0.75000  1.0000
  Rh  Rh6       1.0  0.75000  0.99800  0.75000  1.0000
