data_image0
_chemical_formula_structural       Mg4Sn6
_chemical_formula_sum              "Mg4 Sn6"
_cell_length_a       8.27496
_cell_length_b       8.27496
_cell_length_c       6.43299
_cell_angle_alpha    130.028
_cell_angle_beta     49.9717
_cell_angle_gamma    120

_space_group_name_H-M_alt    "P 1"
_space_group_IT_number       1

loop_
  _space_group_symop_operation_xyz
  'x, y, z'

loop_
  _atom_site_type_symbol
  _atom_site_label
  _atom_site_symmetry_multiplicity
  _atom_site_fract_x
  _atom_site_fract_y
  _atom_site_fract_z
  _atom_site_occupancy
  Mg  Mg1       1.0  0.61900  0.38100  0.14200  1.0000
  Mg  Mg2       1.0  0.88100  0.11900  0.35800  1.0000
  Mg  Mg3       1.0  0.11900  0.88100  0.64200  1.0000
  Mg  Mg4       1.0  0.38100  0.61900  0.85800  1.0000
  Sn  Sn1       1.0  0.55600  0.75000  0.25000  1.0000
  Sn  Sn2       1.0  0.94400  0.44400  0.25000  1.0000
  Sn  Sn3       1.0  0.25000  0.05590  0.25000  1.0000
  Sn  Sn4       1.0  0.75000  0.94400  0.75000  1.0000
  Sn  Sn5       1.0  0.05590  0.55600  0.75000  1.0000
  Sn  Sn6       1.0  0.44400  0.25000  0.75000  1.0000
