data_image0
_chemical_formula_structural       Se4Ti6
_chemical_formula_sum              "Se4 Ti6"
_cell_length_a       6.52985
_cell_length_b       6.52985
_cell_length_c       6.20943
_cell_angle_alpha    121.722
_cell_angle_beta     58.2778
_cell_angle_gamma    120

_space_group_name_H-M_alt    "P 1"
_space_group_IT_number       1

loop_
  _space_group_symop_operation_xyz
  'x, y, z'

loop_
  _atom_site_type_symbol
  _atom_site_label
  _atom_site_symmetry_multiplicity
  _atom_site_fract_x
  _atom_site_fract_y
  _atom_site_fract_z
  _atom_site_occupancy
  Se  Se1       1.0  0.61200  0.38800  0.16400  1.0000
  Se  Se2       1.0  0.88800  0.11200  0.33600  1.0000
  Se  Se3       1.0  0.11200  0.88800  0.66400  1.0000
  Se  Se4       1.0  0.38800  0.61200  0.83600  1.0000
  Ti  Ti1       1.0  0.25000  0.99600  0.25000  1.0000
  Ti  Ti2       1.0  0.49600  0.75000  0.25000  1.0000
  Ti  Ti3       1.0  0.00449  0.50400  0.25000  1.0000
  Ti  Ti4       1.0  0.99600  0.49600  0.75000  1.0000
  Ti  Ti5       1.0  0.50400  0.25000  0.75000  1.0000
  Ti  Ti6       1.0  0.75000  0.00449  0.75000  1.0000
