data_image0
_chemical_formula_structural       Al4B6
_chemical_formula_sum              "Al4 B6"
_cell_length_a       6.09849
_cell_length_b       6.09849
_cell_length_c       5.05647
_cell_angle_alpha    127.088
_cell_angle_beta     52.9122
_cell_angle_gamma    120

_space_group_name_H-M_alt    "P 1"
_space_group_IT_number       1

loop_
  _space_group_symop_operation_xyz
  'x, y, z'

loop_
  _atom_site_type_symbol
  _atom_site_label
  _atom_site_symmetry_multiplicity
  _atom_site_fract_x
  _atom_site_fract_y
  _atom_site_fract_z
  _atom_site_occupancy
  Al  Al1       1.0  0.62700  0.37300  0.11900  1.0000
  Al  Al2       1.0  0.87300  0.12700  0.38100  1.0000
  Al  Al3       1.0  0.12700  0.87300  0.61900  1.0000
  Al  Al4       1.0  0.37300  0.62700  0.88100  1.0000
  B   B1        1.0  0.25000  0.05520  0.25000  1.0000
  B   B2        1.0  0.94500  0.44500  0.25000  1.0000
  B   B3        1.0  0.55500  0.75000  0.25000  1.0000
  B   B4        1.0  0.44500  0.25000  0.75000  1.0000
  B   B5        1.0  0.05520  0.55500  0.75000  1.0000
  B   B6        1.0  0.75000  0.94500  0.75000  1.0000
