data_image0
_chemical_formula_structural       Nb4Ni6
_chemical_formula_sum              "Nb4 Ni6"
_cell_length_a       6.23215
_cell_length_b       6.23215
_cell_length_c       5.77422
_cell_angle_alpha    122.66
_cell_angle_beta     57.34
_cell_angle_gamma    120

_space_group_name_H-M_alt    "P 1"
_space_group_IT_number       1

loop_
  _space_group_symop_operation_xyz
  'x, y, z'

loop_
  _atom_site_type_symbol
  _atom_site_label
  _atom_site_symmetry_multiplicity
  _atom_site_fract_x
  _atom_site_fract_y
  _atom_site_fract_z
  _atom_site_occupancy
  Nb  Nb1       1.0  0.59700  0.40300  0.20800  1.0000
  Nb  Nb2       1.0  0.90300  0.09740  0.29200  1.0000
  Nb  Nb3       1.0  0.09740  0.90300  0.70800  1.0000
  Nb  Nb4       1.0  0.40300  0.59700  0.79200  1.0000
  Ni  Ni1       1.0  0.01160  0.51200  0.25000  1.0000
  Ni  Ni2       1.0  0.25000  0.98800  0.25000  1.0000
  Ni  Ni3       1.0  0.48800  0.75000  0.25000  1.0000
  Ni  Ni4       1.0  0.51200  0.25000  0.75000  1.0000
  Ni  Ni5       1.0  0.75000  0.01160  0.75000  1.0000
  Ni  Ni6       1.0  0.98800  0.48800  0.75000  1.0000
