data_image0
_chemical_formula_structural       Ir4Mg6
_chemical_formula_sum              "Ir4 Mg6"
_cell_length_a       5.59983
_cell_length_b       5.59983
_cell_length_c       7.38241
_cell_angle_alpha    112.288
_cell_angle_beta     67.7116
_cell_angle_gamma    120

_space_group_name_H-M_alt    "P 1"
_space_group_IT_number       1

loop_
  _space_group_symop_operation_xyz
  'x, y, z'

loop_
  _atom_site_type_symbol
  _atom_site_label
  _atom_site_symmetry_multiplicity
  _atom_site_fract_x
  _atom_site_fract_y
  _atom_site_fract_z
  _atom_site_occupancy
  Ir  Ir1       1.0  0.31500  0.68500  0.05510  1.0000
  Ir  Ir2       1.0  0.18500  0.81500  0.44500  1.0000
  Ir  Ir3       1.0  0.81500  0.18500  0.55500  1.0000
  Ir  Ir4       1.0  0.68500  0.31500  0.94500  1.0000
  Mg  Mg1       1.0  0.25000  0.19000  0.25000  1.0000
  Mg  Mg2       1.0  0.81000  0.31000  0.25000  1.0000
  Mg  Mg3       1.0  0.69000  0.75000  0.25000  1.0000
  Mg  Mg4       1.0  0.31000  0.25000  0.75000  1.0000
  Mg  Mg5       1.0  0.19000  0.69000  0.75000  1.0000
  Mg  Mg6       1.0  0.75000  0.81000  0.75000  1.0000
