data_image0
_chemical_formula_structural       Eu4Ti6
_chemical_formula_sum              "Eu4 Ti6"
_cell_length_a       7.22757
_cell_length_b       7.22757
_cell_length_c       7.00165
_cell_angle_alpha    121.073
_cell_angle_beta     58.9268
_cell_angle_gamma    120

_space_group_name_H-M_alt    "P 1"
_space_group_IT_number       1

loop_
  _space_group_symop_operation_xyz
  'x, y, z'

loop_
  _atom_site_type_symbol
  _atom_site_label
  _atom_site_symmetry_multiplicity
  _atom_site_fract_x
  _atom_site_fract_y
  _atom_site_fract_z
  _atom_site_occupancy
  Eu  Eu1       1.0  0.58600  0.41400  0.24200  1.0000
  Eu  Eu2       1.0  0.91400  0.08610  0.25800  1.0000
  Eu  Eu3       1.0  0.08610  0.91400  0.74200  1.0000
  Eu  Eu4       1.0  0.41400  0.58600  0.75800  1.0000
  Ti  Ti1       1.0  0.04920  0.54900  0.25000  1.0000
  Ti  Ti2       1.0  0.45100  0.75000  0.25000  1.0000
  Ti  Ti3       1.0  0.25000  0.95100  0.25000  1.0000
  Ti  Ti4       1.0  0.75000  0.04920  0.75000  1.0000
  Ti  Ti5       1.0  0.54900  0.25000  0.75000  1.0000
  Ti  Ti6       1.0  0.95100  0.45100  0.75000  1.0000
