data_image0
_chemical_formula_structural       Mg4Pa6
_chemical_formula_sum              "Mg4 Pa6"
_cell_length_a       7.70958
_cell_length_b       7.70958
_cell_length_c       6.89902
_cell_angle_alpha    123.969
_cell_angle_beta     56.031
_cell_angle_gamma    120

_space_group_name_H-M_alt    "P 1"
_space_group_IT_number       1

loop_
  _space_group_symop_operation_xyz
  'x, y, z'

loop_
  _atom_site_type_symbol
  _atom_site_label
  _atom_site_symmetry_multiplicity
  _atom_site_fract_x
  _atom_site_fract_y
  _atom_site_fract_z
  _atom_site_occupancy
  Mg  Mg1       1.0  0.91700  0.08320  0.24900  1.0000
  Mg  Mg2       1.0  0.58300  0.41700  0.25100  1.0000
  Mg  Mg3       1.0  0.41700  0.58300  0.74900  1.0000
  Mg  Mg4       1.0  0.08320  0.91700  0.75100  1.0000
  Pa  Pa1       1.0  0.25000  0.96000  0.25000  1.0000
  Pa  Pa2       1.0  0.46000  0.75000  0.25000  1.0000
  Pa  Pa3       1.0  0.04040  0.54000  0.25000  1.0000
  Pa  Pa4       1.0  0.96000  0.46000  0.75000  1.0000
  Pa  Pa5       1.0  0.54000  0.25000  0.75000  1.0000
  Pa  Pa6       1.0  0.75000  0.04040  0.75000  1.0000
