data_image0
_chemical_formula_structural       In11Ni6Pr5
_chemical_formula_sum              "In11 Ni6 Pr5"
_cell_length_a       4.43129
_cell_length_b       10.4185
_cell_length_c       10.4185
_cell_angle_alpha    89.9209
_cell_angle_beta     90
_cell_angle_gamma    90

_space_group_name_H-M_alt    "P 1"
_space_group_IT_number       1

loop_
  _space_group_symop_operation_xyz
  'x, y, z'

loop_
  _atom_site_type_symbol
  _atom_site_label
  _atom_site_symmetry_multiplicity
  _atom_site_fract_x
  _atom_site_fract_y
  _atom_site_fract_z
  _atom_site_occupancy
  In  In1       1.0  0.00000  0.00000  0.00000  1.0000
  In  In2       1.0  0.50000  0.46400  0.15200  1.0000
  In  In3       1.0  0.50000  0.16000  0.16000  1.0000
  In  In4       1.0  0.50000  0.72500  0.27500  1.0000
  In  In5       1.0  0.00000  0.30500  0.30500  1.0000
  In  In6       1.0  0.50000  0.15200  0.46400  1.0000
  In  In7       1.0  0.50000  0.84800  0.53600  1.0000
  In  In8       1.0  0.00000  0.69500  0.69500  1.0000
  In  In9       1.0  0.50000  0.27500  0.72500  1.0000
  In  In10      1.0  0.50000  0.84000  0.84000  1.0000
  In  In11      1.0  0.50000  0.53600  0.84800  1.0000
  Ni  Ni1       1.0  0.50000  0.90700  0.09350  1.0000
  Ni  Ni2       1.0  0.00000  0.55500  0.27900  1.0000
  Ni  Ni3       1.0  0.00000  0.72100  0.44500  1.0000
  Ni  Ni4       1.0  0.00000  0.27900  0.55500  1.0000
  Ni  Ni5       1.0  0.00000  0.44500  0.72100  1.0000
  Ni  Ni6       1.0  0.50000  0.09350  0.90700  1.0000
  Pr  Pr1       1.0  0.00000  0.69000  0.03590  1.0000
  Pr  Pr2       1.0  0.00000  0.96400  0.31000  1.0000
  Pr  Pr3       1.0  0.50000  0.50000  0.50000  1.0000
  Pr  Pr4       1.0  0.00000  0.03590  0.69000  1.0000
  Pr  Pr5       1.0  0.00000  0.31000  0.96400  1.0000
