data_image0
_chemical_formula_structural       Ni4P6
_chemical_formula_sum              "Ni4 P6"
_cell_length_a       5.95614
_cell_length_b       5.95614
_cell_length_c       5.60769
_cell_angle_alpha    122.078
_cell_angle_beta     57.9223
_cell_angle_gamma    120

_space_group_name_H-M_alt    "P 1"
_space_group_IT_number       1

loop_
  _space_group_symop_operation_xyz
  'x, y, z'

loop_
  _atom_site_type_symbol
  _atom_site_label
  _atom_site_symmetry_multiplicity
  _atom_site_fract_x
  _atom_site_fract_y
  _atom_site_fract_z
  _atom_site_occupancy
  Ni  Ni1       1.0  0.65400  0.34600  0.03740  1.0000
  Ni  Ni2       1.0  0.84600  0.15400  0.46300  1.0000
  Ni  Ni3       1.0  0.15400  0.84600  0.53700  1.0000
  Ni  Ni4       1.0  0.34600  0.65400  0.96300  1.0000
  P   P1        1.0  0.25000  0.07620  0.25000  1.0000
  P   P2        1.0  0.92400  0.42400  0.25000  1.0000
  P   P3        1.0  0.57600  0.75000  0.25000  1.0000
  P   P4        1.0  0.42400  0.25000  0.75000  1.0000
  P   P5        1.0  0.07620  0.57600  0.75000  1.0000
  P   P6        1.0  0.75000  0.92400  0.75000  1.0000
