data_image0
_chemical_formula_structural       Ti4W6
_chemical_formula_sum              "Ti4 W6"
_cell_length_a       7.88107
_cell_length_b       7.88107
_cell_length_c       5.36569
_cell_angle_alpha    137.256
_cell_angle_beta     42.744
_cell_angle_gamma    120

_space_group_name_H-M_alt    "P 1"
_space_group_IT_number       1

loop_
  _space_group_symop_operation_xyz
  'x, y, z'

loop_
  _atom_site_type_symbol
  _atom_site_label
  _atom_site_symmetry_multiplicity
  _atom_site_fract_x
  _atom_site_fract_y
  _atom_site_fract_z
  _atom_site_occupancy
  Ti  Ti1       1.0  0.62600  0.37400  0.12200  1.0000
  Ti  Ti2       1.0  0.87400  0.12600  0.37800  1.0000
  Ti  Ti3       1.0  0.12600  0.87400  0.62200  1.0000
  Ti  Ti4       1.0  0.37400  0.62600  0.87800  1.0000
  W   W1        1.0  0.25000  0.07820  0.25000  1.0000
  W   W2        1.0  0.57800  0.75000  0.25000  1.0000
  W   W3        1.0  0.92200  0.42200  0.25000  1.0000
  W   W4        1.0  0.07820  0.57800  0.75000  1.0000
  W   W5        1.0  0.42200  0.25000  0.75000  1.0000
  W   W6        1.0  0.75000  0.92200  0.75000  1.0000
