data_image0
_chemical_formula_structural       Ni4Se6
_chemical_formula_sum              "Ni4 Se6"
_cell_length_a       6.16143
_cell_length_b       6.16143
_cell_length_c       6.43441
_cell_angle_alpha    118.606
_cell_angle_beta     61.3937
_cell_angle_gamma    120

_space_group_name_H-M_alt    "P 1"
_space_group_IT_number       1

loop_
  _space_group_symop_operation_xyz
  'x, y, z'

loop_
  _atom_site_type_symbol
  _atom_site_label
  _atom_site_symmetry_multiplicity
  _atom_site_fract_x
  _atom_site_fract_y
  _atom_site_fract_z
  _atom_site_occupancy
  Ni  Ni1       1.0  0.65100  0.34900  0.04720  1.0000
  Ni  Ni2       1.0  0.84900  0.15100  0.45300  1.0000
  Ni  Ni3       1.0  0.15100  0.84900  0.54700  1.0000
  Ni  Ni4       1.0  0.34900  0.65100  0.95300  1.0000
  Se  Se1       1.0  0.55400  0.75000  0.25000  1.0000
  Se  Se2       1.0  0.94600  0.44600  0.25000  1.0000
  Se  Se3       1.0  0.25000  0.05410  0.25000  1.0000
  Se  Se4       1.0  0.75000  0.94600  0.75000  1.0000
  Se  Se5       1.0  0.05410  0.55400  0.75000  1.0000
  Se  Se6       1.0  0.44600  0.25000  0.75000  1.0000
