data_image0
_chemical_formula_structural       Ga4Ni6
_chemical_formula_sum              "Ga4 Ni6"
_cell_length_a       6.25856
_cell_length_b       6.25855
_cell_length_c       5.39486
_cell_angle_alpha    125.454
_cell_angle_beta     54.5461
_cell_angle_gamma    120

_space_group_name_H-M_alt    "P 1"
_space_group_IT_number       1

loop_
  _space_group_symop_operation_xyz
  'x, y, z'

loop_
  _atom_site_type_symbol
  _atom_site_label
  _atom_site_symmetry_multiplicity
  _atom_site_fract_x
  _atom_site_fract_y
  _atom_site_fract_z
  _atom_site_occupancy
  Ga  Ga1       1.0  0.60300  0.39700  0.19000  1.0000
  Ga  Ga2       1.0  0.89700  0.10300  0.31000  1.0000
  Ga  Ga3       1.0  0.10300  0.89700  0.69000  1.0000
  Ga  Ga4       1.0  0.39700  0.60300  0.81000  1.0000
  Ni  Ni1       1.0  0.99300  0.49300  0.25000  1.0000
  Ni  Ni2       1.0  0.25000  0.00722  0.25000  1.0000
  Ni  Ni3       1.0  0.50700  0.75000  0.25000  1.0000
  Ni  Ni4       1.0  0.49300  0.25000  0.75000  1.0000
  Ni  Ni5       1.0  0.75000  0.99300  0.75000  1.0000
  Ni  Ni6       1.0  0.00722  0.50700  0.75000  1.0000
