data_image0
_chemical_formula_structural       Ni4Rb6
_chemical_formula_sum              "Ni4 Rb6"
_cell_length_a       8.69056
_cell_length_b       8.69056
_cell_length_c       9.31687
_cell_angle_alpha    117.8
_cell_angle_beta     62.1999
_cell_angle_gamma    120

_space_group_name_H-M_alt    "P 1"
_space_group_IT_number       1

loop_
  _space_group_symop_operation_xyz
  'x, y, z'

loop_
  _atom_site_type_symbol
  _atom_site_label
  _atom_site_symmetry_multiplicity
  _atom_site_fract_x
  _atom_site_fract_y
  _atom_site_fract_z
  _atom_site_occupancy
  Ni  Ni1       1.0  0.65000  0.35000  0.05080  1.0000
  Ni  Ni2       1.0  0.85000  0.15000  0.44900  1.0000
  Ni  Ni3       1.0  0.15000  0.85000  0.55100  1.0000
  Ni  Ni4       1.0  0.35000  0.65000  0.94900  1.0000
  Rb  Rb1       1.0  0.25000  0.05260  0.25000  1.0000
  Rb  Rb2       1.0  0.94700  0.44700  0.25000  1.0000
  Rb  Rb3       1.0  0.55300  0.75000  0.25000  1.0000
  Rb  Rb4       1.0  0.44700  0.25000  0.75000  1.0000
  Rb  Rb5       1.0  0.05260  0.55300  0.75000  1.0000
  Rb  Rb6       1.0  0.75000  0.94700  0.75000  1.0000
