data_image0
_chemical_formula_structural       Mg4Nd6
_chemical_formula_sum              "Mg4 Nd6"
_cell_length_a       8.03317
_cell_length_b       8.03317
_cell_length_c       8.40095
_cell_angle_alpha    118.562
_cell_angle_beta     61.4379
_cell_angle_gamma    120

_space_group_name_H-M_alt    "P 1"
_space_group_IT_number       1

loop_
  _space_group_symop_operation_xyz
  'x, y, z'

loop_
  _atom_site_type_symbol
  _atom_site_label
  _atom_site_symmetry_multiplicity
  _atom_site_fract_x
  _atom_site_fract_y
  _atom_site_fract_z
  _atom_site_occupancy
  Mg  Mg1       1.0  0.65100  0.34900  0.04570  1.0000
  Mg  Mg2       1.0  0.84900  0.15100  0.45400  1.0000
  Mg  Mg3       1.0  0.15100  0.84900  0.54600  1.0000
  Mg  Mg4       1.0  0.34900  0.65100  0.95400  1.0000
  Nd  Nd1       1.0  0.55000  0.75000  0.25000  1.0000
  Nd  Nd2       1.0  0.95000  0.45000  0.25000  1.0000
  Nd  Nd3       1.0  0.25000  0.04980  0.25000  1.0000
  Nd  Nd4       1.0  0.75000  0.95000  0.75000  1.0000
  Nd  Nd5       1.0  0.04980  0.55000  0.75000  1.0000
  Nd  Nd6       1.0  0.45000  0.25000  0.75000  1.0000
