data_image0
_chemical_formula_structural       Mg4Pm6
_chemical_formula_sum              "Mg4 Pm6"
_cell_length_a       7.96104
_cell_length_b       7.96104
_cell_length_c       8.35131
_cell_angle_alpha    118.466
_cell_angle_beta     61.5342
_cell_angle_gamma    120

_space_group_name_H-M_alt    "P 1"
_space_group_IT_number       1

loop_
  _space_group_symop_operation_xyz
  'x, y, z'

loop_
  _atom_site_type_symbol
  _atom_site_label
  _atom_site_symmetry_multiplicity
  _atom_site_fract_x
  _atom_site_fract_y
  _atom_site_fract_z
  _atom_site_occupancy
  Mg  Mg1       1.0  0.65200  0.34800  0.04530  1.0000
  Mg  Mg2       1.0  0.84800  0.15200  0.45500  1.0000
  Mg  Mg3       1.0  0.15200  0.84800  0.54500  1.0000
  Mg  Mg4       1.0  0.34800  0.65200  0.95500  1.0000
  Pm  Pm1       1.0  0.95000  0.45000  0.25000  1.0000
  Pm  Pm2       1.0  0.25000  0.04990  0.25000  1.0000
  Pm  Pm3       1.0  0.55000  0.75000  0.25000  1.0000
  Pm  Pm4       1.0  0.45000  0.25000  0.75000  1.0000
  Pm  Pm5       1.0  0.75000  0.95000  0.75000  1.0000
  Pm  Pm6       1.0  0.04990  0.55000  0.75000  1.0000
