data_image0
_chemical_formula_structural       Ce4Ni6
_chemical_formula_sum              "Ce4 Ni6"
_cell_length_a       6.67759
_cell_length_b       6.67759
_cell_length_c       7.07782
_cell_angle_alpha    118.146
_cell_angle_beta     61.8536
_cell_angle_gamma    120

_space_group_name_H-M_alt    "P 1"
_space_group_IT_number       1

loop_
  _space_group_symop_operation_xyz
  'x, y, z'

loop_
  _atom_site_type_symbol
  _atom_site_label
  _atom_site_symmetry_multiplicity
  _atom_site_fract_x
  _atom_site_fract_y
  _atom_site_fract_z
  _atom_site_occupancy
  Ce  Ce1       1.0  0.60500  0.39500  0.18500  1.0000
  Ce  Ce2       1.0  0.89500  0.10500  0.31500  1.0000
  Ce  Ce3       1.0  0.10500  0.89500  0.68500  1.0000
  Ce  Ce4       1.0  0.39500  0.60500  0.81500  1.0000
  Ni  Ni1       1.0  0.04580  0.54600  0.25000  1.0000
  Ni  Ni2       1.0  0.45400  0.75000  0.25000  1.0000
  Ni  Ni3       1.0  0.25000  0.95400  0.25000  1.0000
  Ni  Ni4       1.0  0.75000  0.04580  0.75000  1.0000
  Ni  Ni5       1.0  0.54600  0.25000  0.75000  1.0000
  Ni  Ni6       1.0  0.95400  0.45400  0.75000  1.0000
