data_image0
_chemical_formula_structural       Al8Lu12
_chemical_formula_sum              "Al8 Lu12"
_cell_length_a       8.04631
_cell_length_b       8.04631
_cell_length_c       7.4503
_cell_angle_alpha    90
_cell_angle_beta     90
_cell_angle_gamma    90

_space_group_name_H-M_alt    "P 1"
_space_group_IT_number       1

loop_
  _space_group_symop_operation_xyz
  'x, y, z'

loop_
  _atom_site_type_symbol
  _atom_site_label
  _atom_site_symmetry_multiplicity
  _atom_site_fract_x
  _atom_site_fract_y
  _atom_site_fract_z
  _atom_site_occupancy
  Al  Al1       1.0  0.12000  0.12000  0.19600  1.0000
  Al  Al2       1.0  0.88000  0.88000  0.19600  1.0000
  Al  Al3       1.0  0.62000  0.38000  0.30400  1.0000
  Al  Al4       1.0  0.38000  0.62000  0.30400  1.0000
  Al  Al5       1.0  0.62000  0.38000  0.69600  1.0000
  Al  Al6       1.0  0.38000  0.62000  0.69600  1.0000
  Al  Al7       1.0  0.12000  0.12000  0.80400  1.0000
  Al  Al8       1.0  0.88000  0.88000  0.80400  1.0000
  Lu  Lu1       1.0  0.79600  0.20400  0.00000  1.0000
  Lu  Lu2       1.0  0.35100  0.35100  0.00000  1.0000
  Lu  Lu3       1.0  0.64900  0.64900  0.00000  1.0000
  Lu  Lu4       1.0  0.20400  0.79600  0.00000  1.0000
  Lu  Lu5       1.0  0.50000  0.00000  0.25000  1.0000
  Lu  Lu6       1.0  0.00000  0.50000  0.25000  1.0000
  Lu  Lu7       1.0  0.85100  0.14900  0.50000  1.0000
  Lu  Lu8       1.0  0.29600  0.29600  0.50000  1.0000
  Lu  Lu9       1.0  0.70400  0.70400  0.50000  1.0000
  Lu  Lu10      1.0  0.14900  0.85100  0.50000  1.0000
  Lu  Lu11      1.0  0.50000  0.00000  0.75000  1.0000
  Lu  Lu12      1.0  0.00000  0.50000  0.75000  1.0000
