data_image0
_chemical_formula_structural       Al4C6
_chemical_formula_sum              "Al4 C6"
_cell_length_a       5.57865
_cell_length_b       5.57866
_cell_length_c       5.07945
_cell_angle_alpha    123.308
_cell_angle_beta     56.692
_cell_angle_gamma    120

_space_group_name_H-M_alt    "P 1"
_space_group_IT_number       1

loop_
  _space_group_symop_operation_xyz
  'x, y, z'

loop_
  _atom_site_type_symbol
  _atom_site_label
  _atom_site_symmetry_multiplicity
  _atom_site_fract_x
  _atom_site_fract_y
  _atom_site_fract_z
  _atom_site_occupancy
  Al  Al1       1.0  0.63900  0.36100  0.08280  1.0000
  Al  Al2       1.0  0.86100  0.13900  0.41700  1.0000
  Al  Al3       1.0  0.13900  0.86100  0.58300  1.0000
  Al  Al4       1.0  0.36100  0.63900  0.91700  1.0000
  C   C1        1.0  0.56500  0.75000  0.25000  1.0000
  C   C2        1.0  0.93500  0.43500  0.25000  1.0000
  C   C3        1.0  0.25000  0.06520  0.25000  1.0000
  C   C4        1.0  0.75000  0.93500  0.75000  1.0000
  C   C5        1.0  0.06520  0.56500  0.75000  1.0000
  C   C6        1.0  0.43500  0.25000  0.75000  1.0000
