data_image0
_chemical_formula_structural       Mo4Ni6
_chemical_formula_sum              "Mo4 Ni6"
_cell_length_a       6.1561
_cell_length_b       6.1561
_cell_length_c       5.60817
_cell_angle_alpha    123.288
_cell_angle_beta     56.7118
_cell_angle_gamma    120

_space_group_name_H-M_alt    "P 1"
_space_group_IT_number       1

loop_
  _space_group_symop_operation_xyz
  'x, y, z'

loop_
  _atom_site_type_symbol
  _atom_site_label
  _atom_site_symmetry_multiplicity
  _atom_site_fract_x
  _atom_site_fract_y
  _atom_site_fract_z
  _atom_site_occupancy
  Mo  Mo1       1.0  0.59300  0.40700  0.22200  1.0000
  Mo  Mo2       1.0  0.90700  0.09270  0.27800  1.0000
  Mo  Mo3       1.0  0.09270  0.90700  0.72200  1.0000
  Mo  Mo4       1.0  0.40700  0.59300  0.77800  1.0000
  Ni  Ni1       1.0  0.25000  0.99200  0.25000  1.0000
  Ni  Ni2       1.0  0.49200  0.75000  0.25000  1.0000
  Ni  Ni3       1.0  0.00835  0.50800  0.25000  1.0000
  Ni  Ni4       1.0  0.99200  0.49200  0.75000  1.0000
  Ni  Ni5       1.0  0.50800  0.25000  0.75000  1.0000
  Ni  Ni6       1.0  0.75000  0.00835  0.75000  1.0000
