data_image0
_chemical_formula_structural       Mg4Os6
_chemical_formula_sum              "Mg4 Os6"
_cell_length_a       6.55885
_cell_length_b       6.55885
_cell_length_c       5.80649
_cell_angle_alpha    124.387
_cell_angle_beta     55.6126
_cell_angle_gamma    120

_space_group_name_H-M_alt    "P 1"
_space_group_IT_number       1

loop_
  _space_group_symop_operation_xyz
  'x, y, z'

loop_
  _atom_site_type_symbol
  _atom_site_label
  _atom_site_symmetry_multiplicity
  _atom_site_fract_x
  _atom_site_fract_y
  _atom_site_fract_z
  _atom_site_occupancy
  Mg  Mg1       1.0  0.59000  0.41000  0.23100  1.0000
  Mg  Mg2       1.0  0.91000  0.08970  0.26900  1.0000
  Mg  Mg3       1.0  0.08970  0.91000  0.73100  1.0000
  Mg  Mg4       1.0  0.41000  0.59000  0.76900  1.0000
  Os  Os1       1.0  0.01860  0.51900  0.25000  1.0000
  Os  Os2       1.0  0.25000  0.98100  0.25000  1.0000
  Os  Os3       1.0  0.48100  0.75000  0.25000  1.0000
  Os  Os4       1.0  0.51900  0.25000  0.75000  1.0000
  Os  Os5       1.0  0.75000  0.01860  0.75000  1.0000
  Os  Os6       1.0  0.98100  0.48100  0.75000  1.0000
