data_image0
_chemical_formula_structural       K4Ni6
_chemical_formula_sum              "K4 Ni6"
_cell_length_a       7.36819
_cell_length_b       7.36819
_cell_length_c       7.35434
_cell_angle_alpha    120.062
_cell_angle_beta     59.9377
_cell_angle_gamma    120

_space_group_name_H-M_alt    "P 1"
_space_group_IT_number       1

loop_
  _space_group_symop_operation_xyz
  'x, y, z'

loop_
  _atom_site_type_symbol
  _atom_site_label
  _atom_site_symmetry_multiplicity
  _atom_site_fract_x
  _atom_site_fract_y
  _atom_site_fract_z
  _atom_site_occupancy
  K   K1        1.0  0.59100  0.40900  0.22700  1.0000
  K   K2        1.0  0.90900  0.09090  0.27300  1.0000
  K   K3        1.0  0.09090  0.90900  0.72700  1.0000
  K   K4        1.0  0.40900  0.59100  0.77300  1.0000
  Ni  Ni1       1.0  0.25000  0.92800  0.25000  1.0000
  Ni  Ni2       1.0  0.42800  0.75000  0.25000  1.0000
  Ni  Ni3       1.0  0.07230  0.57200  0.25000  1.0000
  Ni  Ni4       1.0  0.92800  0.42800  0.75000  1.0000
  Ni  Ni5       1.0  0.57200  0.25000  0.75000  1.0000
  Ni  Ni6       1.0  0.75000  0.07230  0.75000  1.0000
