data_image0
_chemical_formula_structural       Fe4Sr6
_chemical_formula_sum              "Fe4 Sr6"
_cell_length_a       7.61285
_cell_length_b       7.61285
_cell_length_c       8.12654
_cell_angle_alpha    117.93
_cell_angle_beta     62.0699
_cell_angle_gamma    120

_space_group_name_H-M_alt    "P 1"
_space_group_IT_number       1

loop_
  _space_group_symop_operation_xyz
  'x, y, z'

loop_
  _atom_site_type_symbol
  _atom_site_label
  _atom_site_symmetry_multiplicity
  _atom_site_fract_x
  _atom_site_fract_y
  _atom_site_fract_z
  _atom_site_occupancy
  Fe  Fe1       1.0  0.30100  0.69900  0.09760  1.0000
  Fe  Fe2       1.0  0.19900  0.80100  0.40200  1.0000
  Fe  Fe3       1.0  0.80100  0.19900  0.59800  1.0000
  Fe  Fe4       1.0  0.69900  0.30100  0.90200  1.0000
  Sr  Sr1       1.0  0.63900  0.75000  0.25000  1.0000
  Sr  Sr2       1.0  0.86100  0.36100  0.25000  1.0000
  Sr  Sr3       1.0  0.25000  0.13900  0.25000  1.0000
  Sr  Sr4       1.0  0.75000  0.86100  0.75000  1.0000
  Sr  Sr5       1.0  0.13900  0.63900  0.75000  1.0000
  Sr  Sr6       1.0  0.36100  0.25000  0.75000  1.0000
