data_image0
_chemical_formula_structural       Mg4Th6
_chemical_formula_sum              "Mg4 Th6"
_cell_length_a       6.6619
_cell_length_b       6.6619
_cell_length_c       8.98553
_cell_angle_alpha    111.759
_cell_angle_beta     68.2411
_cell_angle_gamma    120

_space_group_name_H-M_alt    "P 1"
_space_group_IT_number       1

loop_
  _space_group_symop_operation_xyz
  'x, y, z'

loop_
  _atom_site_type_symbol
  _atom_site_label
  _atom_site_symmetry_multiplicity
  _atom_site_fract_x
  _atom_site_fract_y
  _atom_site_fract_z
  _atom_site_occupancy
  Mg  Mg1       1.0  0.30700  0.69300  0.08050  1.0000
  Mg  Mg2       1.0  0.19300  0.80700  0.42000  1.0000
  Mg  Mg3       1.0  0.80700  0.19300  0.58000  1.0000
  Mg  Mg4       1.0  0.69300  0.30700  0.92000  1.0000
  Th  Th1       1.0  0.25000  0.23900  0.25000  1.0000
  Th  Th2       1.0  0.76100  0.26100  0.25000  1.0000
  Th  Th3       1.0  0.73900  0.75000  0.25000  1.0000
  Th  Th4       1.0  0.26100  0.25000  0.75000  1.0000
  Th  Th5       1.0  0.23900  0.73900  0.75000  1.0000
  Th  Th6       1.0  0.75000  0.76100  0.75000  1.0000
