data_image0
_chemical_formula_structural       Mg4Ru6
_chemical_formula_sum              "Mg4 Ru6"
_cell_length_a       6.52035
_cell_length_b       6.52035
_cell_length_c       5.87507
_cell_angle_alpha    123.705
_cell_angle_beta     56.295
_cell_angle_gamma    120

_space_group_name_H-M_alt    "P 1"
_space_group_IT_number       1

loop_
  _space_group_symop_operation_xyz
  'x, y, z'

loop_
  _atom_site_type_symbol
  _atom_site_label
  _atom_site_symmetry_multiplicity
  _atom_site_fract_x
  _atom_site_fract_y
  _atom_site_fract_z
  _atom_site_occupancy
  Mg  Mg1       1.0  0.59200  0.40800  0.22500  1.0000
  Mg  Mg2       1.0  0.90800  0.09180  0.27500  1.0000
  Mg  Mg3       1.0  0.09180  0.90800  0.72500  1.0000
  Mg  Mg4       1.0  0.40800  0.59200  0.77500  1.0000
  Ru  Ru1       1.0  0.25000  0.98100  0.25000  1.0000
  Ru  Ru2       1.0  0.48100  0.75000  0.25000  1.0000
  Ru  Ru3       1.0  0.01930  0.51900  0.25000  1.0000
  Ru  Ru4       1.0  0.98100  0.48100  0.75000  1.0000
  Ru  Ru5       1.0  0.51900  0.25000  0.75000  1.0000
  Ru  Ru6       1.0  0.75000  0.01930  0.75000  1.0000
