data_image0
_chemical_formula_structural       La4Mg6
_chemical_formula_sum              "La4 Mg6"
_cell_length_a       8.02681
_cell_length_b       8.02681
_cell_length_c       7.3804
_cell_angle_alpha    122.942
_cell_angle_beta     57.0578
_cell_angle_gamma    120

_space_group_name_H-M_alt    "P 1"
_space_group_IT_number       1

loop_
  _space_group_symop_operation_xyz
  'x, y, z'

loop_
  _atom_site_type_symbol
  _atom_site_label
  _atom_site_symmetry_multiplicity
  _atom_site_fract_x
  _atom_site_fract_y
  _atom_site_fract_z
  _atom_site_occupancy
  La  La1       1.0  0.59200  0.40800  0.22500  1.0000
  La  La2       1.0  0.90800  0.09180  0.27500  1.0000
  La  La3       1.0  0.09180  0.90800  0.72500  1.0000
  La  La4       1.0  0.40800  0.59200  0.77500  1.0000
  Mg  Mg1       1.0  0.25000  0.97300  0.25000  1.0000
  Mg  Mg2       1.0  0.47300  0.75000  0.25000  1.0000
  Mg  Mg3       1.0  0.02680  0.52700  0.25000  1.0000
  Mg  Mg4       1.0  0.97300  0.47300  0.75000  1.0000
  Mg  Mg5       1.0  0.52700  0.25000  0.75000  1.0000
  Mg  Mg6       1.0  0.75000  0.02680  0.75000  1.0000
