data_image0
_chemical_formula_structural       Al4Np6
_chemical_formula_sum              "Al4 Np6"
_cell_length_a       7.22042
_cell_length_b       7.22043
_cell_length_c       6.50885
_cell_angle_alpha    123.687
_cell_angle_beta     56.3125
_cell_angle_gamma    120

_space_group_name_H-M_alt    "P 1"
_space_group_IT_number       1

loop_
  _space_group_symop_operation_xyz
  'x, y, z'

loop_
  _atom_site_type_symbol
  _atom_site_label
  _atom_site_symmetry_multiplicity
  _atom_site_fract_x
  _atom_site_fract_y
  _atom_site_fract_z
  _atom_site_occupancy
  Al  Al1       1.0  0.91800  0.08180  0.24500  1.0000
  Al  Al2       1.0  0.58200  0.41800  0.25500  1.0000
  Al  Al3       1.0  0.41800  0.58200  0.74500  1.0000
  Al  Al4       1.0  0.08180  0.91800  0.75500  1.0000
  Np  Np1       1.0  0.44900  0.75000  0.25000  1.0000
  Np  Np2       1.0  0.05110  0.55100  0.25000  1.0000
  Np  Np3       1.0  0.25000  0.94900  0.25000  1.0000
  Np  Np4       1.0  0.75000  0.05110  0.75000  1.0000
  Np  Np5       1.0  0.94900  0.44900  0.75000  1.0000
  Np  Np6       1.0  0.55100  0.25000  0.75000  1.0000
