data_image0
_chemical_formula_structural       Mg4Sc6
_chemical_formula_sum              "Mg4 Sc6"
_cell_length_a       6.25073
_cell_length_b       6.25073
_cell_length_c       7.98718
_cell_angle_alpha    113.035
_cell_angle_beta     66.9647
_cell_angle_gamma    120

_space_group_name_H-M_alt    "P 1"
_space_group_IT_number       1

loop_
  _space_group_symop_operation_xyz
  'x, y, z'

loop_
  _atom_site_type_symbol
  _atom_site_label
  _atom_site_symmetry_multiplicity
  _atom_site_fract_x
  _atom_site_fract_y
  _atom_site_fract_z
  _atom_site_occupancy
  Mg  Mg1       1.0  0.31000  0.69000  0.06940  1.0000
  Mg  Mg2       1.0  0.19000  0.81000  0.43100  1.0000
  Mg  Mg3       1.0  0.81000  0.19000  0.56900  1.0000
  Mg  Mg4       1.0  0.69000  0.31000  0.93100  1.0000
  Sc  Sc1       1.0  0.71600  0.21600  0.25000  1.0000
  Sc  Sc2       1.0  0.78400  0.75000  0.25000  1.0000
  Sc  Sc3       1.0  0.25000  0.28400  0.25000  1.0000
  Sc  Sc4       1.0  0.75000  0.71600  0.75000  1.0000
  Sc  Sc5       1.0  0.21600  0.25000  0.75000  1.0000
  Sc  Sc6       1.0  0.28400  0.78400  0.75000  1.0000
