data_image0
_chemical_formula_structural       Mg4Zn6
_chemical_formula_sum              "Mg4 Zn6"
_cell_length_a       6.69663
_cell_length_b       6.69663
_cell_length_c       6.4
_cell_angle_alpha    121.545
_cell_angle_beta     58.4546
_cell_angle_gamma    120

_space_group_name_H-M_alt    "P 1"
_space_group_IT_number       1

loop_
  _space_group_symop_operation_xyz
  'x, y, z'

loop_
  _atom_site_type_symbol
  _atom_site_label
  _atom_site_symmetry_multiplicity
  _atom_site_fract_x
  _atom_site_fract_y
  _atom_site_fract_z
  _atom_site_occupancy
  Mg  Mg1       1.0  0.59400  0.40600  0.21700  1.0000
  Mg  Mg2       1.0  0.90600  0.09430  0.28300  1.0000
  Mg  Mg3       1.0  0.09430  0.90600  0.71700  1.0000
  Mg  Mg4       1.0  0.40600  0.59400  0.78300  1.0000
  Zn  Zn1       1.0  0.25000  0.97600  0.25000  1.0000
  Zn  Zn2       1.0  0.47600  0.75000  0.25000  1.0000
  Zn  Zn3       1.0  0.02370  0.52400  0.25000  1.0000
  Zn  Zn4       1.0  0.97600  0.47600  0.75000  1.0000
  Zn  Zn5       1.0  0.52400  0.25000  0.75000  1.0000
  Zn  Zn6       1.0  0.75000  0.02370  0.75000  1.0000
