data_image0
_chemical_formula_structural       Mg4Pd6
_chemical_formula_sum              "Mg4 Pd6"
_cell_length_a       6.6436
_cell_length_b       6.6436
_cell_length_c       5.92795
_cell_angle_alpha    124.081
_cell_angle_beta     55.9192
_cell_angle_gamma    120

_space_group_name_H-M_alt    "P 1"
_space_group_IT_number       1

loop_
  _space_group_symop_operation_xyz
  'x, y, z'

loop_
  _atom_site_type_symbol
  _atom_site_label
  _atom_site_symmetry_multiplicity
  _atom_site_fract_x
  _atom_site_fract_y
  _atom_site_fract_z
  _atom_site_occupancy
  Mg  Mg1       1.0  0.60200  0.39800  0.19500  1.0000
  Mg  Mg2       1.0  0.89800  0.10200  0.30500  1.0000
  Mg  Mg3       1.0  0.10200  0.89800  0.69500  1.0000
  Mg  Mg4       1.0  0.39800  0.60200  0.80500  1.0000
  Pd  Pd1       1.0  0.99700  0.49700  0.25000  1.0000
  Pd  Pd2       1.0  0.50300  0.75000  0.25000  1.0000
  Pd  Pd3       1.0  0.25000  0.00283  0.25000  1.0000
  Pd  Pd4       1.0  0.00283  0.50300  0.75000  1.0000
  Pd  Pd5       1.0  0.49700  0.25000  0.75000  1.0000
  Pd  Pd6       1.0  0.75000  0.99700  0.75000  1.0000
