data_image0
_chemical_formula_structural       Hg4Ni6
_chemical_formula_sum              "Hg4 Ni6"
_cell_length_a       6.42399
_cell_length_b       6.42399
_cell_length_c       6.02848
_cell_angle_alpha    122.195
_cell_angle_beta     57.8049
_cell_angle_gamma    120

_space_group_name_H-M_alt    "P 1"
_space_group_IT_number       1

loop_
  _space_group_symop_operation_xyz
  'x, y, z'

loop_
  _atom_site_type_symbol
  _atom_site_label
  _atom_site_symmetry_multiplicity
  _atom_site_fract_x
  _atom_site_fract_y
  _atom_site_fract_z
  _atom_site_occupancy
  Hg  Hg1       1.0  0.59600  0.40400  0.21200  1.0000
  Hg  Hg2       1.0  0.90400  0.09600  0.28800  1.0000
  Hg  Hg3       1.0  0.09600  0.90400  0.71200  1.0000
  Hg  Hg4       1.0  0.40400  0.59600  0.78800  1.0000
  Ni  Ni1       1.0  0.25000  0.97200  0.25000  1.0000
  Ni  Ni2       1.0  0.47200  0.75000  0.25000  1.0000
  Ni  Ni3       1.0  0.02830  0.52800  0.25000  1.0000
  Ni  Ni4       1.0  0.97200  0.47200  0.75000  1.0000
  Ni  Ni5       1.0  0.52800  0.25000  0.75000  1.0000
  Ni  Ni6       1.0  0.75000  0.02830  0.75000  1.0000
