data_image0
_chemical_formula_structural       Ni4Si6
_chemical_formula_sum              "Ni4 Si6"
_cell_length_a       5.73274
_cell_length_b       5.73274
_cell_length_c       5.9571
_cell_angle_alpha    118.762
_cell_angle_beta     61.2383
_cell_angle_gamma    120

_space_group_name_H-M_alt    "P 1"
_space_group_IT_number       1

loop_
  _space_group_symop_operation_xyz
  'x, y, z'

loop_
  _atom_site_type_symbol
  _atom_site_label
  _atom_site_symmetry_multiplicity
  _atom_site_fract_x
  _atom_site_fract_y
  _atom_site_fract_z
  _atom_site_occupancy
  Ni  Ni1       1.0  0.33200  0.66800  0.00327  1.0000
  Ni  Ni2       1.0  0.16800  0.83200  0.49700  1.0000
  Ni  Ni3       1.0  0.83200  0.16800  0.50300  1.0000
  Ni  Ni4       1.0  0.66800  0.33200  0.99700  1.0000
  Si  Si1       1.0  0.25000  0.10000  0.25000  1.0000
  Si  Si2       1.0  0.90000  0.40000  0.25000  1.0000
  Si  Si3       1.0  0.60000  0.75000  0.25000  1.0000
  Si  Si4       1.0  0.40000  0.25000  0.75000  1.0000
  Si  Si5       1.0  0.10000  0.60000  0.75000  1.0000
  Si  Si6       1.0  0.75000  0.90000  0.75000  1.0000
