data_image0
_chemical_formula_structural       Eu4Fe6
_chemical_formula_sum              "Eu4 Fe6"
_cell_length_a       6.83018
_cell_length_b       6.83018
_cell_length_c       6.84438
_cell_angle_alpha    119.931
_cell_angle_beta     60.0686
_cell_angle_gamma    120

_space_group_name_H-M_alt    "P 1"
_space_group_IT_number       1

loop_
  _space_group_symop_operation_xyz
  'x, y, z'

loop_
  _atom_site_type_symbol
  _atom_site_label
  _atom_site_symmetry_multiplicity
  _atom_site_fract_x
  _atom_site_fract_y
  _atom_site_fract_z
  _atom_site_occupancy
  Eu  Eu1       1.0  0.59100  0.40900  0.22600  1.0000
  Eu  Eu2       1.0  0.90900  0.09140  0.27400  1.0000
  Eu  Eu3       1.0  0.09140  0.90900  0.72600  1.0000
  Eu  Eu4       1.0  0.40900  0.59100  0.77400  1.0000
  Fe  Fe1       1.0  0.44000  0.75000  0.25000  1.0000
  Fe  Fe2       1.0  0.25000  0.94000  0.25000  1.0000
  Fe  Fe3       1.0  0.05970  0.56000  0.25000  1.0000
  Fe  Fe4       1.0  0.94000  0.44000  0.75000  1.0000
  Fe  Fe5       1.0  0.75000  0.05970  0.75000  1.0000
  Fe  Fe6       1.0  0.56000  0.25000  0.75000  1.0000
