data_image0
_chemical_formula_structural       Eu4Ni6
_chemical_formula_sum              "Eu4 Ni6"
_cell_length_a       6.50612
_cell_length_b       6.50612
_cell_length_c       6.49254
_cell_angle_alpha    120.069
_cell_angle_beta     59.9308
_cell_angle_gamma    120

_space_group_name_H-M_alt    "P 1"
_space_group_IT_number       1

loop_
  _space_group_symop_operation_xyz
  'x, y, z'

loop_
  _atom_site_type_symbol
  _atom_site_label
  _atom_site_symmetry_multiplicity
  _atom_site_fract_x
  _atom_site_fract_y
  _atom_site_fract_z
  _atom_site_occupancy
  Eu  Eu1       1.0  0.59500  0.40500  0.21600  1.0000
  Eu  Eu2       1.0  0.90500  0.09480  0.28400  1.0000
  Eu  Eu3       1.0  0.09480  0.90500  0.71600  1.0000
  Eu  Eu4       1.0  0.40500  0.59500  0.78400  1.0000
  Ni  Ni1       1.0  0.03740  0.53700  0.25000  1.0000
  Ni  Ni2       1.0  0.46300  0.75000  0.25000  1.0000
  Ni  Ni3       1.0  0.25000  0.96300  0.25000  1.0000
  Ni  Ni4       1.0  0.75000  0.03740  0.75000  1.0000
  Ni  Ni5       1.0  0.53700  0.25000  0.75000  1.0000
  Ni  Ni6       1.0  0.96300  0.46300  0.75000  1.0000
