data_image0
_chemical_formula_structural       Ga2Ge4O14Pb3
_chemical_formula_sum              "Ga2 Ge4 O14 Pb3"
_cell_length_a       8.4673
_cell_length_b       8.46526
_cell_length_c       4.9287
_cell_angle_alpha    89.9997
_cell_angle_beta     90.0376
_cell_angle_gamma    119.995

_space_group_name_H-M_alt    "P 1"
_space_group_IT_number       1

loop_
  _space_group_symop_operation_xyz
  'x, y, z'

loop_
  _atom_site_type_symbol
  _atom_site_label
  _atom_site_symmetry_multiplicity
  _atom_site_fract_x
  _atom_site_fract_y
  _atom_site_fract_z
  _atom_site_occupancy
  Ga  Ga1       1.0  0.66700  0.33300  0.49100  1.0000
  Ga  Ga2       1.0  0.33300  0.66600  0.50900  1.0000
  Ge  Ge1       1.0  0.00000  0.00112  0.00000  1.0000
  Ge  Ge2       1.0  0.75500  0.75400  0.50000  1.0000
  Ge  Ge3       1.0  0.00000  0.24600  0.50000  1.0000
  Ge  Ge4       1.0  0.24500  0.99900  0.50000  1.0000
  O   O1        1.0  0.33700  0.67700  0.14700  1.0000
  O   O2        1.0  0.79000  0.91000  0.23200  1.0000
  O   O3        1.0  0.08780  0.88000  0.23300  1.0000
  O   O4        1.0  0.12000  0.20800  0.23400  1.0000
  O   O5        1.0  0.71100  0.55200  0.32800  1.0000
  O   O6        1.0  0.44800  0.15700  0.32800  1.0000
  O   O7        1.0  0.84200  0.29100  0.33000  1.0000
  O   O8        1.0  0.15800  0.44900  0.67000  1.0000
  O   O9        1.0  0.55200  0.70900  0.67100  1.0000
  O   O10       1.0  0.28900  0.84100  0.67200  1.0000
  O   O11       1.0  0.88000  0.08890  0.76600  1.0000
  O   O12       1.0  0.91200  0.79200  0.76700  1.0000
  O   O13       1.0  0.21000  0.12000  0.76800  1.0000
  O   O14       1.0  0.66300  0.34000  0.85300  1.0000
  Pb  Pb1       1.0  0.00016  0.57600  0.00000  1.0000
  Pb  Pb2       1.0  0.56800  0.98900  0.00153  1.0000
  Pb  Pb3       1.0  0.43200  0.42100  0.99800  1.0000
