data_image0
_chemical_formula_structural       Ni4Sn6
_chemical_formula_sum              "Ni4 Sn6"
_cell_length_a       6.42019
_cell_length_b       6.42019
_cell_length_c       6.69902
_cell_angle_alpha    118.632
_cell_angle_beta     61.3676
_cell_angle_gamma    120

_space_group_name_H-M_alt    "P 1"
_space_group_IT_number       1

loop_
  _space_group_symop_operation_xyz
  'x, y, z'

loop_
  _atom_site_type_symbol
  _atom_site_label
  _atom_site_symmetry_multiplicity
  _atom_site_fract_x
  _atom_site_fract_y
  _atom_site_fract_z
  _atom_site_occupancy
  Ni  Ni1       1.0  0.32800  0.67200  0.01710  1.0000
  Ni  Ni2       1.0  0.17200  0.82800  0.48300  1.0000
  Ni  Ni3       1.0  0.82800  0.17200  0.51700  1.0000
  Ni  Ni4       1.0  0.67200  0.32800  0.98300  1.0000
  Sn  Sn1       1.0  0.25000  0.10100  0.25000  1.0000
  Sn  Sn2       1.0  0.89900  0.39900  0.25000  1.0000
  Sn  Sn3       1.0  0.60100  0.75000  0.25000  1.0000
  Sn  Sn4       1.0  0.39900  0.25000  0.75000  1.0000
  Sn  Sn5       1.0  0.10100  0.60100  0.75000  1.0000
  Sn  Sn6       1.0  0.75000  0.89900  0.75000  1.0000
