data_image0
_chemical_formula_structural       Er4Ti6
_chemical_formula_sum              "Er4 Ti6"
_cell_length_a       7.11782
_cell_length_b       7.11783
_cell_length_c       6.80903
_cell_angle_alpha    121.512
_cell_angle_beta     58.4881
_cell_angle_gamma    120

_space_group_name_H-M_alt    "P 1"
_space_group_IT_number       1

loop_
  _space_group_symop_operation_xyz
  'x, y, z'

loop_
  _atom_site_type_symbol
  _atom_site_label
  _atom_site_symmetry_multiplicity
  _atom_site_fract_x
  _atom_site_fract_y
  _atom_site_fract_z
  _atom_site_occupancy
  Er  Er1       1.0  0.59200  0.40800  0.22400  1.0000
  Er  Er2       1.0  0.90800  0.09210  0.27600  1.0000
  Er  Er3       1.0  0.09210  0.90800  0.72400  1.0000
  Er  Er4       1.0  0.40800  0.59200  0.77600  1.0000
  Ti  Ti1       1.0  0.25000  0.95800  0.25000  1.0000
  Ti  Ti2       1.0  0.04230  0.54200  0.25000  1.0000
  Ti  Ti3       1.0  0.45800  0.75000  0.25000  1.0000
  Ti  Ti4       1.0  0.54200  0.25000  0.75000  1.0000
  Ti  Ti5       1.0  0.95800  0.45800  0.75000  1.0000
  Ti  Ti6       1.0  0.75000  0.04230  0.75000  1.0000
