data_image0
_chemical_formula_structural       Cr4Ti6
_chemical_formula_sum              "Cr4 Ti6"
_cell_length_a       5.51732
_cell_length_b       5.51732
_cell_length_c       6.58336
_cell_angle_alpha    114.774
_cell_angle_beta     65.2263
_cell_angle_gamma    120

_space_group_name_H-M_alt    "P 1"
_space_group_IT_number       1

loop_
  _space_group_symop_operation_xyz
  'x, y, z'

loop_
  _atom_site_type_symbol
  _atom_site_label
  _atom_site_symmetry_multiplicity
  _atom_site_fract_x
  _atom_site_fract_y
  _atom_site_fract_z
  _atom_site_occupancy
  Cr  Cr1       1.0  0.30100  0.69900  0.09720  1.0000
  Cr  Cr2       1.0  0.19900  0.80100  0.40300  1.0000
  Cr  Cr3       1.0  0.80100  0.19900  0.59700  1.0000
  Cr  Cr4       1.0  0.69900  0.30100  0.90300  1.0000
  Ti  Ti1       1.0  0.25000  0.24800  0.25000  1.0000
  Ti  Ti2       1.0  0.75200  0.25200  0.25000  1.0000
  Ti  Ti3       1.0  0.74800  0.75000  0.25000  1.0000
  Ti  Ti4       1.0  0.25200  0.25000  0.75000  1.0000
  Ti  Ti5       1.0  0.24800  0.74800  0.75000  1.0000
  Ti  Ti6       1.0  0.75000  0.75200  0.75000  1.0000
