data_image0
_chemical_formula_structural       Cu4Ni6
_chemical_formula_sum              "Cu4 Ni6"
_cell_length_a       5.91893
_cell_length_b       5.91893
_cell_length_c       5.30902
_cell_angle_alpha    123.879
_cell_angle_beta     56.121
_cell_angle_gamma    120

_space_group_name_H-M_alt    "P 1"
_space_group_IT_number       1

loop_
  _space_group_symop_operation_xyz
  'x, y, z'

loop_
  _atom_site_type_symbol
  _atom_site_label
  _atom_site_symmetry_multiplicity
  _atom_site_fract_x
  _atom_site_fract_y
  _atom_site_fract_z
  _atom_site_occupancy
  Cu  Cu1       1.0  0.59300  0.40700  0.22200  1.0000
  Cu  Cu2       1.0  0.90700  0.09260  0.27800  1.0000
  Cu  Cu3       1.0  0.09260  0.90700  0.72200  1.0000
  Cu  Cu4       1.0  0.40700  0.59300  0.77800  1.0000
  Ni  Ni1       1.0  0.25000  0.98900  0.25000  1.0000
  Ni  Ni2       1.0  0.48900  0.75000  0.25000  1.0000
  Ni  Ni3       1.0  0.01110  0.51100  0.25000  1.0000
  Ni  Ni4       1.0  0.98900  0.48900  0.75000  1.0000
  Ni  Ni5       1.0  0.51100  0.25000  0.75000  1.0000
  Ni  Ni6       1.0  0.75000  0.01110  0.75000  1.0000
