data_image0
_chemical_formula_structural       Ni4Zr6
_chemical_formula_sum              "Ni4 Zr6"
_cell_length_a       7.02594
_cell_length_b       7.02594
_cell_length_c       5.9341
_cell_angle_alpha    126.299
_cell_angle_beta     53.7012
_cell_angle_gamma    120

_space_group_name_H-M_alt    "P 1"
_space_group_IT_number       1

loop_
  _space_group_symop_operation_xyz
  'x, y, z'

loop_
  _atom_site_type_symbol
  _atom_site_label
  _atom_site_symmetry_multiplicity
  _atom_site_fract_x
  _atom_site_fract_y
  _atom_site_fract_z
  _atom_site_occupancy
  Ni  Ni1       1.0  0.59300  0.40700  0.22000  1.0000
  Ni  Ni2       1.0  0.90700  0.09320  0.28000  1.0000
  Ni  Ni3       1.0  0.09320  0.90700  0.72000  1.0000
  Ni  Ni4       1.0  0.40700  0.59300  0.78000  1.0000
  Zr  Zr1       1.0  0.96500  0.46500  0.25000  1.0000
  Zr  Zr2       1.0  0.53500  0.75000  0.25000  1.0000
  Zr  Zr3       1.0  0.25000  0.03460  0.25000  1.0000
  Zr  Zr4       1.0  0.75000  0.96500  0.75000  1.0000
  Zr  Zr5       1.0  0.46500  0.25000  0.75000  1.0000
  Zr  Zr6       1.0  0.03460  0.53500  0.75000  1.0000
