data_image0
_chemical_formula_structural       Dy4Mg6
_chemical_formula_sum              "Dy4 Mg6"
_cell_length_a       9.21214
_cell_length_b       9.21214
_cell_length_c       6.60151
_cell_angle_alpha    134.245
_cell_angle_beta     45.7548
_cell_angle_gamma    120

_space_group_name_H-M_alt    "P 1"
_space_group_IT_number       1

loop_
  _space_group_symop_operation_xyz
  'x, y, z'

loop_
  _atom_site_type_symbol
  _atom_site_label
  _atom_site_symmetry_multiplicity
  _atom_site_fract_x
  _atom_site_fract_y
  _atom_site_fract_z
  _atom_site_occupancy
  Dy  Dy1       1.0  0.62500  0.37500  0.12600  1.0000
  Dy  Dy2       1.0  0.87500  0.12500  0.37400  1.0000
  Dy  Dy3       1.0  0.12500  0.87500  0.62600  1.0000
  Dy  Dy4       1.0  0.37500  0.62500  0.87400  1.0000
  Mg  Mg1       1.0  0.56900  0.75000  0.25000  1.0000
  Mg  Mg2       1.0  0.25000  0.06880  0.25000  1.0000
  Mg  Mg3       1.0  0.93100  0.43100  0.25000  1.0000
  Mg  Mg4       1.0  0.06880  0.56900  0.75000  1.0000
  Mg  Mg5       1.0  0.75000  0.93100  0.75000  1.0000
  Mg  Mg6       1.0  0.43100  0.25000  0.75000  1.0000
