data_image0
_chemical_formula_structural       Te4Ti6
_chemical_formula_sum              "Te4 Ti6"
_cell_length_a       6.88742
_cell_length_b       6.88742
_cell_length_c       6.67871
_cell_angle_alpha    121.039
_cell_angle_beta     58.9608
_cell_angle_gamma    120

_space_group_name_H-M_alt    "P 1"
_space_group_IT_number       1

loop_
  _space_group_symop_operation_xyz
  'x, y, z'

loop_
  _atom_site_type_symbol
  _atom_site_label
  _atom_site_symmetry_multiplicity
  _atom_site_fract_x
  _atom_site_fract_y
  _atom_site_fract_z
  _atom_site_occupancy
  Te  Te1       1.0  0.60700  0.39300  0.17800  1.0000
  Te  Te2       1.0  0.89300  0.10700  0.32200  1.0000
  Te  Te3       1.0  0.10700  0.89300  0.67800  1.0000
  Te  Te4       1.0  0.39300  0.60700  0.82200  1.0000
  Ti  Ti1       1.0  0.25000  0.97900  0.25000  1.0000
  Ti  Ti2       1.0  0.47900  0.75000  0.25000  1.0000
  Ti  Ti3       1.0  0.02080  0.52100  0.25000  1.0000
  Ti  Ti4       1.0  0.97900  0.47900  0.75000  1.0000
  Ti  Ti5       1.0  0.52100  0.25000  0.75000  1.0000
  Ti  Ti6       1.0  0.75000  0.02080  0.75000  1.0000
