data_image0
_chemical_formula_structural       Ir4Ni6
_chemical_formula_sum              "Ir4 Ni6"
_cell_length_a       6.11264
_cell_length_b       6.11264
_cell_length_c       5.59502
_cell_angle_alpha    123.111
_cell_angle_beta     56.8893
_cell_angle_gamma    120

_space_group_name_H-M_alt    "P 1"
_space_group_IT_number       1

loop_
  _space_group_symop_operation_xyz
  'x, y, z'

loop_
  _atom_site_type_symbol
  _atom_site_label
  _atom_site_symmetry_multiplicity
  _atom_site_fract_x
  _atom_site_fract_y
  _atom_site_fract_z
  _atom_site_occupancy
  Ir  Ir1       1.0  0.59300  0.40700  0.22200  1.0000
  Ir  Ir2       1.0  0.90700  0.09250  0.27800  1.0000
  Ir  Ir3       1.0  0.09250  0.90700  0.72200  1.0000
  Ir  Ir4       1.0  0.40700  0.59300  0.77800  1.0000
  Ni  Ni1       1.0  0.25000  0.98500  0.25000  1.0000
  Ni  Ni2       1.0  0.48500  0.75000  0.25000  1.0000
  Ni  Ni3       1.0  0.01480  0.51500  0.25000  1.0000
  Ni  Ni4       1.0  0.98500  0.48500  0.75000  1.0000
  Ni  Ni5       1.0  0.51500  0.25000  0.75000  1.0000
  Ni  Ni6       1.0  0.75000  0.01480  0.75000  1.0000
