data_image0
_chemical_formula_structural       Ni4Th6
_chemical_formula_sum              "Ni4 Th6"
_cell_length_a       7.13552
_cell_length_b       7.13552
_cell_length_c       7.31995
_cell_angle_alpha    119.17
_cell_angle_beta     60.83
_cell_angle_gamma    120

_space_group_name_H-M_alt    "P 1"
_space_group_IT_number       1

loop_
  _space_group_symop_operation_xyz
  'x, y, z'

loop_
  _atom_site_type_symbol
  _atom_site_label
  _atom_site_symmetry_multiplicity
  _atom_site_fract_x
  _atom_site_fract_y
  _atom_site_fract_z
  _atom_site_occupancy
  Ni  Ni1       1.0  0.65100  0.34900  0.04820  1.0000
  Ni  Ni2       1.0  0.84900  0.15100  0.45200  1.0000
  Ni  Ni3       1.0  0.15100  0.84900  0.54800  1.0000
  Ni  Ni4       1.0  0.34900  0.65100  0.95200  1.0000
  Th  Th1       1.0  0.94200  0.44200  0.25000  1.0000
  Th  Th2       1.0  0.25000  0.05760  0.25000  1.0000
  Th  Th3       1.0  0.55800  0.75000  0.25000  1.0000
  Th  Th4       1.0  0.44200  0.25000  0.75000  1.0000
  Th  Th5       1.0  0.75000  0.94200  0.75000  1.0000
  Th  Th6       1.0  0.05760  0.55800  0.75000  1.0000
