data_image0
_chemical_formula_structural       Na4Ni6
_chemical_formula_sum              "Na4 Ni6"
_cell_length_a       6.47082
_cell_length_b       6.47082
_cell_length_c       6.02294
_cell_angle_alpha    122.492
_cell_angle_beta     57.508
_cell_angle_gamma    120

_space_group_name_H-M_alt    "P 1"
_space_group_IT_number       1

loop_
  _space_group_symop_operation_xyz
  'x, y, z'

loop_
  _atom_site_type_symbol
  _atom_site_label
  _atom_site_symmetry_multiplicity
  _atom_site_fract_x
  _atom_site_fract_y
  _atom_site_fract_z
  _atom_site_occupancy
  Na  Na1       1.0  0.58600  0.41400  0.24300  1.0000
  Na  Na2       1.0  0.91400  0.08560  0.25700  1.0000
  Na  Na3       1.0  0.08560  0.91400  0.74300  1.0000
  Na  Na4       1.0  0.41400  0.58600  0.75700  1.0000
  Ni  Ni1       1.0  0.04220  0.54200  0.25000  1.0000
  Ni  Ni2       1.0  0.45800  0.75000  0.25000  1.0000
  Ni  Ni3       1.0  0.25000  0.95800  0.25000  1.0000
  Ni  Ni4       1.0  0.75000  0.04220  0.75000  1.0000
  Ni  Ni5       1.0  0.54200  0.25000  0.75000  1.0000
  Ni  Ni6       1.0  0.95800  0.45800  0.75000  1.0000
