data_image0
_chemical_formula_structural       Ni4Sr6
_chemical_formula_sum              "Ni4 Sr6"
_cell_length_a       7.56535
_cell_length_b       7.56535
_cell_length_c       7.69205
_cell_angle_alpha    119.457
_cell_angle_beta     60.5434
_cell_angle_gamma    120

_space_group_name_H-M_alt    "P 1"
_space_group_IT_number       1

loop_
  _space_group_symop_operation_xyz
  'x, y, z'

loop_
  _atom_site_type_symbol
  _atom_site_label
  _atom_site_symmetry_multiplicity
  _atom_site_fract_x
  _atom_site_fract_y
  _atom_site_fract_z
  _atom_site_occupancy
  Ni  Ni1       1.0  0.31200  0.68800  0.06280  1.0000
  Ni  Ni2       1.0  0.18800  0.81200  0.43700  1.0000
  Ni  Ni3       1.0  0.81200  0.18800  0.56300  1.0000
  Ni  Ni4       1.0  0.68800  0.31200  0.93700  1.0000
  Sr  Sr1       1.0  0.60500  0.75000  0.25000  1.0000
  Sr  Sr2       1.0  0.89500  0.39500  0.25000  1.0000
  Sr  Sr3       1.0  0.25000  0.10500  0.25000  1.0000
  Sr  Sr4       1.0  0.75000  0.89500  0.75000  1.0000
  Sr  Sr5       1.0  0.10500  0.60500  0.75000  1.0000
  Sr  Sr6       1.0  0.39500  0.25000  0.75000  1.0000
