data_image0
_chemical_formula_structural       Tb4Ti6
_chemical_formula_sum              "Tb4 Ti6"
_cell_length_a       7.14521
_cell_length_b       7.14521
_cell_length_c       6.85965
_cell_angle_alpha    121.387
_cell_angle_beta     58.6131
_cell_angle_gamma    120

_space_group_name_H-M_alt    "P 1"
_space_group_IT_number       1

loop_
  _space_group_symop_operation_xyz
  'x, y, z'

loop_
  _atom_site_type_symbol
  _atom_site_label
  _atom_site_symmetry_multiplicity
  _atom_site_fract_x
  _atom_site_fract_y
  _atom_site_fract_z
  _atom_site_occupancy
  Tb  Tb1       1.0  0.59100  0.40900  0.22800  1.0000
  Tb  Tb2       1.0  0.90900  0.09080  0.27200  1.0000
  Tb  Tb3       1.0  0.09080  0.90900  0.72800  1.0000
  Tb  Tb4       1.0  0.40900  0.59100  0.77200  1.0000
  Ti  Ti1       1.0  0.04350  0.54400  0.25000  1.0000
  Ti  Ti2       1.0  0.45600  0.75000  0.25000  1.0000
  Ti  Ti3       1.0  0.25000  0.95600  0.25000  1.0000
  Ti  Ti4       1.0  0.75000  0.04350  0.75000  1.0000
  Ti  Ti5       1.0  0.54400  0.25000  0.75000  1.0000
  Ti  Ti6       1.0  0.95600  0.45600  0.75000  1.0000
