data_image0
_chemical_formula_structural       Ni4Pt6
_chemical_formula_sum              "Ni4 Pt6"
_cell_length_a       6.45956
_cell_length_b       6.45955
_cell_length_c       5.55599
_cell_angle_alpha    125.543
_cell_angle_beta     54.457
_cell_angle_gamma    120

_space_group_name_H-M_alt    "P 1"
_space_group_IT_number       1

loop_
  _space_group_symop_operation_xyz
  'x, y, z'

loop_
  _atom_site_type_symbol
  _atom_site_label
  _atom_site_symmetry_multiplicity
  _atom_site_fract_x
  _atom_site_fract_y
  _atom_site_fract_z
  _atom_site_occupancy
  Ni  Ni1       1.0  0.59100  0.40900  0.22600  1.0000
  Ni  Ni2       1.0  0.90900  0.09140  0.27400  1.0000
  Ni  Ni3       1.0  0.09140  0.90900  0.72600  1.0000
  Ni  Ni4       1.0  0.40900  0.59100  0.77400  1.0000
  Pt  Pt1       1.0  0.50200  0.75000  0.25000  1.0000
  Pt  Pt2       1.0  0.25000  0.00156  0.25000  1.0000
  Pt  Pt3       1.0  0.99800  0.49800  0.25000  1.0000
  Pt  Pt4       1.0  0.75000  0.99800  0.75000  1.0000
  Pt  Pt5       1.0  0.49800  0.25000  0.75000  1.0000
  Pt  Pt6       1.0  0.00156  0.50200  0.75000  1.0000
