data_image0
_chemical_formula_structural       Si14Yb8
_chemical_formula_sum              "Si14 Yb8"
_cell_length_a       23.2131
_cell_length_b       6.87234
_cell_length_c       9.39449
_cell_angle_alpha    91.9583
_cell_angle_beta     91.2305
_cell_angle_gamma    162.024

_space_group_name_H-M_alt    "P 1"
_space_group_IT_number       1

loop_
  _space_group_symop_operation_xyz
  'x, y, z'

loop_
  _atom_site_type_symbol
  _atom_site_label
  _atom_site_symmetry_multiplicity
  _atom_site_fract_x
  _atom_site_fract_y
  _atom_site_fract_z
  _atom_site_occupancy
  Si  Si1       1.0  0.10900  0.16800  0.17300  1.0000
  Si  Si2       1.0  0.14300  0.63700  0.20300  1.0000
  Si  Si3       1.0  0.51100  0.78000  0.22300  1.0000
  Si  Si4       1.0  0.57500  0.33700  0.25300  1.0000
  Si  Si5       1.0  0.43600  0.20400  0.27100  1.0000
  Si  Si6       1.0  0.87500  0.91800  0.29700  1.0000
  Si  Si7       1.0  0.90700  0.38000  0.31700  1.0000
  Si  Si8       1.0  0.09340  0.62000  0.68300  1.0000
  Si  Si9       1.0  0.12600  0.08130  0.70300  1.0000
  Si  Si10      1.0  0.56500  0.79600  0.72900  1.0000
  Si  Si11      1.0  0.42500  0.66300  0.74700  1.0000
  Si  Si12      1.0  0.49000  0.22000  0.77700  1.0000
  Si  Si13      1.0  0.85700  0.36400  0.79700  1.0000
  Si  Si14      1.0  0.89100  0.83100  0.82700  1.0000
  Yb  Yb1       1.0  0.25200  0.29200  0.00000  1.0000
  Yb  Yb2       1.0  0.74900  0.70900  0.00000  1.0000
  Yb  Yb3       1.0  0.73500  0.16000  0.07070  1.0000
  Yb  Yb4       1.0  0.27000  0.35900  0.44300  1.0000
  Yb  Yb5       1.0  0.23800  0.75100  0.49400  1.0000
  Yb  Yb6       1.0  0.76200  0.24800  0.50600  1.0000
  Yb  Yb7       1.0  0.73100  0.64200  0.55600  1.0000
  Yb  Yb8       1.0  0.26500  0.84100  0.92900  1.0000
