data_image0
_chemical_formula_structural       Bi4Mn4O12
_chemical_formula_sum              "Bi4 Mn4 O12"
_cell_length_a       5.47742
_cell_length_b       5.47742
_cell_length_c       9.6546
_cell_angle_alpha    74.5528
_cell_angle_beta     105.447
_cell_angle_gamma    120.275

_space_group_name_H-M_alt    "P 1"
_space_group_IT_number       1

loop_
  _space_group_symop_operation_xyz
  'x, y, z'

loop_
  _atom_site_type_symbol
  _atom_site_label
  _atom_site_symmetry_multiplicity
  _atom_site_fract_x
  _atom_site_fract_y
  _atom_site_fract_z
  _atom_site_occupancy
  Bi  Bi1       1.0  0.10400  0.35800  0.36900  1.0000
  Bi  Bi2       1.0  0.64200  0.89600  0.86900  1.0000
  Bi  Bi3       1.0  0.36800  0.09440  0.11700  1.0000
  Bi  Bi4       1.0  0.90600  0.63200  0.61700  1.0000
  Mn  Mn1       1.0  0.24000  0.23000  0.74300  1.0000
  Mn  Mn2       1.0  0.77000  0.76000  0.24300  1.0000
  Mn  Mn3       1.0  0.50500  0.99500  0.49300  1.0000
  Mn  Mn4       1.0  0.00525  0.49500  0.99300  1.0000
  O   O1        1.0  0.70400  0.37700  0.37600  1.0000
  O   O2        1.0  0.62300  0.29500  0.87600  1.0000
  O   O3        1.0  0.19600  0.88100  0.33200  1.0000
  O   O4        1.0  0.11900  0.80400  0.83200  1.0000
  O   O5        1.0  0.89200  0.18600  0.15400  1.0000
  O   O6        1.0  0.81400  0.10800  0.65400  1.0000
  O   O7        1.0  0.38800  0.69500  0.11000  1.0000
  O   O8        1.0  0.30500  0.61200  0.61000  1.0000
  O   O9        1.0  0.11200  0.27500  0.91200  1.0000
  O   O10       1.0  0.72500  0.88800  0.41200  1.0000
  O   O11       1.0  0.28500  0.10100  0.57400  1.0000
  O   O12       1.0  0.89900  0.71500  0.07440  1.0000
