data_image0
_chemical_formula_structural       Hf4Ni6
_chemical_formula_sum              "Hf4 Ni6"
_cell_length_a       6.28596
_cell_length_b       6.28596
_cell_length_c       6.0294
_cell_angle_alpha    121.418
_cell_angle_beta     58.5821
_cell_angle_gamma    120

_space_group_name_H-M_alt    "P 1"
_space_group_IT_number       1

loop_
  _space_group_symop_operation_xyz
  'x, y, z'

loop_
  _atom_site_type_symbol
  _atom_site_label
  _atom_site_symmetry_multiplicity
  _atom_site_fract_x
  _atom_site_fract_y
  _atom_site_fract_z
  _atom_site_occupancy
  Hf  Hf1       1.0  0.60300  0.39700  0.19100  1.0000
  Hf  Hf2       1.0  0.89700  0.10300  0.30900  1.0000
  Hf  Hf3       1.0  0.10300  0.89700  0.69100  1.0000
  Hf  Hf4       1.0  0.39700  0.60300  0.80900  1.0000
  Ni  Ni1       1.0  0.25000  0.98200  0.25000  1.0000
  Ni  Ni2       1.0  0.48200  0.75000  0.25000  1.0000
  Ni  Ni3       1.0  0.01810  0.51800  0.25000  1.0000
  Ni  Ni4       1.0  0.98200  0.48200  0.75000  1.0000
  Ni  Ni5       1.0  0.51800  0.25000  0.75000  1.0000
  Ni  Ni6       1.0  0.75000  0.01810  0.75000  1.0000
