data_image0
_chemical_formula_structural       Bi2Cr2O6
_chemical_formula_sum              "Bi2 Cr2 O6"
_cell_length_a       5.51147
_cell_length_b       5.51147
_cell_length_c       5.51147
_cell_angle_alpha    60.4556
_cell_angle_beta     60.4556
_cell_angle_gamma    60.4556

_space_group_name_H-M_alt    "P 1"
_space_group_IT_number       1

loop_
  _space_group_symop_operation_xyz
  'x, y, z'

loop_
  _atom_site_type_symbol
  _atom_site_label
  _atom_site_symmetry_multiplicity
  _atom_site_fract_x
  _atom_site_fract_y
  _atom_site_fract_z
  _atom_site_occupancy
  Bi  Bi1       1.0  0.00083  0.00083  0.00083  1.0000
  Bi  Bi2       1.0  0.50100  0.50100  0.50100  1.0000
  Cr  Cr1       1.0  0.22900  0.22900  0.22900  1.0000
  Cr  Cr2       1.0  0.72900  0.72900  0.72900  1.0000
  O   O1        1.0  0.90200  0.45000  0.05150  1.0000
  O   O2        1.0  0.55200  0.95000  0.40200  1.0000
  O   O3        1.0  0.05150  0.90200  0.45000  1.0000
  O   O4        1.0  0.95000  0.40200  0.55200  1.0000
  O   O5        1.0  0.45000  0.05150  0.90200  1.0000
  O   O6        1.0  0.40200  0.55200  0.95000  1.0000
