data_image0
_chemical_formula_structural       Gd8P8S8
_chemical_formula_sum              "Gd8 P8 S8"
_cell_length_a       5.36975
_cell_length_b       5.41537
_cell_length_c       16.8375
_cell_angle_alpha    90
_cell_angle_beta     90
_cell_angle_gamma    90

_space_group_name_H-M_alt    "P 1"
_space_group_IT_number       1

loop_
  _space_group_symop_operation_xyz
  'x, y, z'

loop_
  _atom_site_type_symbol
  _atom_site_label
  _atom_site_symmetry_multiplicity
  _atom_site_fract_x
  _atom_site_fract_y
  _atom_site_fract_z
  _atom_site_occupancy
  Gd  Gd1       1.0  0.25000  0.01600  0.13800  1.0000
  Gd  Gd2       1.0  0.75000  0.51500  0.14600  1.0000
  Gd  Gd3       1.0  0.75000  0.01480  0.35400  1.0000
  Gd  Gd4       1.0  0.25000  0.51600  0.36200  1.0000
  Gd  Gd5       1.0  0.75000  0.48400  0.63800  1.0000
  Gd  Gd6       1.0  0.25000  0.98500  0.64600  1.0000
  Gd  Gd7       1.0  0.25000  0.48500  0.85400  1.0000
  Gd  Gd8       1.0  0.75000  0.98400  0.86200  1.0000
  P   P1        1.0  0.53800  0.29600  0.00267  1.0000
  P   P2        1.0  0.96200  0.29600  0.00267  1.0000
  P   P3        1.0  0.53800  0.79600  0.49700  1.0000
  P   P4        1.0  0.96200  0.79600  0.49700  1.0000
  P   P5        1.0  0.03810  0.20400  0.50300  1.0000
  P   P6        1.0  0.46200  0.20400  0.50300  1.0000
  P   P7        1.0  0.03810  0.70400  0.99700  1.0000
  P   P8        1.0  0.46200  0.70400  0.99700  1.0000
  S   S1        1.0  0.75000  0.01160  0.18400  1.0000
  S   S2        1.0  0.25000  0.51500  0.18900  1.0000
  S   S3        1.0  0.25000  0.01500  0.31100  1.0000
  S   S4        1.0  0.75000  0.51200  0.31600  1.0000
  S   S5        1.0  0.25000  0.48800  0.68400  1.0000
  S   S6        1.0  0.75000  0.98500  0.68900  1.0000
  S   S7        1.0  0.75000  0.48500  0.81100  1.0000
  S   S8        1.0  0.25000  0.98800  0.81600  1.0000
