data_image0
_chemical_formula_structural       Fe6O14Yb4
_chemical_formula_sum              "Fe6 O14 Yb4"
_cell_length_a       3.45471
_cell_length_b       3.4547
_cell_length_c       28.1627
_cell_angle_alpha    90
_cell_angle_beta     90
_cell_angle_gamma    120

_space_group_name_H-M_alt    "P 1"
_space_group_IT_number       1

loop_
  _space_group_symop_operation_xyz
  'x, y, z'

loop_
  _atom_site_type_symbol
  _atom_site_label
  _atom_site_symmetry_multiplicity
  _atom_site_fract_x
  _atom_site_fract_y
  _atom_site_fract_z
  _atom_site_occupancy
  Fe  Fe1       1.0  0.66700  0.33300  0.04480  1.0000
  Fe  Fe2       1.0  0.00000  0.00000  0.25000  1.0000
  Fe  Fe3       1.0  0.66700  0.33300  0.45500  1.0000
  Fe  Fe4       1.0  0.33300  0.66700  0.54500  1.0000
  Fe  Fe5       1.0  0.00000  0.00000  0.75000  1.0000
  Fe  Fe6       1.0  0.33300  0.66700  0.95500  1.0000
  O   O1        1.0  0.33300  0.66700  0.03210  1.0000
  O   O2        1.0  0.66700  0.33300  0.10800  1.0000
  O   O3        1.0  0.00000  0.00000  0.18700  1.0000
  O   O4        1.0  0.33300  0.66700  0.25000  1.0000
  O   O5        1.0  0.00000  0.00000  0.31300  1.0000
  O   O6        1.0  0.66700  0.33300  0.39200  1.0000
  O   O7        1.0  0.33300  0.66700  0.46800  1.0000
  O   O8        1.0  0.66700  0.33300  0.53200  1.0000
  O   O9        1.0  0.33300  0.66700  0.60800  1.0000
  O   O10       1.0  0.00000  0.00000  0.68700  1.0000
  O   O11       1.0  0.66700  0.33300  0.75000  1.0000
  O   O12       1.0  0.00000  0.00000  0.81300  1.0000
  O   O13       1.0  0.33300  0.66700  0.89200  1.0000
  O   O14       1.0  0.66700  0.33300  0.96800  1.0000
  Yb  Yb1       1.0  0.33300  0.66700  0.15000  1.0000
  Yb  Yb2       1.0  0.33300  0.66700  0.35000  1.0000
  Yb  Yb3       1.0  0.66700  0.33300  0.65000  1.0000
  Yb  Yb4       1.0  0.66700  0.33300  0.85000  1.0000
