data_image0
_chemical_formula_structural       La2O8V2
_chemical_formula_sum              "La2 O8 V2"
_cell_length_a       6.18267
_cell_length_b       6.18267
_cell_length_c       6.18267
_cell_angle_alpha    106.204
_cell_angle_beta     116.224
_cell_angle_gamma    106.204

_space_group_name_H-M_alt    "P 1"
_space_group_IT_number       1

loop_
  _space_group_symop_operation_xyz
  'x, y, z'

loop_
  _atom_site_type_symbol
  _atom_site_label
  _atom_site_symmetry_multiplicity
  _atom_site_fract_x
  _atom_site_fract_y
  _atom_site_fract_z
  _atom_site_occupancy
  La  La1       1.0  0.87500  0.75000  0.12500  1.0000
  La  La2       1.0  0.12500  0.25000  0.87500  1.0000
  O   O1        1.0  0.27700  0.07050  0.20600  1.0000
  O   O2        1.0  0.63500  0.42900  0.20600  1.0000
  O   O3        1.0  0.20600  0.57100  0.27700  1.0000
  O   O4        1.0  0.79400  0.07050  0.36400  1.0000
  O   O5        1.0  0.20600  0.92900  0.63500  1.0000
  O   O6        1.0  0.79400  0.42900  0.72300  1.0000
  O   O7        1.0  0.36500  0.57100  0.79400  1.0000
  O   O8        1.0  0.72300  0.92900  0.79400  1.0000
  V   V1        1.0  0.62500  0.25000  0.37500  1.0000
  V   V2        1.0  0.37500  0.75000  0.62500  1.0000
