data_image0
_chemical_formula_structural       Ag4I12K8
_chemical_formula_sum              "Ag4 I12 K8"
_cell_length_a       10.1557
_cell_length_b       4.83277
_cell_length_c       19.7117
_cell_angle_alpha    90
_cell_angle_beta     90
_cell_angle_gamma    90

_space_group_name_H-M_alt    "P 1"
_space_group_IT_number       1

loop_
  _space_group_symop_operation_xyz
  'x, y, z'

loop_
  _atom_site_type_symbol
  _atom_site_label
  _atom_site_symmetry_multiplicity
  _atom_site_fract_x
  _atom_site_fract_y
  _atom_site_fract_z
  _atom_site_occupancy
  Ag  Ag1       1.0  0.12900  0.75000  0.13500  1.0000
  Ag  Ag2       1.0  0.62900  0.75000  0.36500  1.0000
  Ag  Ag3       1.0  0.37100  0.25000  0.63500  1.0000
  Ag  Ag4       1.0  0.87100  0.25000  0.86500  1.0000
  I   I1        1.0  0.38100  0.75000  0.07050  1.0000
  I   I2        1.0  0.99000  0.25000  0.09910  1.0000
  I   I3        1.0  0.68800  0.75000  0.22200  1.0000
  I   I4        1.0  0.18800  0.75000  0.27800  1.0000
  I   I5        1.0  0.49000  0.25000  0.40100  1.0000
  I   I6        1.0  0.88100  0.75000  0.42900  1.0000
  I   I7        1.0  0.11900  0.25000  0.57100  1.0000
  I   I8        1.0  0.51000  0.75000  0.59900  1.0000
  I   I9        1.0  0.81200  0.25000  0.72200  1.0000
  I   I10       1.0  0.31200  0.25000  0.77800  1.0000
  I   I11       1.0  0.00958  0.75000  0.90100  1.0000
  I   I12       1.0  0.61900  0.25000  0.92900  1.0000
  K   K1        1.0  0.74900  0.75000  0.03960  1.0000
  K   K2        1.0  0.42200  0.25000  0.21300  1.0000
  K   K3        1.0  0.92200  0.25000  0.28700  1.0000
  K   K4        1.0  0.24900  0.75000  0.46000  1.0000
  K   K5        1.0  0.75100  0.25000  0.54000  1.0000
  K   K6        1.0  0.07800  0.75000  0.71300  1.0000
  K   K7        1.0  0.57800  0.75000  0.78700  1.0000
  K   K8        1.0  0.25100  0.25000  0.96000  1.0000
