data_image0
_chemical_formula_structural       Cu6Ge3S12Sr3
_chemical_formula_sum              "Cu6 Ge3 S12 Sr3"
_cell_length_a       6.16882
_cell_length_b       6.16882
_cell_length_c       15.2931
_cell_angle_alpha    90
_cell_angle_beta     90
_cell_angle_gamma    120

_space_group_name_H-M_alt    "P 1"
_space_group_IT_number       1

loop_
  _space_group_symop_operation_xyz
  'x, y, z'

loop_
  _atom_site_type_symbol
  _atom_site_label
  _atom_site_symmetry_multiplicity
  _atom_site_fract_x
  _atom_site_fract_y
  _atom_site_fract_z
  _atom_site_occupancy
  Cu  Cu1       1.0  0.41000  0.32100  0.17200  1.0000
  Cu  Cu2       1.0  0.75500  0.01140  0.32700  1.0000
  Cu  Cu3       1.0  0.91100  0.59000  0.50500  1.0000
  Cu  Cu4       1.0  0.25600  0.24500  0.66100  1.0000
  Cu  Cu5       1.0  0.67900  0.08950  0.83900  1.0000
  Cu  Cu6       1.0  0.98900  0.74400  0.99400  1.0000
  Ge  Ge1       1.0  0.04710  0.66600  0.25000  1.0000
  Ge  Ge2       1.0  0.61900  0.95300  0.58300  1.0000
  Ge  Ge3       1.0  0.33400  0.38100  0.91600  1.0000
  S   S1        1.0  0.29800  0.13900  0.03160  1.0000
  S   S2        1.0  0.80600  0.63000  0.13400  1.0000
  S   S3        1.0  0.43600  0.00292  0.24700  1.0000
  S   S4        1.0  0.09970  0.32900  0.25200  1.0000
  S   S5        1.0  0.84100  0.70200  0.36500  1.0000
  S   S6        1.0  0.82500  0.19400  0.46700  1.0000
  S   S7        1.0  0.56700  0.56400  0.58100  1.0000
  S   S8        1.0  0.23000  0.90000  0.58500  1.0000
  S   S9        1.0  0.86100  0.15900  0.69800  1.0000
  S   S10       1.0  0.37000  0.17500  0.80100  1.0000
  S   S11       1.0  0.99700  0.43300  0.91400  1.0000
  S   S12       1.0  0.67100  0.77000  0.91800  1.0000
  Sr  Sr1       1.0  0.78100  0.11400  0.08290  1.0000
  Sr  Sr2       1.0  0.33300  0.21900  0.41600  1.0000
  Sr  Sr3       1.0  0.88600  0.66700  0.75000  1.0000
