data_image0
_chemical_formula_structural       O16Sn4W4
_chemical_formula_sum              "O16 Sn4 W4"
_cell_length_a       7.22943
_cell_length_b       7.22943
_cell_length_c       7.22943
_cell_angle_alpha    90
_cell_angle_beta     90
_cell_angle_gamma    90

_space_group_name_H-M_alt    "P 1"
_space_group_IT_number       1

loop_
  _space_group_symop_operation_xyz
  'x, y, z'

loop_
  _atom_site_type_symbol
  _atom_site_label
  _atom_site_symmetry_multiplicity
  _atom_site_fract_x
  _atom_site_fract_y
  _atom_site_fract_z
  _atom_site_occupancy
  O   O1        1.0  0.63000  0.21700  0.05070  1.0000
  O   O2        1.0  0.28300  0.94900  0.13000  1.0000
  O   O3        1.0  0.69200  0.80800  0.19200  1.0000
  O   O4        1.0  0.05070  0.63000  0.21700  1.0000
  O   O5        1.0  0.94900  0.13000  0.28300  1.0000
  O   O6        1.0  0.30800  0.30800  0.30800  1.0000
  O   O7        1.0  0.71700  0.44900  0.37000  1.0000
  O   O8        1.0  0.37000  0.71700  0.44900  1.0000
  O   O9        1.0  0.87000  0.78300  0.55100  1.0000
  O   O10       1.0  0.21700  0.05070  0.63000  1.0000
  O   O11       1.0  0.80800  0.19200  0.69200  1.0000
  O   O12       1.0  0.44900  0.37000  0.71700  1.0000
  O   O13       1.0  0.55100  0.87000  0.78300  1.0000
  O   O14       1.0  0.19200  0.69200  0.80800  1.0000
  O   O15       1.0  0.78300  0.55100  0.87000  1.0000
  O   O16       1.0  0.13000  0.28300  0.94900  1.0000
  Sn  Sn1       1.0  0.35000  0.65000  0.15000  1.0000
  Sn  Sn2       1.0  0.65000  0.15000  0.35000  1.0000
  Sn  Sn3       1.0  0.15000  0.35000  0.65000  1.0000
  Sn  Sn4       1.0  0.85000  0.85000  0.85000  1.0000
  W   W1        1.0  0.16500  0.16500  0.16500  1.0000
  W   W2        1.0  0.83500  0.66500  0.33500  1.0000
  W   W3        1.0  0.33500  0.83500  0.66500  1.0000
  W   W4        1.0  0.66500  0.33500  0.83500  1.0000
