data_image0
_chemical_formula_structural       B8C8Th8
_chemical_formula_sum              "B8 C8 Th8"
_cell_length_a       3.77673
_cell_length_b       3.77673
_cell_length_c       25.2891
_cell_angle_alpha    90
_cell_angle_beta     90
_cell_angle_gamma    90

_space_group_name_H-M_alt    "P 1"
_space_group_IT_number       1

loop_
  _space_group_symop_operation_xyz
  'x, y, z'

loop_
  _atom_site_type_symbol
  _atom_site_label
  _atom_site_symmetry_multiplicity
  _atom_site_fract_x
  _atom_site_fract_y
  _atom_site_fract_z
  _atom_site_occupancy
  B   B1        1.0  0.15700  0.29300  0.02270  1.0000
  B   B2        1.0  0.70700  0.84300  0.22700  1.0000
  B   B3        1.0  0.70700  0.15700  0.27300  1.0000
  B   B4        1.0  0.15700  0.70700  0.47700  1.0000
  B   B5        1.0  0.84300  0.70700  0.52300  1.0000
  B   B6        1.0  0.29300  0.15700  0.72700  1.0000
  B   B7        1.0  0.29300  0.84300  0.77300  1.0000
  B   B8        1.0  0.84300  0.29300  0.97700  1.0000
  C   C1        1.0  0.20200  0.30400  0.08160  1.0000
  C   C2        1.0  0.69600  0.79800  0.16800  1.0000
  C   C3        1.0  0.69600  0.20200  0.33200  1.0000
  C   C4        1.0  0.20200  0.69600  0.41800  1.0000
  C   C5        1.0  0.79800  0.69600  0.58200  1.0000
  C   C6        1.0  0.30400  0.20200  0.66800  1.0000
  C   C7        1.0  0.30400  0.79800  0.83200  1.0000
  C   C8        1.0  0.79800  0.30400  0.91800  1.0000
  Th  Th1       1.0  0.69500  0.79700  0.07050  1.0000
  Th  Th2       1.0  0.20300  0.30500  0.18000  1.0000
  Th  Th3       1.0  0.20300  0.69500  0.32000  1.0000
  Th  Th4       1.0  0.69500  0.20300  0.43000  1.0000
  Th  Th5       1.0  0.30500  0.20300  0.57000  1.0000
  Th  Th6       1.0  0.79700  0.69500  0.68000  1.0000
  Th  Th7       1.0  0.79700  0.30500  0.82000  1.0000
  Th  Th8       1.0  0.30500  0.79700  0.93000  1.0000
