data_image0
_chemical_formula_structural       Be8P16
_chemical_formula_sum              "Be8 P16"
_cell_length_a       7.10301
_cell_length_b       7.10302
_cell_length_c       7.92881
_cell_angle_alpha    102.91
_cell_angle_beta     77.0898
_cell_angle_gamma    90.001

_space_group_name_H-M_alt    "P 1"
_space_group_IT_number       1

loop_
  _space_group_symop_operation_xyz
  'x, y, z'

loop_
  _atom_site_type_symbol
  _atom_site_label
  _atom_site_symmetry_multiplicity
  _atom_site_fract_x
  _atom_site_fract_y
  _atom_site_fract_z
  _atom_site_occupancy
  Be  Be1       1.0  0.45900  0.29300  0.17300  1.0000
  Be  Be2       1.0  0.95300  0.29300  0.17700  1.0000
  Be  Be3       1.0  0.17200  0.83200  0.32300  1.0000
  Be  Be4       1.0  0.66600  0.83200  0.32700  1.0000
  Be  Be5       1.0  0.83200  0.66600  0.67300  1.0000
  Be  Be6       1.0  0.83200  0.17200  0.67700  1.0000
  Be  Be7       1.0  0.29300  0.95300  0.82300  1.0000
  Be  Be8       1.0  0.29300  0.45900  0.82700  1.0000
  P   P1        1.0  0.00548  0.00548  0.00000  1.0000
  P   P2        1.0  0.49500  0.49500  0.00000  1.0000
  P   P3        1.0  0.00485  0.49600  0.00279  1.0000
  P   P4        1.0  0.46000  0.79300  0.16700  1.0000
  P   P5        1.0  0.95500  0.79400  0.17100  1.0000
  P   P6        1.0  0.17000  0.33100  0.32900  1.0000
  P   P7        1.0  0.66500  0.33200  0.33300  1.0000
  P   P8        1.0  0.12000  0.62900  0.49700  1.0000
  P   P9        1.0  0.63000  0.63000  0.50000  1.0000
  P   P10       1.0  0.12000  0.12000  0.50000  1.0000
  P   P11       1.0  0.62900  0.12000  0.50300  1.0000
  P   P12       1.0  0.33200  0.66500  0.66700  1.0000
  P   P13       1.0  0.33100  0.17000  0.67100  1.0000
  P   P14       1.0  0.79400  0.95500  0.82900  1.0000
  P   P15       1.0  0.79300  0.46000  0.83300  1.0000
  P   P16       1.0  0.49500  0.00485  0.99700  1.0000
