data_image0
_chemical_formula_structural       Cs4O16Tc4
_chemical_formula_sum              "Cs4 O16 Tc4"
_cell_length_a       5.64879
_cell_length_b       5.83224
_cell_length_c       14.2183
_cell_angle_alpha    90
_cell_angle_beta     90
_cell_angle_gamma    90

_space_group_name_H-M_alt    "P 1"
_space_group_IT_number       1

loop_
  _space_group_symop_operation_xyz
  'x, y, z'

loop_
  _atom_site_type_symbol
  _atom_site_label
  _atom_site_symmetry_multiplicity
  _atom_site_fract_x
  _atom_site_fract_y
  _atom_site_fract_z
  _atom_site_occupancy
  Cs  Cs1       1.0  0.02780  0.25000  0.12600  1.0000
  Cs  Cs2       1.0  0.52800  0.25000  0.37400  1.0000
  Cs  Cs3       1.0  0.47200  0.75000  0.62600  1.0000
  Cs  Cs4       1.0  0.97200  0.75000  0.87400  1.0000
  O   O1        1.0  0.33800  0.75000  0.02860  1.0000
  O   O2        1.0  0.82600  0.75000  0.07920  1.0000
  O   O3        1.0  0.49300  0.50600  0.19000  1.0000
  O   O4        1.0  0.49300  0.99400  0.19000  1.0000
  O   O5        1.0  0.99300  0.50600  0.31000  1.0000
  O   O6        1.0  0.99300  0.99400  0.31000  1.0000
  O   O7        1.0  0.32600  0.75000  0.42100  1.0000
  O   O8        1.0  0.83800  0.75000  0.47100  1.0000
  O   O9        1.0  0.16200  0.25000  0.52900  1.0000
  O   O10       1.0  0.67400  0.25000  0.57900  1.0000
  O   O11       1.0  0.00735  0.00646  0.69000  1.0000
  O   O12       1.0  0.00735  0.49400  0.69000  1.0000
  O   O13       1.0  0.50700  0.00646  0.81000  1.0000
  O   O14       1.0  0.50700  0.49400  0.81000  1.0000
  O   O15       1.0  0.17400  0.25000  0.92100  1.0000
  O   O16       1.0  0.66200  0.25000  0.97100  1.0000
  Tc  Tc1       1.0  0.53700  0.75000  0.12200  1.0000
  Tc  Tc2       1.0  0.03680  0.75000  0.37800  1.0000
  Tc  Tc3       1.0  0.96300  0.25000  0.62200  1.0000
  Tc  Tc4       1.0  0.46300  0.25000  0.87800  1.0000
