data_image0
_chemical_formula_structural       Er3Si5
_chemical_formula_sum              "Er3 Si5"
_cell_length_a       4.1449
_cell_length_b       6.52133
_cell_length_c       6.52133
_cell_angle_alpha    59.9464
_cell_angle_beta     90
_cell_angle_gamma    90

_space_group_name_H-M_alt    "P 1"
_space_group_IT_number       1

loop_
  _space_group_symop_operation_xyz
  'x, y, z'

loop_
  _atom_site_type_symbol
  _atom_site_label
  _atom_site_symmetry_multiplicity
  _atom_site_fract_x
  _atom_site_fract_y
  _atom_site_fract_z
  _atom_site_occupancy
  Er  Er1       1.0  0.00000  0.30800  0.33600  1.0000
  Er  Er2       1.0  0.00000  0.66400  0.69200  1.0000
  Er  Er3       1.0  0.00000  0.01960  0.98000  1.0000
  Si  Si1       1.0  0.50000  0.33000  0.00345  1.0000
  Si  Si2       1.0  0.50000  0.66300  0.07360  1.0000
  Si  Si3       1.0  0.50000  0.92600  0.33700  1.0000
  Si  Si4       1.0  0.50000  0.40000  0.60000  1.0000
  Si  Si5       1.0  0.50000  0.99700  0.67000  1.0000
