data_image0
_chemical_formula_structural       Ge2HLi4
_chemical_formula_sum              "Ge2 H1 Li4"
_cell_length_a       3.86527
_cell_length_b       4.11185
_cell_length_c       6.15273
_cell_angle_alpha    90
_cell_angle_beta     71.6929
_cell_angle_gamma    90

_space_group_name_H-M_alt    "P 1"
_space_group_IT_number       1

loop_
  _space_group_symop_operation_xyz
  'x, y, z'

loop_
  _atom_site_type_symbol
  _atom_site_label
  _atom_site_symmetry_multiplicity
  _atom_site_fract_x
  _atom_site_fract_y
  _atom_site_fract_z
  _atom_site_occupancy
  Ge  Ge1       1.0  0.32200  0.00000  0.35700  1.0000
  Ge  Ge2       1.0  0.67800  0.00000  0.64300  1.0000
  H   H1        1.0  0.00000  0.50000  0.00000  1.0000
  Li  Li1       1.0  0.00000  0.00000  0.00000  1.0000
  Li  Li2       1.0  0.50000  0.50000  0.00000  1.0000
  Li  Li3       1.0  0.83100  0.50000  0.33700  1.0000
  Li  Li4       1.0  0.16900  0.50000  0.66300  1.0000
