data_image0
_chemical_formula_structural       Ni3Sr2
_chemical_formula_sum              "Ni3 Sr2"
_cell_length_a       4.09682
_cell_length_b       4.0968
_cell_length_c       8.61073
_cell_angle_alpha    90
_cell_angle_beta     90.0001
_cell_angle_gamma    120

_space_group_name_H-M_alt    "P 1"
_space_group_IT_number       1

loop_
  _space_group_symop_operation_xyz
  'x, y, z'

loop_
  _atom_site_type_symbol
  _atom_site_label
  _atom_site_symmetry_multiplicity
  _atom_site_fract_x
  _atom_site_fract_y
  _atom_site_fract_z
  _atom_site_occupancy
  Ni  Ni1       1.0  0.00000  0.00000  0.00000  1.0000
  Ni  Ni2       1.0  0.33300  0.66700  0.04180  1.0000
  Ni  Ni3       1.0  0.66700  0.33300  0.95800  1.0000
  Sr  Sr1       1.0  0.66700  0.33300  0.28200  1.0000
  Sr  Sr2       1.0  0.33300  0.66700  0.71800  1.0000
