data_image0
_chemical_formula_structural       AuIn3Sr
_chemical_formula_sum              "Au1 In3 Sr1"
_cell_length_a       4.60808
_cell_length_b       4.60808
_cell_length_c       7.08105
_cell_angle_alpha    108.989
_cell_angle_beta     108.989
_cell_angle_gamma    90

_space_group_name_H-M_alt    "P 1"
_space_group_IT_number       1

loop_
  _space_group_symop_operation_xyz
  'x, y, z'

loop_
  _atom_site_type_symbol
  _atom_site_label
  _atom_site_symmetry_multiplicity
  _atom_site_fract_x
  _atom_site_fract_y
  _atom_site_fract_z
  _atom_site_occupancy
  Au  Au1       1.0  0.40100  0.40100  0.80300  1.0000
  In  In1       1.0  0.61700  0.61700  0.23300  1.0000
  In  In2       1.0  0.76800  0.26800  0.53600  1.0000
  In  In3       1.0  0.26800  0.76800  0.53600  1.0000
  Sr  Sr1       1.0  0.00452  0.00452  0.00905  1.0000
