data_image0
_chemical_formula_structural       LiNaO2Zn
_chemical_formula_sum              "Li1 Na1 O2 Zn1"
_cell_length_a       3.28797
_cell_length_b       3.28799
_cell_length_c       5.7781
_cell_angle_alpha    90
_cell_angle_beta     90.0003
_cell_angle_gamma    120

_space_group_name_H-M_alt    "P 1"
_space_group_IT_number       1

loop_
  _space_group_symop_operation_xyz
  'x, y, z'

loop_
  _atom_site_type_symbol
  _atom_site_label
  _atom_site_symmetry_multiplicity
  _atom_site_fract_x
  _atom_site_fract_y
  _atom_site_fract_z
  _atom_site_occupancy
  Li  Li1       1.0  0.00000  0.00000  0.96900  1.0000
  Na  Na1       1.0  0.66700  0.33300  0.66100  1.0000
  O   O1        1.0  0.00000  0.00000  0.38100  1.0000
  O   O2        1.0  0.33300  0.66700  0.91800  1.0000
  Zn  Zn1       1.0  0.33300  0.66700  0.26000  1.0000
