data_image0
_chemical_formula_structural       CrSe4V2
_chemical_formula_sum              "Cr1 Se4 V2"
_cell_length_a       3.42783
_cell_length_b       6.16198
_cell_length_c       6.81441
_cell_angle_alpha    114.972
_cell_angle_beta     104.567
_cell_angle_gamma    90

_space_group_name_H-M_alt    "P 1"
_space_group_IT_number       1

loop_
  _space_group_symop_operation_xyz
  'x, y, z'

loop_
  _atom_site_type_symbol
  _atom_site_label
  _atom_site_symmetry_multiplicity
  _atom_site_fract_x
  _atom_site_fract_y
  _atom_site_fract_z
  _atom_site_occupancy
  Cr  Cr1       1.0  0.00000  0.00000  0.00000  1.0000
  Se  Se1       1.0  0.10700  0.45400  0.21400  1.0000
  Se  Se2       1.0  0.64100  0.98100  0.28200  1.0000
  Se  Se3       1.0  0.35900  0.01940  0.71800  1.0000
  Se  Se4       1.0  0.89300  0.54600  0.78600  1.0000
  V   V1        1.0  0.74400  0.67900  0.48900  1.0000
  V   V2        1.0  0.25600  0.32100  0.51100  1.0000
