data_image0
_chemical_formula_structural       Cr2NiSe4
_chemical_formula_sum              "Cr2 Ni1 Se4"
_cell_length_a       3.61073
_cell_length_b       6.27832
_cell_length_c       6.6157
_cell_angle_alpha    116.727
_cell_angle_beta     105.836
_cell_angle_gamma    90

_space_group_name_H-M_alt    "P 1"
_space_group_IT_number       1

loop_
  _space_group_symop_operation_xyz
  'x, y, z'

loop_
  _atom_site_type_symbol
  _atom_site_label
  _atom_site_symmetry_multiplicity
  _atom_site_fract_x
  _atom_site_fract_y
  _atom_site_fract_z
  _atom_site_occupancy
  Cr  Cr1       1.0  0.74100  0.72100  0.48300  1.0000
  Cr  Cr2       1.0  0.25900  0.27900  0.51700  1.0000
  Ni  Ni1       1.0  0.00000  0.00000  0.00000  1.0000
  Se  Se1       1.0  0.11700  0.45000  0.23500  1.0000
  Se  Se2       1.0  0.63200  0.97300  0.26400  1.0000
  Se  Se3       1.0  0.36800  0.02720  0.73600  1.0000
  Se  Se4       1.0  0.88300  0.55000  0.76500  1.0000
