data_image0
_chemical_formula_structural       Cr2Se4V
_chemical_formula_sum              "Cr2 Se4 V1"
_cell_length_a       3.59391
_cell_length_b       6.42296
_cell_length_c       6.78447
_cell_angle_alpha    62.2307
_cell_angle_beta     105.359
_cell_angle_gamma    90

_space_group_name_H-M_alt    "P 1"
_space_group_IT_number       1

loop_
  _space_group_symop_operation_xyz
  'x, y, z'

loop_
  _atom_site_type_symbol
  _atom_site_label
  _atom_site_symmetry_multiplicity
  _atom_site_fract_x
  _atom_site_fract_y
  _atom_site_fract_z
  _atom_site_occupancy
  Cr  Cr1       1.0  0.74400  0.27500  0.48800  1.0000
  Cr  Cr2       1.0  0.25600  0.72500  0.51200  1.0000
  Se  Se1       1.0  0.12100  0.55100  0.24200  1.0000
  Se  Se2       1.0  0.63100  0.03350  0.26200  1.0000
  Se  Se3       1.0  0.36900  0.96700  0.73800  1.0000
  Se  Se4       1.0  0.87900  0.44900  0.75800  1.0000
  V   V1        1.0  0.00000  0.00000  0.00000  1.0000
