data_image0
_chemical_formula_structural       CrSe4Ti2
_chemical_formula_sum              "Cr1 Se4 Ti2"
_cell_length_a       3.56058
_cell_length_b       6.2925
_cell_length_c       6.96134
_cell_angle_alpha    64.3536
_cell_angle_beta     104.817
_cell_angle_gamma    90

_space_group_name_H-M_alt    "P 1"
_space_group_IT_number       1

loop_
  _space_group_symop_operation_xyz
  'x, y, z'

loop_
  _atom_site_type_symbol
  _atom_site_label
  _atom_site_symmetry_multiplicity
  _atom_site_fract_x
  _atom_site_fract_y
  _atom_site_fract_z
  _atom_site_occupancy
  Cr  Cr1       1.0  0.00000  0.00000  0.00000  1.0000
  Se  Se1       1.0  0.11300  0.55000  0.22600  1.0000
  Se  Se2       1.0  0.63000  0.03390  0.26000  1.0000
  Se  Se3       1.0  0.37000  0.96600  0.74000  1.0000
  Se  Se4       1.0  0.88700  0.45000  0.77400  1.0000
  Ti  Ti1       1.0  0.74700  0.28500  0.49300  1.0000
  Ti  Ti2       1.0  0.25300  0.71500  0.50700  1.0000
