data_image0
_chemical_formula_structural       BaGeHIn
_chemical_formula_sum              "Ba1 Ge1 H1 In1"
_cell_length_a       4.5788
_cell_length_b       4.57883
_cell_length_c       5.3153
_cell_angle_alpha    90
_cell_angle_beta     89.9998
_cell_angle_gamma    120

_space_group_name_H-M_alt    "P 1"
_space_group_IT_number       1

loop_
  _space_group_symop_operation_xyz
  'x, y, z'

loop_
  _atom_site_type_symbol
  _atom_site_label
  _atom_site_symmetry_multiplicity
  _atom_site_fract_x
  _atom_site_fract_y
  _atom_site_fract_z
  _atom_site_occupancy
  Ba  Ba1       1.0  0.00000  0.00000  0.02190  1.0000
  Ge  Ge1       1.0  0.33300  0.66700  0.44500  1.0000
  H   H1        1.0  0.66700  0.33300  0.93300  1.0000
  In  In1       1.0  0.66700  0.33300  0.56200  1.0000
