data_image0
_chemical_formula_structural       Er2Ni2Pb
_chemical_formula_sum              "Er2 Ni2 Pb1"
_cell_length_a       3.60478
_cell_length_b       3.99019
_cell_length_c       7.36703
_cell_angle_alpha    74.2873
_cell_angle_beta     90
_cell_angle_gamma    90

_space_group_name_H-M_alt    "P 1"
_space_group_IT_number       1

loop_
  _space_group_symop_operation_xyz
  'x, y, z'

loop_
  _atom_site_type_symbol
  _atom_site_label
  _atom_site_symmetry_multiplicity
  _atom_site_fract_x
  _atom_site_fract_y
  _atom_site_fract_z
  _atom_site_occupancy
  Er  Er1       1.0  0.50000  0.35900  0.28200  1.0000
  Er  Er2       1.0  0.50000  0.64100  0.71800  1.0000
  Ni  Ni1       1.0  0.00000  0.80000  0.40100  1.0000
  Ni  Ni2       1.0  0.00000  0.20000  0.59900  1.0000
  Pb  Pb1       1.0  0.00000  0.00000  0.00000  1.0000
