data_image0
_chemical_formula_structural       CeGa3Pt
_chemical_formula_sum              "Ce1 Ga3 Pt1"
_cell_length_a       4.37678
_cell_length_b       4.37678
_cell_length_c       6.12057
_cell_angle_alpha    110.939
_cell_angle_beta     110.939
_cell_angle_gamma    90.0277

_space_group_name_H-M_alt    "P 1"
_space_group_IT_number       1

loop_
  _space_group_symop_operation_xyz
  'x, y, z'

loop_
  _atom_site_type_symbol
  _atom_site_label
  _atom_site_symmetry_multiplicity
  _atom_site_fract_x
  _atom_site_fract_y
  _atom_site_fract_z
  _atom_site_occupancy
  Ce  Ce1       1.0  0.01920  0.01920  0.03840  1.0000
  Ga  Ga1       1.0  0.61100  0.61100  0.22200  1.0000
  Ga  Ga2       1.0  0.76100  0.26100  0.52200  1.0000
  Ga  Ga3       1.0  0.26100  0.76100  0.52200  1.0000
  Pt  Pt1       1.0  0.37800  0.37800  0.75500  1.0000
