data_image0
_chemical_formula_structural       Br2Gd2Ge
_chemical_formula_sum              "Br2 Gd2 Ge1"
_cell_length_a       4.18386
_cell_length_b       4.1839
_cell_length_c       10.19
_cell_angle_alpha    90
_cell_angle_beta     89.9991
_cell_angle_gamma    120

_space_group_name_H-M_alt    "P 1"
_space_group_IT_number       1

loop_
  _space_group_symop_operation_xyz
  'x, y, z'

loop_
  _atom_site_type_symbol
  _atom_site_label
  _atom_site_symmetry_multiplicity
  _atom_site_fract_x
  _atom_site_fract_y
  _atom_site_fract_z
  _atom_site_occupancy
  Br  Br1       1.0  0.66700  0.33300  0.33100  1.0000
  Br  Br2       1.0  0.33300  0.66700  0.66900  1.0000
  Gd  Gd1       1.0  0.33300  0.66700  0.15900  1.0000
  Gd  Gd2       1.0  0.66700  0.33300  0.84100  1.0000
  Ge  Ge1       1.0  0.00000  0.00000  0.00000  1.0000
