data_image0
_chemical_formula_structural       Si4Zr2
_chemical_formula_sum              "Si4 Zr2"
_cell_length_a       3.67967
_cell_length_b       3.70373
_cell_length_c       7.62426
_cell_angle_alpha    75.9428
_cell_angle_beta     90
_cell_angle_gamma    90

_space_group_name_H-M_alt    "P 1"
_space_group_IT_number       1

loop_
  _space_group_symop_operation_xyz
  'x, y, z'

loop_
  _atom_site_type_symbol
  _atom_site_label
  _atom_site_symmetry_multiplicity
  _atom_site_fract_x
  _atom_site_fract_y
  _atom_site_fract_z
  _atom_site_occupancy
  Si  Si1       1.0  0.75000  0.44700  0.10600  1.0000
  Si  Si2       1.0  0.25000  0.25000  0.49900  1.0000
  Si  Si3       1.0  0.75000  0.75000  0.50100  1.0000
  Si  Si4       1.0  0.25000  0.55300  0.89400  1.0000
  Zr  Zr1       1.0  0.25000  0.89500  0.21100  1.0000
  Zr  Zr2       1.0  0.75000  0.10500  0.78900  1.0000
