data_image0
_chemical_formula_structural       HLi4Si2
_chemical_formula_sum              "H1 Li4 Si2"
_cell_length_a       3.7085
_cell_length_b       4.04117
_cell_length_c       6.04797
_cell_angle_alpha    90
_cell_angle_beta     72.1461
_cell_angle_gamma    90

_space_group_name_H-M_alt    "P 1"
_space_group_IT_number       1

loop_
  _space_group_symop_operation_xyz
  'x, y, z'

loop_
  _atom_site_type_symbol
  _atom_site_label
  _atom_site_symmetry_multiplicity
  _atom_site_fract_x
  _atom_site_fract_y
  _atom_site_fract_z
  _atom_site_occupancy
  H   H1        1.0  0.00000  0.50000  0.00000  1.0000
  Li  Li1       1.0  0.00000  0.00000  0.00000  1.0000
  Li  Li2       1.0  0.50000  0.50000  0.00000  1.0000
  Li  Li3       1.0  0.83200  0.50000  0.33700  1.0000
  Li  Li4       1.0  0.16800  0.50000  0.66300  1.0000
  Si  Si1       1.0  0.31600  0.00000  0.36800  1.0000
  Si  Si2       1.0  0.68400  0.00000  0.63200  1.0000
