data_image0
_chemical_formula_structural       HSb2Ti4
_chemical_formula_sum              "H1 Sb2 Ti4"
_cell_length_a       7.66766
_cell_length_b       4.01283
_cell_length_c       4.01283
_cell_angle_alpha    90
_cell_angle_beta     105.169
_cell_angle_gamma    105.169

_space_group_name_H-M_alt    "P 1"
_space_group_IT_number       1

loop_
  _space_group_symop_operation_xyz
  'x, y, z'

loop_
  _atom_site_type_symbol
  _atom_site_label
  _atom_site_symmetry_multiplicity
  _atom_site_fract_x
  _atom_site_fract_y
  _atom_site_fract_z
  _atom_site_occupancy
  H   H1        1.0  0.00000  0.50000  0.50000  1.0000
  Sb  Sb1       1.0  0.28700  0.14300  0.14300  1.0000
  Sb  Sb2       1.0  0.71300  0.85700  0.85700  1.0000
  Ti  Ti1       1.0  0.00000  0.50000  0.00000  1.0000
  Ti  Ti2       1.0  0.67800  0.33900  0.33900  1.0000
  Ti  Ti3       1.0  0.00000  0.00000  0.50000  1.0000
  Ti  Ti4       1.0  0.32200  0.66100  0.66100  1.0000
