data_image0
_chemical_formula_structural       B4Cr3
_chemical_formula_sum              "B4 Cr3"
_cell_length_a       2.93661
_cell_length_b       2.91683
_cell_length_c       6.82785
_cell_angle_alpha    102.333
_cell_angle_beta     102.418
_cell_angle_gamma    90

_space_group_name_H-M_alt    "P 1"
_space_group_IT_number       1

loop_
  _space_group_symop_operation_xyz
  'x, y, z'

loop_
  _atom_site_type_symbol
  _atom_site_label
  _atom_site_symmetry_multiplicity
  _atom_site_fract_x
  _atom_site_fract_y
  _atom_site_fract_z
  _atom_site_occupancy
  B   B1        1.0  0.06640  0.56600  0.13300  1.0000
  B   B2        1.0  0.64000  0.64000  0.28000  1.0000
  B   B3        1.0  0.36000  0.36000  0.72000  1.0000
  B   B4        1.0  0.93400  0.43400  0.86700  1.0000
  Cr  Cr1       1.0  0.50000  0.00000  0.00000  1.0000
  Cr  Cr2       1.0  0.18600  0.18600  0.37200  1.0000
  Cr  Cr3       1.0  0.81400  0.81400  0.62800  1.0000
