data_image0
_chemical_formula_structural       Al3CeCu
_chemical_formula_sum              "Al3 Ce1 Cu1"
_cell_length_a       4.26984
_cell_length_b       4.26984
_cell_length_c       6.12915
_cell_angle_alpha    110.385
_cell_angle_beta     110.385
_cell_angle_gamma    90

_space_group_name_H-M_alt    "P 1"
_space_group_IT_number       1

loop_
  _space_group_symop_operation_xyz
  'x, y, z'

loop_
  _atom_site_type_symbol
  _atom_site_label
  _atom_site_symmetry_multiplicity
  _atom_site_fract_x
  _atom_site_fract_y
  _atom_site_fract_z
  _atom_site_occupancy
  Al  Al1       1.0  0.59500  0.59500  0.19000  1.0000
  Al  Al2       1.0  0.75000  0.25000  0.50100  1.0000
  Al  Al3       1.0  0.25000  0.75000  0.50100  1.0000
  Ce  Ce1       1.0  0.00000  0.00000  0.00000  1.0000
  Cu  Cu1       1.0  0.36800  0.36800  0.73600  1.0000
