data_image0
_chemical_formula_structural       B2N2Nb4
_chemical_formula_sum              "B2 N2 Nb4"
_cell_length_a       3.12622
_cell_length_b       3.18492
_cell_length_c       9.14603
_cell_angle_alpha    79.9729
_cell_angle_beta     90
_cell_angle_gamma    90

_space_group_name_H-M_alt    "P 1"
_space_group_IT_number       1

loop_
  _space_group_symop_operation_xyz
  'x, y, z'

loop_
  _atom_site_type_symbol
  _atom_site_label
  _atom_site_symmetry_multiplicity
  _atom_site_fract_x
  _atom_site_fract_y
  _atom_site_fract_z
  _atom_site_occupancy
  B   B1        1.0  0.75000  0.47300  0.05390  1.0000
  B   B2        1.0  0.25000  0.52700  0.94600  1.0000
  N   N1        1.0  0.25000  0.80600  0.38800  1.0000
  N   N2        1.0  0.75000  0.19400  0.61200  1.0000
  Nb  Nb1       1.0  0.25000  0.92700  0.14500  1.0000
  Nb  Nb2       1.0  0.75000  0.31900  0.36300  1.0000
  Nb  Nb3       1.0  0.25000  0.68100  0.63700  1.0000
  Nb  Nb4       1.0  0.75000  0.07260  0.85500  1.0000
