data_image0
_chemical_formula_structural       Cr2S4V
_chemical_formula_sum              "Cr2 S4 V1"
_cell_length_a       3.40974
_cell_length_b       6.09328
_cell_length_c       6.46817
_cell_angle_alpha    117.74
_cell_angle_beta     105.282
_cell_angle_gamma    90

_space_group_name_H-M_alt    "P 1"
_space_group_IT_number       1

loop_
  _space_group_symop_operation_xyz
  'x, y, z'

loop_
  _atom_site_type_symbol
  _atom_site_label
  _atom_site_symmetry_multiplicity
  _atom_site_fract_x
  _atom_site_fract_y
  _atom_site_fract_z
  _atom_site_occupancy
  Cr  Cr1       1.0  0.74100  0.72400  0.48200  1.0000
  Cr  Cr2       1.0  0.25900  0.27600  0.51800  1.0000
  S   S1        1.0  0.12400  0.44700  0.24800  1.0000
  S   S2        1.0  0.63200  0.97100  0.26400  1.0000
  S   S3        1.0  0.36800  0.02920  0.73600  1.0000
  S   S4        1.0  0.87600  0.55300  0.75200  1.0000
  V   V1        1.0  0.00000  0.00000  0.00000  1.0000
