data_image0
_chemical_formula_structural       CuLi2O4Zr
_chemical_formula_sum              "Cu1 Li2 O4 Zr1"
_cell_length_a       4.16604
_cell_length_b       4.16604
_cell_length_c       5.44528
_cell_angle_alpha    112.491
_cell_angle_beta     112.491
_cell_angle_gamma    90

_space_group_name_H-M_alt    "P 1"
_space_group_IT_number       1

loop_
  _space_group_symop_operation_xyz
  'x, y, z'

loop_
  _atom_site_type_symbol
  _atom_site_label
  _atom_site_symmetry_multiplicity
  _atom_site_fract_x
  _atom_site_fract_y
  _atom_site_fract_z
  _atom_site_occupancy
  Cu  Cu1       1.0  0.00000  0.00000  0.00000  1.0000
  Li  Li1       1.0  0.50000  0.50000  0.00000  1.0000
  Li  Li2       1.0  0.75000  0.25000  0.50000  1.0000
  O   O1        1.0  0.01610  0.51600  0.03220  1.0000
  O   O2        1.0  0.74800  0.74800  0.49600  1.0000
  O   O3        1.0  0.25200  0.25200  0.50400  1.0000
  O   O4        1.0  0.48400  0.98400  0.96800  1.0000
  Zr  Zr1       1.0  0.25000  0.75000  0.50000  1.0000
