data_image0
_chemical_formula_structural       Se4Ti2V
_chemical_formula_sum              "Se4 Ti2 V1"
_cell_length_a       3.52044
_cell_length_b       6.32808
_cell_length_c       7.00483
_cell_angle_alpha    116.125
_cell_angle_beta     104.554
_cell_angle_gamma    90

_space_group_name_H-M_alt    "P 1"
_space_group_IT_number       1

loop_
  _space_group_symop_operation_xyz
  'x, y, z'

loop_
  _atom_site_type_symbol
  _atom_site_label
  _atom_site_symmetry_multiplicity
  _atom_site_fract_x
  _atom_site_fract_y
  _atom_site_fract_z
  _atom_site_occupancy
  Se  Se1       1.0  0.11300  0.44800  0.22500  1.0000
  Se  Se2       1.0  0.63000  0.96300  0.25900  1.0000
  Se  Se3       1.0  0.37000  0.03730  0.74100  1.0000
  Se  Se4       1.0  0.88700  0.55200  0.77500  1.0000
  Ti  Ti1       1.0  0.74800  0.71300  0.49600  1.0000
  Ti  Ti2       1.0  0.25200  0.28700  0.50400  1.0000
  V   V1        1.0  0.00000  0.00000  0.00000  1.0000
