data_image0
_chemical_formula_structural       As2Cu4Na
_chemical_formula_sum              "As2 Cu4 Na1"
_cell_length_a       4.09993
_cell_length_b       4.09993
_cell_length_c       8.24769
_cell_angle_alpha    75.6083
_cell_angle_beta     104.392
_cell_angle_gamma    120

_space_group_name_H-M_alt    "P 1"
_space_group_IT_number       1

loop_
  _space_group_symop_operation_xyz
  'x, y, z'

loop_
  _atom_site_type_symbol
  _atom_site_label
  _atom_site_symmetry_multiplicity
  _atom_site_fract_x
  _atom_site_fract_y
  _atom_site_fract_z
  _atom_site_occupancy
  As  As1       1.0  0.75000  0.25000  0.25100  1.0000
  As  As2       1.0  0.25000  0.75000  0.74900  1.0000
  Cu  Cu1       1.0  0.43900  0.56100  0.31800  1.0000
  Cu  Cu2       1.0  0.14300  0.85700  0.43000  1.0000
  Cu  Cu3       1.0  0.85700  0.14300  0.57000  1.0000
  Cu  Cu4       1.0  0.56100  0.43900  0.68200  1.0000
  Na  Na1       1.0  0.00000  0.00000  0.00000  1.0000
