data_image0
_chemical_formula_structural       Nb2S2Ta2
_chemical_formula_sum              "Nb2 S2 Ta2"
_cell_length_a       3.34456
_cell_length_b       3.34456
_cell_length_c       9.23896
_cell_angle_alpha    90
_cell_angle_beta     90
_cell_angle_gamma    90

_space_group_name_H-M_alt    "P 1"
_space_group_IT_number       1

loop_
  _space_group_symop_operation_xyz
  'x, y, z'

loop_
  _atom_site_type_symbol
  _atom_site_label
  _atom_site_symmetry_multiplicity
  _atom_site_fract_x
  _atom_site_fract_y
  _atom_site_fract_z
  _atom_site_occupancy
  Nb  Nb1       1.0  0.75000  0.75000  0.22600  1.0000
  Nb  Nb2       1.0  0.25000  0.25000  0.77400  1.0000
  S   S1        1.0  0.25000  0.25000  0.12400  1.0000
  S   S2        1.0  0.75000  0.75000  0.87600  1.0000
  Ta  Ta1       1.0  0.25000  0.25000  0.41600  1.0000
  Ta  Ta2       1.0  0.75000  0.75000  0.58400  1.0000
