data_image0
_chemical_formula_structural       Ba2HN
_chemical_formula_sum              "Ba2 H1 N1"
_cell_length_a       4.02909
_cell_length_b       4.02909
_cell_length_c       7.24819
_cell_angle_alpha    106.137
_cell_angle_beta     90
_cell_angle_gamma    60

_space_group_name_H-M_alt    "P 1"
_space_group_IT_number       1

loop_
  _space_group_symop_operation_xyz
  'x, y, z'

loop_
  _atom_site_type_symbol
  _atom_site_label
  _atom_site_symmetry_multiplicity
  _atom_site_fract_x
  _atom_site_fract_y
  _atom_site_fract_z
  _atom_site_occupancy
  Ba  Ba1       1.0  0.24000  0.52000  0.28000  1.0000
  Ba  Ba2       1.0  0.76000  0.48000  0.72000  1.0000
  H   H1        1.0  0.00000  0.00000  0.00000  1.0000
  N   N1        1.0  0.50000  0.00000  0.50000  1.0000
