data_image0
_chemical_formula_structural       CRe2Si2Th2
_chemical_formula_sum              "C1 Re2 Si2 Th2"
_cell_length_a       4.23086
_cell_length_b       6.00393
_cell_length_c       5.96431
_cell_angle_alpha    93.4896
_cell_angle_beta     110.774
_cell_angle_gamma    110.631

_space_group_name_H-M_alt    "P 1"
_space_group_IT_number       1

loop_
  _space_group_symop_operation_xyz
  'x, y, z'

loop_
  _atom_site_type_symbol
  _atom_site_label
  _atom_site_symmetry_multiplicity
  _atom_site_fract_x
  _atom_site_fract_y
  _atom_site_fract_z
  _atom_site_occupancy
  C   C1        1.0  0.00000  0.00000  0.00000  1.0000
  Re  Re1       1.0  0.89600  0.68800  0.10500  1.0000
  Re  Re2       1.0  0.10400  0.31200  0.89500  1.0000
  Si  Si1       1.0  0.45000  0.60400  0.29600  1.0000
  Si  Si2       1.0  0.55000  0.39600  0.70400  1.0000
  Th  Th1       1.0  0.73200  0.16800  0.29700  1.0000
  Th  Th2       1.0  0.26800  0.83200  0.70300  1.0000
