data_image0
_chemical_formula_structural       C2Os4Pr2Si2
_chemical_formula_sum              "C2 Os4 Pr2 Si2"
_cell_length_a       3.99855
_cell_length_b       5.91799
_cell_length_c       7.2093
_cell_angle_alpha    90
_cell_angle_beta     90
_cell_angle_gamma    70.2553

_space_group_name_H-M_alt    "P 1"
_space_group_IT_number       1

loop_
  _space_group_symop_operation_xyz
  'x, y, z'

loop_
  _atom_site_type_symbol
  _atom_site_label
  _atom_site_symmetry_multiplicity
  _atom_site_fract_x
  _atom_site_fract_y
  _atom_site_fract_z
  _atom_site_occupancy
  C   C1        1.0  0.50000  0.00000  0.00000  1.0000
  C   C2        1.0  0.50000  0.00000  0.50000  1.0000
  Os  Os1       1.0  0.66600  0.66800  0.06020  1.0000
  Os  Os2       1.0  0.66600  0.66800  0.44000  1.0000
  Os  Os3       1.0  0.33400  0.33200  0.56000  1.0000
  Os  Os4       1.0  0.33400  0.33200  0.94000  1.0000
  Pr  Pr1       1.0  0.95000  0.09910  0.25000  1.0000
  Pr  Pr2       1.0  0.04950  0.90100  0.75000  1.0000
  Si  Si1       1.0  0.23000  0.54000  0.25000  1.0000
  Si  Si2       1.0  0.77000  0.46000  0.75000  1.0000
