data_image0
_chemical_formula_structural       La2MnNiO6
_chemical_formula_sum              "La2 Mn1 Ni1 O6"
_cell_length_a       5.42204
_cell_length_b       5.42204
_cell_length_c       5.42204
_cell_angle_alpha    118.923
_cell_angle_beta     118.923
_cell_angle_gamma    61.0773

_space_group_name_H-M_alt    "P 1"
_space_group_IT_number       1

loop_
  _space_group_symop_operation_xyz
  'x, y, z'

loop_
  _atom_site_type_symbol
  _atom_site_label
  _atom_site_symmetry_multiplicity
  _atom_site_fract_x
  _atom_site_fract_y
  _atom_site_fract_z
  _atom_site_occupancy
  La  La1       1.0  0.75000  0.75000  0.25000  1.0000
  La  La2       1.0  0.25000  0.25000  0.75000  1.0000
  Mn  Mn1       1.0  0.00000  0.00000  0.00000  1.0000
  Ni  Ni1       1.0  0.50000  0.50000  0.50000  1.0000
  O   O1        1.0  0.69400  0.24100  0.18200  1.0000
  O   O2        1.0  0.18200  0.30600  0.24100  1.0000
  O   O3        1.0  0.24100  0.81800  0.30600  1.0000
  O   O4        1.0  0.75900  0.18200  0.69400  1.0000
  O   O5        1.0  0.81800  0.69400  0.75900  1.0000
  O   O6        1.0  0.30600  0.75900  0.81800  1.0000
