data_image0
_chemical_formula_structural       C2Os4Si2Th2
_chemical_formula_sum              "C2 Os4 Si2 Th2"
_cell_length_a       3.98447
_cell_length_b       5.96456
_cell_length_c       7.18311
_cell_angle_alpha    90
_cell_angle_beta     90
_cell_angle_gamma    70.4875

_space_group_name_H-M_alt    "P 1"
_space_group_IT_number       1

loop_
  _space_group_symop_operation_xyz
  'x, y, z'

loop_
  _atom_site_type_symbol
  _atom_site_label
  _atom_site_symmetry_multiplicity
  _atom_site_fract_x
  _atom_site_fract_y
  _atom_site_fract_z
  _atom_site_occupancy
  C   C1        1.0  0.50000  0.00000  0.00000  1.0000
  C   C2        1.0  0.50000  0.00000  0.50000  1.0000
  Os  Os1       1.0  0.66500  0.67000  0.05640  1.0000
  Os  Os2       1.0  0.66500  0.67000  0.44400  1.0000
  Os  Os3       1.0  0.33500  0.33000  0.55600  1.0000
  Os  Os4       1.0  0.33500  0.33000  0.94400  1.0000
  Si  Si1       1.0  0.22800  0.54500  0.25000  1.0000
  Si  Si2       1.0  0.77200  0.45500  0.75000  1.0000
  Th  Th1       1.0  0.94700  0.10700  0.25000  1.0000
  Th  Th2       1.0  0.05350  0.89300  0.75000  1.0000
