data_image0
_chemical_formula_structural       Ag4Fe6
_chemical_formula_sum              "Ag4 Fe6"
_cell_length_a       6.33853
_cell_length_b       6.33853
_cell_length_c       6.00513
_cell_angle_alpha    121.854
_cell_angle_beta     58.1458
_cell_angle_gamma    120

_space_group_name_H-M_alt    "P 1"
_space_group_IT_number       1

loop_
  _space_group_symop_operation_xyz
  'x, y, z'

loop_
  _atom_site_type_symbol
  _atom_site_label
  _atom_site_symmetry_multiplicity
  _atom_site_fract_x
  _atom_site_fract_y
  _atom_site_fract_z
  _atom_site_occupancy
  Ag  Ag1       1.0  0.59100  0.40900  0.22700  1.0000
  Ag  Ag2       1.0  0.90900  0.09090  0.27300  1.0000
  Ag  Ag3       1.0  0.09090  0.90900  0.72700  1.0000
  Ag  Ag4       1.0  0.40900  0.59100  0.77300  1.0000
  Fe  Fe1       1.0  0.03190  0.53200  0.25000  1.0000
  Fe  Fe2       1.0  0.46800  0.75000  0.25000  1.0000
  Fe  Fe3       1.0  0.25000  0.96800  0.25000  1.0000
  Fe  Fe4       1.0  0.75000  0.03190  0.75000  1.0000
  Fe  Fe5       1.0  0.53200  0.25000  0.75000  1.0000
  Fe  Fe6       1.0  0.96800  0.46800  0.75000  1.0000
