data_image0
_chemical_formula_structural       Al4Cs6
_chemical_formula_sum              "Al4 Cs6"
_cell_length_a       11.5278
_cell_length_b       11.5278
_cell_length_c       8.18515
_cell_angle_alpha    134.764
_cell_angle_beta     45.2359
_cell_angle_gamma    120

_space_group_name_H-M_alt    "P 1"
_space_group_IT_number       1

loop_
  _space_group_symop_operation_xyz
  'x, y, z'

loop_
  _atom_site_type_symbol
  _atom_site_label
  _atom_site_symmetry_multiplicity
  _atom_site_fract_x
  _atom_site_fract_y
  _atom_site_fract_z
  _atom_site_occupancy
  Al  Al1       1.0  0.66300  0.33700  0.01050  1.0000
  Al  Al2       1.0  0.83700  0.16300  0.48900  1.0000
  Al  Al3       1.0  0.16300  0.83700  0.51100  1.0000
  Al  Al4       1.0  0.33700  0.66300  0.98900  1.0000
  Cs  Cs1       1.0  0.59100  0.75000  0.25000  1.0000
  Cs  Cs2       1.0  0.90900  0.40900  0.25000  1.0000
  Cs  Cs3       1.0  0.25000  0.09120  0.25000  1.0000
  Cs  Cs4       1.0  0.75000  0.90900  0.75000  1.0000
  Cs  Cs5       1.0  0.09120  0.59100  0.75000  1.0000
  Cs  Cs6       1.0  0.40900  0.25000  0.75000  1.0000
