data_image0
_chemical_formula_structural       Fe2H4Ti2
_chemical_formula_sum              "Fe2 H4 Ti2"
_cell_length_a       4.66445
_cell_length_b       4.5041
_cell_length_c       2.81236
_cell_angle_alpha    90
_cell_angle_beta     90
_cell_angle_gamma    90

_space_group_name_H-M_alt    "P 1"
_space_group_IT_number       1

loop_
  _space_group_symop_operation_xyz
  'x, y, z'

loop_
  _atom_site_type_symbol
  _atom_site_label
  _atom_site_symmetry_multiplicity
  _atom_site_fract_x
  _atom_site_fract_y
  _atom_site_fract_z
  _atom_site_occupancy
  Fe  Fe1       1.0  0.81100  0.21200  0.00000  1.0000
  Fe  Fe2       1.0  0.18900  0.71200  0.00000  1.0000
  H   H1        1.0  0.49300  0.95100  0.00000  1.0000
  H   H2        1.0  0.50700  0.45100  0.00000  1.0000
  H   H3        1.0  0.92200  0.05260  0.50000  1.0000
  H   H4        1.0  0.07780  0.55300  0.50000  1.0000
  Ti  Ti1       1.0  0.29700  0.20300  0.50000  1.0000
  Ti  Ti2       1.0  0.70300  0.70300  0.50000  1.0000
