data_image0
_chemical_formula_structural       In3Pd3Sc3
_chemical_formula_sum              "In3 Pd3 Sc3"
_cell_length_a       7.67487
_cell_length_b       7.67487
_cell_length_c       3.46233
_cell_angle_alpha    90
_cell_angle_beta     90
_cell_angle_gamma    120.002

_space_group_name_H-M_alt    "P 1"
_space_group_IT_number       1

loop_
  _space_group_symop_operation_xyz
  'x, y, z'

loop_
  _atom_site_type_symbol
  _atom_site_label
  _atom_site_symmetry_multiplicity
  _atom_site_fract_x
  _atom_site_fract_y
  _atom_site_fract_z
  _atom_site_occupancy
  In  In1       1.0  0.27500  0.00000  0.50000  1.0000
  In  In2       1.0  0.00000  0.27500  0.50000  1.0000
  In  In3       1.0  0.72500  0.72500  0.50000  1.0000
  Pd  Pd1       1.0  0.00000  0.00000  0.00000  1.0000
  Pd  Pd2       1.0  0.66700  0.33300  0.50000  1.0000
  Pd  Pd3       1.0  0.33300  0.66700  0.50000  1.0000
  Sc  Sc1       1.0  0.60300  0.00000  0.00000  1.0000
  Sc  Sc2       1.0  0.39700  0.39700  0.00000  1.0000
  Sc  Sc3       1.0  0.00000  0.60300  0.00000  1.0000
