data_image0
_chemical_formula_structural       Ni2P2S6
_chemical_formula_sum              "Ni2 P2 S6"
_cell_length_a       5.81291
_cell_length_b       5.81063
_cell_length_c       6.72083
_cell_angle_alpha    98.3238
_cell_angle_beta     106.823
_cell_angle_gamma    59.9871

_space_group_name_H-M_alt    "P 1"
_space_group_IT_number       1

loop_
  _space_group_symop_operation_xyz
  'x, y, z'

loop_
  _atom_site_type_symbol
  _atom_site_label
  _atom_site_symmetry_multiplicity
  _atom_site_fract_x
  _atom_site_fract_y
  _atom_site_fract_z
  _atom_site_occupancy
  Ni  Ni1       1.0  0.33300  0.33400  0.00000  1.0000
  Ni  Ni2       1.0  0.66700  0.66600  0.00000  1.0000
  P   P1        1.0  0.05740  0.00000  0.16900  1.0000
  P   P2        1.0  0.94300  0.00000  0.83100  1.0000
  S   S1        1.0  0.07920  0.34600  0.23600  1.0000
  S   S2        1.0  0.42500  0.65400  0.23600  1.0000
  S   S3        1.0  0.73400  0.00000  0.23600  1.0000
  S   S4        1.0  0.26600  0.00000  0.76400  1.0000
  S   S5        1.0  0.57500  0.34600  0.76400  1.0000
  S   S6        1.0  0.92100  0.65400  0.76400  1.0000
