data_image0
_chemical_formula_structural       Rh2Si4Y4
_chemical_formula_sum              "Rh2 Si4 Y4"
_cell_length_a       4.21693
_cell_length_b       5.70042
_cell_length_c       9.1109
_cell_angle_alpha    92.1537
_cell_angle_beta     103.381
_cell_angle_gamma    68.2918

_space_group_name_H-M_alt    "P 1"
_space_group_IT_number       1

loop_
  _space_group_symop_operation_xyz
  'x, y, z'

loop_
  _atom_site_type_symbol
  _atom_site_label
  _atom_site_symmetry_multiplicity
  _atom_site_fract_x
  _atom_site_fract_y
  _atom_site_fract_z
  _atom_site_occupancy
  Rh  Rh1       1.0  0.64700  0.07900  0.37300  1.0000
  Rh  Rh2       1.0  0.35300  0.92100  0.62700  1.0000
  Si  Si1       1.0  0.63100  0.85800  0.12000  1.0000
  Si  Si2       1.0  0.07490  0.28500  0.43500  1.0000
  Si  Si3       1.0  0.92500  0.71500  0.56500  1.0000
  Si  Si4       1.0  0.36900  0.14200  0.88000  1.0000
  Y   Y1        1.0  0.92400  0.26100  0.10900  1.0000
  Y   Y2        1.0  0.32600  0.67200  0.32400  1.0000
  Y   Y3        1.0  0.67400  0.32800  0.67600  1.0000
  Y   Y4        1.0  0.07630  0.73900  0.89100  1.0000
