data_image0
_chemical_formula_structural       Ge2Sb2Te5
_chemical_formula_sum              "Ge2 Sb2 Te5"
_cell_length_a       4.26562
_cell_length_b       4.26563
_cell_length_c       17.9132
_cell_angle_alpha    90
_cell_angle_beta     90.0004
_cell_angle_gamma    120

_space_group_name_H-M_alt    "P 1"
_space_group_IT_number       1

loop_
  _space_group_symop_operation_xyz
  'x, y, z'

loop_
  _atom_site_type_symbol
  _atom_site_label
  _atom_site_symmetry_multiplicity
  _atom_site_fract_x
  _atom_site_fract_y
  _atom_site_fract_z
  _atom_site_occupancy
  Ge  Ge1       1.0  0.00002  0.00001  0.33200  1.0000
  Ge  Ge2       1.0  0.00000  0.00000  0.66800  1.0000
  Sb  Sb1       1.0  0.33300  0.66700  0.11300  1.0000
  Sb  Sb2       1.0  0.66700  0.33300  0.88700  1.0000
  Te  Te1       1.0  0.00000  0.00000  0.00000  1.0000
  Te  Te2       1.0  0.66700  0.33300  0.21100  1.0000
  Te  Te3       1.0  0.33300  0.66700  0.41100  1.0000
  Te  Te4       1.0  0.66700  0.33300  0.58900  1.0000
  Te  Te5       1.0  0.33300  0.66700  0.78900  1.0000
