data_image0
_chemical_formula_structural       Ba2C2Cl2N2S2
_chemical_formula_sum              "Ba2 C2 Cl2 N2 S2"
_cell_length_a       5.89926
_cell_length_b       4.67307
_cell_length_c       8.70025
_cell_angle_alpha    90
_cell_angle_beta     99.7193
_cell_angle_gamma    90

_space_group_name_H-M_alt    "P 1"
_space_group_IT_number       1

loop_
  _space_group_symop_operation_xyz
  'x, y, z'

loop_
  _atom_site_type_symbol
  _atom_site_label
  _atom_site_symmetry_multiplicity
  _atom_site_fract_x
  _atom_site_fract_y
  _atom_site_fract_z
  _atom_site_occupancy
  Ba  Ba1       1.0  0.20600  0.75000  0.30000  1.0000
  Ba  Ba2       1.0  0.79400  0.25000  0.70000  1.0000
  C   C1        1.0  0.60600  0.25000  0.15300  1.0000
  C   C2        1.0  0.39400  0.75000  0.84700  1.0000
  Cl  Cl1       1.0  0.74700  0.75000  0.44900  1.0000
  Cl  Cl2       1.0  0.25300  0.25000  0.55100  1.0000
  N   N1        1.0  0.42000  0.25000  0.19000  1.0000
  N   N2        1.0  0.58000  0.75000  0.81000  1.0000
  S   S1        1.0  0.86000  0.25000  0.10300  1.0000
  S   S2        1.0  0.14000  0.75000  0.89700  1.0000
