data_image0
_chemical_formula_structural       Br6Na3Sm
_chemical_formula_sum              "Br6 Na3 Sm1"
_cell_length_a       7.43114
_cell_length_b       7.43114
_cell_length_c       7.95615
_cell_angle_alpha    62.1599
_cell_angle_beta     117.84
_cell_angle_gamma    120

_space_group_name_H-M_alt    "P 1"
_space_group_IT_number       1

loop_
  _space_group_symop_operation_xyz
  'x, y, z'

loop_
  _atom_site_type_symbol
  _atom_site_label
  _atom_site_symmetry_multiplicity
  _atom_site_fract_x
  _atom_site_fract_y
  _atom_site_fract_z
  _atom_site_occupancy
  Br  Br1       1.0  0.76800  0.89400  0.25700  1.0000
  Br  Br2       1.0  0.38200  0.23200  0.25700  1.0000
  Br  Br3       1.0  0.10600  0.61800  0.25700  1.0000
  Br  Br4       1.0  0.89400  0.38200  0.74300  1.0000
  Br  Br5       1.0  0.61800  0.76800  0.74300  1.0000
  Br  Br6       1.0  0.23200  0.10600  0.74300  1.0000
  Na  Na1       1.0  0.80700  0.19300  0.42000  1.0000
  Na  Na2       1.0  0.50000  0.50000  0.50000  1.0000
  Na  Na3       1.0  0.19300  0.80700  0.58000  1.0000
  Sm  Sm1       1.0  0.00000  0.00000  0.00000  1.0000
