data_image0
_chemical_formula_structural       Ca4Ti6
_chemical_formula_sum              "Ca4 Ti6"
_cell_length_a       7.26483
_cell_length_b       7.26483
_cell_length_c       7.07611
_cell_angle_alpha    120.886
_cell_angle_beta     59.1138
_cell_angle_gamma    120

_space_group_name_H-M_alt    "P 1"
_space_group_IT_number       1

loop_
  _space_group_symop_operation_xyz
  'x, y, z'

loop_
  _atom_site_type_symbol
  _atom_site_label
  _atom_site_symmetry_multiplicity
  _atom_site_fract_x
  _atom_site_fract_y
  _atom_site_fract_z
  _atom_site_occupancy
  Ca  Ca1       1.0  0.58900  0.41100  0.23200  1.0000
  Ca  Ca2       1.0  0.91100  0.08930  0.26800  1.0000
  Ca  Ca3       1.0  0.08930  0.91100  0.73200  1.0000
  Ca  Ca4       1.0  0.41100  0.58900  0.76800  1.0000
  Ti  Ti1       1.0  0.25000  0.94800  0.25000  1.0000
  Ti  Ti2       1.0  0.44800  0.75000  0.25000  1.0000
  Ti  Ti3       1.0  0.05200  0.55200  0.25000  1.0000
  Ti  Ti4       1.0  0.94800  0.44800  0.75000  1.0000
  Ti  Ti5       1.0  0.55200  0.25000  0.75000  1.0000
  Ti  Ti6       1.0  0.75000  0.05200  0.75000  1.0000
