data_image0
_chemical_formula_structural       Mg2Si4Sm4
_chemical_formula_sum              "Mg2 Si4 Sm4"
_cell_length_a       7.30719
_cell_length_b       7.30719
_cell_length_c       4.30073
_cell_angle_alpha    90
_cell_angle_beta     90
_cell_angle_gamma    90

_space_group_name_H-M_alt    "P 1"
_space_group_IT_number       1

loop_
  _space_group_symop_operation_xyz
  'x, y, z'

loop_
  _atom_site_type_symbol
  _atom_site_label
  _atom_site_symmetry_multiplicity
  _atom_site_fract_x
  _atom_site_fract_y
  _atom_site_fract_z
  _atom_site_occupancy
  Mg  Mg1       1.0  0.00000  0.00000  0.00000  1.0000
  Mg  Mg2       1.0  0.50000  0.50000  0.00000  1.0000
  Si  Si1       1.0  0.61600  0.11600  0.00000  1.0000
  Si  Si2       1.0  0.11600  0.38400  0.00000  1.0000
  Si  Si3       1.0  0.88400  0.61600  0.00000  1.0000
  Si  Si4       1.0  0.38400  0.88400  0.00000  1.0000
  Sm  Sm1       1.0  0.32100  0.17900  0.50000  1.0000
  Sm  Sm2       1.0  0.82100  0.32100  0.50000  1.0000
  Sm  Sm3       1.0  0.17900  0.67900  0.50000  1.0000
  Sm  Sm4       1.0  0.67900  0.82100  0.50000  1.0000
