data_image0
_chemical_formula_structural       Al4Th6
_chemical_formula_sum              "Al4 Th6"
_cell_length_a       8.07782
_cell_length_b       8.07782
_cell_length_c       4.27101
_cell_angle_alpha    90
_cell_angle_beta     90
_cell_angle_gamma    90

_space_group_name_H-M_alt    "P 1"
_space_group_IT_number       1

loop_
  _space_group_symop_operation_xyz
  'x, y, z'

loop_
  _atom_site_type_symbol
  _atom_site_label
  _atom_site_symmetry_multiplicity
  _atom_site_fract_x
  _atom_site_fract_y
  _atom_site_fract_z
  _atom_site_occupancy
  Al  Al1       1.0  0.38200  0.11800  0.00000  1.0000
  Al  Al2       1.0  0.88200  0.38200  0.00000  1.0000
  Al  Al3       1.0  0.11800  0.61800  0.00000  1.0000
  Al  Al4       1.0  0.61800  0.88200  0.00000  1.0000
  Th  Th1       1.0  0.00000  0.00000  0.00000  1.0000
  Th  Th2       1.0  0.50000  0.50000  0.00000  1.0000
  Th  Th3       1.0  0.67700  0.17700  0.50000  1.0000
  Th  Th4       1.0  0.17700  0.32300  0.50000  1.0000
  Th  Th5       1.0  0.82300  0.67700  0.50000  1.0000
  Th  Th6       1.0  0.32300  0.82300  0.50000  1.0000
