data_image0
_chemical_formula_structural       Ba6N2Na2
_chemical_formula_sum              "Ba6 N2 Na2"
_cell_length_a       8.41596
_cell_length_b       8.41621
_cell_length_c       6.95062
_cell_angle_alpha    90
_cell_angle_beta     90
_cell_angle_gamma    119.999

_space_group_name_H-M_alt    "P 1"
_space_group_IT_number       1

loop_
  _space_group_symop_operation_xyz
  'x, y, z'

loop_
  _atom_site_type_symbol
  _atom_site_label
  _atom_site_symmetry_multiplicity
  _atom_site_fract_x
  _atom_site_fract_y
  _atom_site_fract_z
  _atom_site_occupancy
  Ba  Ba1       1.0  0.29100  0.14600  0.25000  1.0000
  Ba  Ba2       1.0  0.85400  0.14600  0.25000  1.0000
  Ba  Ba3       1.0  0.85400  0.70900  0.25000  1.0000
  Ba  Ba4       1.0  0.14600  0.29100  0.75000  1.0000
  Ba  Ba5       1.0  0.14600  0.85400  0.75000  1.0000
  Ba  Ba6       1.0  0.70900  0.85400  0.75000  1.0000
  N   N1        1.0  0.00000  0.00000  0.00000  1.0000
  N   N2        1.0  0.00000  0.00000  0.50000  1.0000
  Na  Na1       1.0  0.33300  0.66700  0.25000  1.0000
  Na  Na2       1.0  0.66700  0.33300  0.75000  1.0000
