data_image0
_chemical_formula_structural       Gd3In4Rh2
_chemical_formula_sum              "Gd3 In4 Rh2"
_cell_length_a       7.85443
_cell_length_b       7.85444
_cell_length_c       3.86021
_cell_angle_alpha    90
_cell_angle_beta     90
_cell_angle_gamma    120

_space_group_name_H-M_alt    "P 1"
_space_group_IT_number       1

loop_
  _space_group_symop_operation_xyz
  'x, y, z'

loop_
  _atom_site_type_symbol
  _atom_site_label
  _atom_site_symmetry_multiplicity
  _atom_site_fract_x
  _atom_site_fract_y
  _atom_site_fract_z
  _atom_site_occupancy
  Gd  Gd1       1.0  0.41600  0.03040  0.50000  1.0000
  Gd  Gd2       1.0  0.97000  0.38600  0.50000  1.0000
  Gd  Gd3       1.0  0.61400  0.58400  0.50000  1.0000
  In  In1       1.0  0.74700  0.00153  0.00000  1.0000
  In  In2       1.0  0.25500  0.25300  0.00000  1.0000
  In  In3       1.0  0.33300  0.66700  0.00000  1.0000
  In  In4       1.0  0.99800  0.74500  0.00000  1.0000
  Rh  Rh1       1.0  0.66700  0.33300  0.00000  1.0000
  Rh  Rh2       1.0  0.00000  0.00000  0.50000  1.0000
