data_image0
_chemical_formula_structural       Ag2Ba2O2Se2Zn
_chemical_formula_sum              "Ag2 Ba2 O2 Se2 Zn1"
_cell_length_a       10.4783
_cell_length_b       4.27052
_cell_length_c       4.27052
_cell_angle_alpha    90
_cell_angle_beta     101.758
_cell_angle_gamma    101.758

_space_group_name_H-M_alt    "P 1"
_space_group_IT_number       1

loop_
  _space_group_symop_operation_xyz
  'x, y, z'

loop_
  _atom_site_type_symbol
  _atom_site_label
  _atom_site_symmetry_multiplicity
  _atom_site_fract_x
  _atom_site_fract_y
  _atom_site_fract_z
  _atom_site_occupancy
  Ag  Ag1       1.0  0.50000  0.75000  0.25000  1.0000
  Ag  Ag2       1.0  0.50000  0.25000  0.75000  1.0000
  Ba  Ba1       1.0  0.17600  0.08820  0.08820  1.0000
  Ba  Ba2       1.0  0.82400  0.91200  0.91200  1.0000
  O   O1        1.0  0.00000  0.50000  0.00000  1.0000
  O   O2        1.0  0.00000  0.00000  0.50000  1.0000
  Se  Se1       1.0  0.67500  0.33800  0.33800  1.0000
  Se  Se2       1.0  0.32500  0.66200  0.66200  1.0000
  Zn  Zn1       1.0  0.00000  0.50000  0.50000  1.0000
