data_image0
_chemical_formula_structural       Cl6InLi3
_chemical_formula_sum              "Cl6 In1 Li3"
_cell_length_a       6.37104
_cell_length_b       6.37619
_cell_length_c       6.37619
_cell_angle_alpha    119.66
_cell_angle_beta     100.17
_cell_angle_gamma    100.17

_space_group_name_H-M_alt    "P 1"
_space_group_IT_number       1

loop_
  _space_group_symop_operation_xyz
  'x, y, z'

loop_
  _atom_site_type_symbol
  _atom_site_label
  _atom_site_symmetry_multiplicity
  _atom_site_fract_x
  _atom_site_fract_y
  _atom_site_fract_z
  _atom_site_occupancy
  Cl  Cl1       1.0  0.26700  0.40300  0.08560  1.0000
  Cl  Cl2       1.0  0.75500  0.23700  0.23700  1.0000
  Cl  Cl3       1.0  0.26700  0.08560  0.40300  1.0000
  Cl  Cl4       1.0  0.73300  0.91400  0.59700  1.0000
  Cl  Cl5       1.0  0.24500  0.76300  0.76300  1.0000
  Cl  Cl6       1.0  0.73300  0.59700  0.91400  1.0000
  In  In1       1.0  0.00000  0.00000  0.00000  1.0000
  Li  Li1       1.0  0.50000  0.84000  0.16000  1.0000
  Li  Li2       1.0  0.50000  0.50000  0.50000  1.0000
  Li  Li3       1.0  0.50000  0.16000  0.84000  1.0000
