data_image0
_chemical_formula_structural       Ge6Nd2Ni2
_chemical_formula_sum              "Ge6 Nd2 Ni2"
_cell_length_a       4.15611
_cell_length_b       4.1749
_cell_length_c       11.1481
_cell_angle_alpha    90
_cell_angle_beta     79.2569
_cell_angle_gamma    90

_space_group_name_H-M_alt    "P 1"
_space_group_IT_number       1

loop_
  _space_group_symop_operation_xyz
  'x, y, z'

loop_
  _atom_site_type_symbol
  _atom_site_label
  _atom_site_symmetry_multiplicity
  _atom_site_fract_x
  _atom_site_fract_y
  _atom_site_fract_z
  _atom_site_occupancy
  Ge  Ge1       1.0  0.94300  0.50000  0.11300  1.0000
  Ge  Ge2       1.0  0.44300  0.00000  0.11400  1.0000
  Ge  Ge3       1.0  0.78400  0.00000  0.43200  1.0000
  Ge  Ge4       1.0  0.21600  0.00000  0.56800  1.0000
  Ge  Ge5       1.0  0.55700  0.00000  0.88600  1.0000
  Ge  Ge6       1.0  0.05670  0.50000  0.88700  1.0000
  Nd  Nd1       1.0  0.33200  0.50000  0.33700  1.0000
  Nd  Nd2       1.0  0.66800  0.50000  0.66300  1.0000
  Ni  Ni1       1.0  0.89100  0.00000  0.21800  1.0000
  Ni  Ni2       1.0  0.10900  0.00000  0.78200  1.0000
