data_image0
_chemical_formula_structural       MnO6SbSr2
_chemical_formula_sum              "Mn1 O6 Sb1 Sr2"
_cell_length_a       5.54388
_cell_length_b       5.54388
_cell_length_c       5.65244
_cell_angle_alpha    119.367
_cell_angle_beta     119.367
_cell_angle_gamma    90

_space_group_name_H-M_alt    "P 1"
_space_group_IT_number       1

loop_
  _space_group_symop_operation_xyz
  'x, y, z'

loop_
  _atom_site_type_symbol
  _atom_site_label
  _atom_site_symmetry_multiplicity
  _atom_site_fract_x
  _atom_site_fract_y
  _atom_site_fract_z
  _atom_site_occupancy
  Mn  Mn1       1.0  0.75900  0.75900  0.51700  1.0000
  O   O1        1.0  0.49800  0.49800  0.99700  1.0000
  O   O2        1.0  0.01830  0.01830  0.03650  1.0000
  O   O3        1.0  0.00411  0.00411  0.51500  1.0000
  O   O4        1.0  0.51100  0.00411  0.51500  1.0000
  O   O5        1.0  0.00411  0.51100  0.51500  1.0000
  O   O6        1.0  0.51100  0.51100  0.51500  1.0000
  Sb  Sb1       1.0  0.25900  0.25900  0.51700  1.0000
  Sr  Sr1       1.0  0.51000  0.00956  0.01910  1.0000
  Sr  Sr2       1.0  0.00956  0.51000  0.01910  1.0000
