data_image0
_chemical_formula_structural       GeLi2O6Te
_chemical_formula_sum              "Ge1 Li2 O6 Te1"
_cell_length_a       5.02485
_cell_length_b       5.02485
_cell_length_c       5.52759
_cell_angle_alpha    117.034
_cell_angle_beta     117.034
_cell_angle_gamma    60

_space_group_name_H-M_alt    "P 1"
_space_group_IT_number       1

loop_
  _space_group_symop_operation_xyz
  'x, y, z'

loop_
  _atom_site_type_symbol
  _atom_site_label
  _atom_site_symmetry_multiplicity
  _atom_site_fract_x
  _atom_site_fract_y
  _atom_site_fract_z
  _atom_site_occupancy
  Ge  Ge1       1.0  0.65800  0.65800  0.97500  1.0000
  Li  Li1       1.0  0.13100  0.13100  0.39400  1.0000
  Li  Li2       1.0  0.86400  0.86400  0.59100  1.0000
  O   O1        1.0  0.71900  0.45100  0.23100  1.0000
  O   O2        1.0  0.45100  0.06110  0.23100  1.0000
  O   O3        1.0  0.06110  0.71900  0.23100  1.0000
  O   O4        1.0  0.93100  0.28700  0.77100  1.0000
  O   O5        1.0  0.55300  0.93100  0.77100  1.0000
  O   O6        1.0  0.28700  0.55300  0.77100  1.0000
  Te  Te1       1.0  0.34000  0.34000  0.02090  1.0000
