data_image0
_chemical_formula_structural       Rh3Te4
_chemical_formula_sum              "Rh3 Te4"
_cell_length_a       4.01958
_cell_length_b       6.77757
_cell_length_c       6.89901
_cell_angle_alpha    118.104
_cell_angle_beta     90
_cell_angle_gamma    107.25

_space_group_name_H-M_alt    "P 1"
_space_group_IT_number       1

loop_
  _space_group_symop_operation_xyz
  'x, y, z'

loop_
  _atom_site_type_symbol
  _atom_site_label
  _atom_site_symmetry_multiplicity
  _atom_site_fract_x
  _atom_site_fract_y
  _atom_site_fract_z
  _atom_site_occupancy
  Rh  Rh1       1.0  0.00000  0.00000  0.00000  1.0000
  Rh  Rh2       1.0  0.26400  0.52700  0.28000  1.0000
  Rh  Rh3       1.0  0.73600  0.47300  0.72000  1.0000
  Te  Te1       1.0  0.36600  0.73100  0.02080  1.0000
  Te  Te2       1.0  0.12000  0.24000  0.45600  1.0000
  Te  Te3       1.0  0.88000  0.76000  0.54400  1.0000
  Te  Te4       1.0  0.63400  0.26900  0.97900  1.0000
