data_image0
_chemical_formula_structural       Ni4Ta6
_chemical_formula_sum              "Ni4 Ta6"
_cell_length_a       6.91014
_cell_length_b       6.91014
_cell_length_c       5.53688
_cell_angle_alpha    128.61
_cell_angle_beta     51.3904
_cell_angle_gamma    120

_space_group_name_H-M_alt    "P 1"
_space_group_IT_number       1

loop_
  _space_group_symop_operation_xyz
  'x, y, z'

loop_
  _atom_site_type_symbol
  _atom_site_label
  _atom_site_symmetry_multiplicity
  _atom_site_fract_x
  _atom_site_fract_y
  _atom_site_fract_z
  _atom_site_occupancy
  Ni  Ni1       1.0  0.59800  0.40200  0.20700  1.0000
  Ni  Ni2       1.0  0.90200  0.09760  0.29300  1.0000
  Ni  Ni3       1.0  0.09760  0.90200  0.70700  1.0000
  Ni  Ni4       1.0  0.40200  0.59800  0.79300  1.0000
  Ta  Ta1       1.0  0.52700  0.75000  0.25000  1.0000
  Ta  Ta2       1.0  0.97300  0.47300  0.25000  1.0000
  Ta  Ta3       1.0  0.25000  0.02710  0.25000  1.0000
  Ta  Ta4       1.0  0.02710  0.52700  0.75000  1.0000
  Ta  Ta5       1.0  0.47300  0.25000  0.75000  1.0000
  Ta  Ta6       1.0  0.75000  0.97300  0.75000  1.0000
