data_image0
_chemical_formula_structural       Mg4Sr6
_chemical_formula_sum              "Mg4 Sr6"
_cell_length_a       10.5717
_cell_length_b       10.5717
_cell_length_c       7.38995
_cell_angle_alpha    135.666
_cell_angle_beta     44.3344
_cell_angle_gamma    120

_space_group_name_H-M_alt    "P 1"
_space_group_IT_number       1

loop_
  _space_group_symop_operation_xyz
  'x, y, z'

loop_
  _atom_site_type_symbol
  _atom_site_label
  _atom_site_symmetry_multiplicity
  _atom_site_fract_x
  _atom_site_fract_y
  _atom_site_fract_z
  _atom_site_occupancy
  Mg  Mg1       1.0  0.62400  0.37600  0.12700  1.0000
  Mg  Mg2       1.0  0.87600  0.12400  0.37300  1.0000
  Mg  Mg3       1.0  0.12400  0.87600  0.62700  1.0000
  Mg  Mg4       1.0  0.37600  0.62400  0.87300  1.0000
  Sr  Sr1       1.0  0.57500  0.75000  0.25000  1.0000
  Sr  Sr2       1.0  0.25000  0.07460  0.25000  1.0000
  Sr  Sr3       1.0  0.92500  0.42500  0.25000  1.0000
  Sr  Sr4       1.0  0.07460  0.57500  0.75000  1.0000
  Sr  Sr5       1.0  0.75000  0.92500  0.75000  1.0000
  Sr  Sr6       1.0  0.42500  0.25000  0.75000  1.0000
