data_image0
_chemical_formula_structural       Fe2H4Zr6
_chemical_formula_sum              "Fe2 H4 Zr6"
_cell_length_a       3.29422
_cell_length_b       5.90454
_cell_length_c       9.10182
_cell_angle_alpha    90
_cell_angle_beta     90
_cell_angle_gamma    73.8021

_space_group_name_H-M_alt    "P 1"
_space_group_IT_number       1

loop_
  _space_group_symop_operation_xyz
  'x, y, z'

loop_
  _atom_site_type_symbol
  _atom_site_label
  _atom_site_symmetry_multiplicity
  _atom_site_fract_x
  _atom_site_fract_y
  _atom_site_fract_z
  _atom_site_occupancy
  Fe  Fe1       1.0  0.72800  0.54300  0.25000  1.0000
  Fe  Fe2       1.0  0.27200  0.45700  0.75000  1.0000
  H   H1        1.0  0.96600  0.06810  0.12300  1.0000
  H   H2        1.0  0.96600  0.06810  0.37700  1.0000
  H   H3        1.0  0.03410  0.93200  0.62300  1.0000
  H   H4        1.0  0.03410  0.93200  0.87700  1.0000
  Zr  Zr1       1.0  0.14000  0.71900  0.06380  1.0000
  Zr  Zr2       1.0  0.41400  0.17200  0.25000  1.0000
  Zr  Zr3       1.0  0.14000  0.71900  0.43600  1.0000
  Zr  Zr4       1.0  0.86000  0.28100  0.56400  1.0000
  Zr  Zr5       1.0  0.58600  0.82800  0.75000  1.0000
  Zr  Zr6       1.0  0.86000  0.28100  0.93600  1.0000
