data_image0
_chemical_formula_structural       BiMo2NaO8
_chemical_formula_sum              "Bi1 Mo2 Na1 O8"
_cell_length_a       5.24894
_cell_length_b       5.24894
_cell_length_c       6.82202
_cell_angle_alpha    112.626
_cell_angle_beta     112.626
_cell_angle_gamma    90

_space_group_name_H-M_alt    "P 1"
_space_group_IT_number       1

loop_
  _space_group_symop_operation_xyz
  'x, y, z'

loop_
  _atom_site_type_symbol
  _atom_site_label
  _atom_site_symmetry_multiplicity
  _atom_site_fract_x
  _atom_site_fract_y
  _atom_site_fract_z
  _atom_site_occupancy
  Bi  Bi1       1.0  0.25000  0.75000  0.50000  1.0000
  Mo  Mo1       1.0  0.00000  0.00000  0.00000  1.0000
  Mo  Mo2       1.0  0.75000  0.25000  0.50000  1.0000
  Na  Na1       1.0  0.50000  0.50000  0.00000  1.0000
  O   O1        1.0  0.93800  0.32900  0.17500  1.0000
  O   O2        1.0  0.23700  0.84600  0.17500  1.0000
  O   O3        1.0  0.51000  0.41000  0.33200  1.0000
  O   O4        1.0  0.82200  0.92200  0.33200  1.0000
  O   O5        1.0  0.59000  0.17800  0.66800  1.0000
  O   O6        1.0  0.07770  0.49000  0.66800  1.0000
  O   O7        1.0  0.15400  0.06220  0.82500  1.0000
  O   O8        1.0  0.67100  0.76300  0.82500  1.0000
