data_image0
_chemical_formula_structural       BiNaO8W2
_chemical_formula_sum              "Bi1 Na1 O8 W2"
_cell_length_a       5.26259
_cell_length_b       5.26259
_cell_length_c       6.78971
_cell_angle_alpha    112.802
_cell_angle_beta     112.802
_cell_angle_gamma    90

_space_group_name_H-M_alt    "P 1"
_space_group_IT_number       1

loop_
  _space_group_symop_operation_xyz
  'x, y, z'

loop_
  _atom_site_type_symbol
  _atom_site_label
  _atom_site_symmetry_multiplicity
  _atom_site_fract_x
  _atom_site_fract_y
  _atom_site_fract_z
  _atom_site_occupancy
  Bi  Bi1       1.0  0.25000  0.75000  0.50000  1.0000
  Na  Na1       1.0  0.50000  0.50000  0.00000  1.0000
  O   O1        1.0  0.93300  0.32800  0.17700  1.0000
  O   O2        1.0  0.24400  0.85000  0.17700  1.0000
  O   O3        1.0  0.50400  0.40600  0.32800  1.0000
  O   O4        1.0  0.82400  0.92300  0.32800  1.0000
  O   O5        1.0  0.59400  0.17600  0.67200  1.0000
  O   O6        1.0  0.07720  0.49600  0.67200  1.0000
  O   O7        1.0  0.15000  0.06680  0.82300  1.0000
  O   O8        1.0  0.67200  0.75600  0.82300  1.0000
  W   W1        1.0  0.00000  0.00000  0.00000  1.0000
  W   W2        1.0  0.75000  0.25000  0.50000  1.0000
