data_image0
_chemical_formula_structural       Al4Pu6
_chemical_formula_sum              "Al4 Pu6"
_cell_length_a       8.88776
_cell_length_b       8.88776
_cell_length_c       6.18963
_cell_angle_alpha    135.886
_cell_angle_beta     44.114
_cell_angle_gamma    120

_space_group_name_H-M_alt    "P 1"
_space_group_IT_number       1

loop_
  _space_group_symop_operation_xyz
  'x, y, z'

loop_
  _atom_site_type_symbol
  _atom_site_label
  _atom_site_symmetry_multiplicity
  _atom_site_fract_x
  _atom_site_fract_y
  _atom_site_fract_z
  _atom_site_occupancy
  Al  Al1       1.0  0.62400  0.37600  0.12700  1.0000
  Al  Al2       1.0  0.87600  0.12400  0.37300  1.0000
  Al  Al3       1.0  0.12400  0.87600  0.62700  1.0000
  Al  Al4       1.0  0.37600  0.62400  0.87300  1.0000
  Pu  Pu1       1.0  0.57300  0.75000  0.25000  1.0000
  Pu  Pu2       1.0  0.92700  0.42700  0.25000  1.0000
  Pu  Pu3       1.0  0.25000  0.07350  0.25000  1.0000
  Pu  Pu4       1.0  0.75000  0.92700  0.75000  1.0000
  Pu  Pu5       1.0  0.07350  0.57300  0.75000  1.0000
  Pu  Pu6       1.0  0.42700  0.25000  0.75000  1.0000
