data_image0
_chemical_formula_structural       CsSe6Th2
_chemical_formula_sum              "Cs1 Se6 Th2"
_cell_length_a       4.26621
_cell_length_b       5.60618
_cell_length_c       12.4299
_cell_angle_alpha    103.033
_cell_angle_beta     99.8815
_cell_angle_gamma    90

_space_group_name_H-M_alt    "P 1"
_space_group_IT_number       1

loop_
  _space_group_symop_operation_xyz
  'x, y, z'

loop_
  _atom_site_type_symbol
  _atom_site_label
  _atom_site_symmetry_multiplicity
  _atom_site_fract_x
  _atom_site_fract_y
  _atom_site_fract_z
  _atom_site_occupancy
  Cs  Cs1       1.0  0.00000  0.00000  0.00000  1.0000
  Se  Se1       1.0  0.61400  0.36900  0.22800  1.0000
  Se  Se2       1.0  0.61400  0.85900  0.22800  1.0000
  Se  Se3       1.0  0.22900  0.22900  0.45900  1.0000
  Se  Se4       1.0  0.77100  0.77100  0.54100  1.0000
  Se  Se5       1.0  0.38600  0.14100  0.77200  1.0000
  Se  Se6       1.0  0.38600  0.63100  0.77200  1.0000
  Th  Th1       1.0  0.18300  0.68300  0.36500  1.0000
  Th  Th2       1.0  0.81700  0.31700  0.63500  1.0000
