data_image0
_chemical_formula_structural       Al6Ce4Ru2
_chemical_formula_sum              "Al6 Ce4 Ru2"
_cell_length_a       5.75108
_cell_length_b       5.75113
_cell_length_c       8.93435
_cell_angle_alpha    90
_cell_angle_beta     90
_cell_angle_gamma    120

_space_group_name_H-M_alt    "P 1"
_space_group_IT_number       1

loop_
  _space_group_symop_operation_xyz
  'x, y, z'

loop_
  _atom_site_type_symbol
  _atom_site_label
  _atom_site_symmetry_multiplicity
  _atom_site_fract_x
  _atom_site_fract_y
  _atom_site_fract_z
  _atom_site_occupancy
  Al  Al1       1.0  0.15700  0.31300  0.25000  1.0000
  Al  Al2       1.0  0.68700  0.84300  0.25000  1.0000
  Al  Al3       1.0  0.15700  0.84300  0.25000  1.0000
  Al  Al4       1.0  0.84300  0.15700  0.75000  1.0000
  Al  Al5       1.0  0.31300  0.15700  0.75000  1.0000
  Al  Al6       1.0  0.84300  0.68700  0.75000  1.0000
  Ce  Ce1       1.0  0.66700  0.33300  0.04920  1.0000
  Ce  Ce2       1.0  0.66700  0.33300  0.45100  1.0000
  Ce  Ce3       1.0  0.33300  0.66700  0.54900  1.0000
  Ce  Ce4       1.0  0.33300  0.66700  0.95100  1.0000
  Ru  Ru1       1.0  0.00000  0.00000  0.00000  1.0000
  Ru  Ru2       1.0  0.00000  0.00000  0.50000  1.0000
