data_image0
_chemical_formula_structural       Al2O7Sm2Sr
_chemical_formula_sum              "Al2 O7 Sm2 Sr1"
_cell_length_a       3.70757
_cell_length_b       3.70757
_cell_length_c       10.3029
_cell_angle_alpha    100.366
_cell_angle_beta     100.366
_cell_angle_gamma    90

_space_group_name_H-M_alt    "P 1"
_space_group_IT_number       1

loop_
  _space_group_symop_operation_xyz
  'x, y, z'

loop_
  _atom_site_type_symbol
  _atom_site_label
  _atom_site_symmetry_multiplicity
  _atom_site_fract_x
  _atom_site_fract_y
  _atom_site_fract_z
  _atom_site_occupancy
  Al  Al1       1.0  0.09360  0.09360  0.18700  1.0000
  Al  Al2       1.0  0.90600  0.90600  0.81300  1.0000
  O   O1        1.0  0.00000  0.00000  0.00000  1.0000
  O   O2        1.0  0.60300  0.10300  0.20600  1.0000
  O   O3        1.0  0.10300  0.60300  0.20600  1.0000
  O   O4        1.0  0.20300  0.20300  0.40600  1.0000
  O   O5        1.0  0.79700  0.79700  0.59400  1.0000
  O   O6        1.0  0.89700  0.39700  0.79400  1.0000
  O   O7        1.0  0.39700  0.89700  0.79400  1.0000
  Sm  Sm1       1.0  0.68100  0.68100  0.36300  1.0000
  Sm  Sm2       1.0  0.31900  0.31900  0.63700  1.0000
  Sr  Sr1       1.0  0.50000  0.50000  0.00000  1.0000
