data_image0
_chemical_formula_structural       Ti4Yb6
_chemical_formula_sum              "Ti4 Yb6"
_cell_length_a       6.8632
_cell_length_b       6.8632
_cell_length_c       8.25926
_cell_angle_alpha    114.55
_cell_angle_beta     65.4501
_cell_angle_gamma    120

_space_group_name_H-M_alt    "P 1"
_space_group_IT_number       1

loop_
  _space_group_symop_operation_xyz
  'x, y, z'

loop_
  _atom_site_type_symbol
  _atom_site_label
  _atom_site_symmetry_multiplicity
  _atom_site_fract_x
  _atom_site_fract_y
  _atom_site_fract_z
  _atom_site_occupancy
  Ti  Ti1       1.0  0.29600  0.70400  0.11100  1.0000
  Ti  Ti2       1.0  0.20400  0.79600  0.38900  1.0000
  Ti  Ti3       1.0  0.79600  0.20400  0.61100  1.0000
  Ti  Ti4       1.0  0.70400  0.29600  0.88900  1.0000
  Yb  Yb1       1.0  0.25000  0.25200  0.25000  1.0000
  Yb  Yb2       1.0  0.74800  0.24800  0.25000  1.0000
  Yb  Yb3       1.0  0.75200  0.75000  0.25000  1.0000
  Yb  Yb4       1.0  0.24800  0.25000  0.75000  1.0000
  Yb  Yb5       1.0  0.25200  0.75200  0.75000  1.0000
  Yb  Yb6       1.0  0.75000  0.74800  0.75000  1.0000
