data_image0
_chemical_formula_structural       Ir2Li4O6
_chemical_formula_sum              "Ir2 Li4 O6"
_cell_length_a       5.09636
_cell_length_b       5.12085
_cell_length_c       5.12085
_cell_angle_alpha    120.491
_cell_angle_beta     99.4838
_cell_angle_gamma    99.4838

_space_group_name_H-M_alt    "P 1"
_space_group_IT_number       1

loop_
  _space_group_symop_operation_xyz
  'x, y, z'

loop_
  _atom_site_type_symbol
  _atom_site_label
  _atom_site_symmetry_multiplicity
  _atom_site_fract_x
  _atom_site_fract_y
  _atom_site_fract_z
  _atom_site_occupancy
  Ir  Ir1       1.0  0.00000  0.66800  0.33200  1.0000
  Ir  Ir2       1.0  0.00000  0.33200  0.66800  1.0000
  Li  Li1       1.0  0.00000  0.00000  0.00000  1.0000
  Li  Li2       1.0  0.50000  0.84100  0.15900  1.0000
  Li  Li3       1.0  0.50000  0.50000  0.50000  1.0000
  Li  Li4       1.0  0.50000  0.15900  0.84100  1.0000
  O   O1        1.0  0.24200  0.42200  0.08130  1.0000
  O   O2        1.0  0.76300  0.26300  0.26300  1.0000
  O   O3        1.0  0.24200  0.08130  0.42200  1.0000
  O   O4        1.0  0.75800  0.91900  0.57800  1.0000
  O   O5        1.0  0.23700  0.73700  0.73700  1.0000
  O   O6        1.0  0.75800  0.57800  0.91900  1.0000
