data_image0
_chemical_formula_structural       Sn4Ti6
_chemical_formula_sum              "Sn4 Ti6"
_cell_length_a       7.6653
_cell_length_b       7.6653
_cell_length_c       6.07644
_cell_angle_alpha    129.105
_cell_angle_beta     50.8953
_cell_angle_gamma    120

_space_group_name_H-M_alt    "P 1"
_space_group_IT_number       1

loop_
  _space_group_symop_operation_xyz
  'x, y, z'

loop_
  _atom_site_type_symbol
  _atom_site_label
  _atom_site_symmetry_multiplicity
  _atom_site_fract_x
  _atom_site_fract_y
  _atom_site_fract_z
  _atom_site_occupancy
  Sn  Sn1       1.0  0.61000  0.39000  0.16900  1.0000
  Sn  Sn2       1.0  0.89000  0.11000  0.33100  1.0000
  Sn  Sn3       1.0  0.11000  0.89000  0.66900  1.0000
  Sn  Sn4       1.0  0.39000  0.61000  0.83100  1.0000
  Ti  Ti1       1.0  0.52300  0.75000  0.25000  1.0000
  Ti  Ti2       1.0  0.25000  0.02310  0.25000  1.0000
  Ti  Ti3       1.0  0.97700  0.47700  0.25000  1.0000
  Ti  Ti4       1.0  0.02310  0.52300  0.75000  1.0000
  Ti  Ti5       1.0  0.75000  0.97700  0.75000  1.0000
  Ti  Ti6       1.0  0.47700  0.25000  0.75000  1.0000
