data_image0
_chemical_formula_structural       O7Sc2Sm2Sr
_chemical_formula_sum              "O7 Sc2 Sm2 Sr1"
_cell_length_a       4.01834
_cell_length_b       4.01834
_cell_length_c       10.5283
_cell_angle_alpha    101.002
_cell_angle_beta     101.002
_cell_angle_gamma    90

_space_group_name_H-M_alt    "P 1"
_space_group_IT_number       1

loop_
  _space_group_symop_operation_xyz
  'x, y, z'

loop_
  _atom_site_type_symbol
  _atom_site_label
  _atom_site_symmetry_multiplicity
  _atom_site_fract_x
  _atom_site_fract_y
  _atom_site_fract_z
  _atom_site_occupancy
  O   O1        1.0  0.00000  0.00000  0.00000  1.0000
  O   O2        1.0  0.61100  0.11100  0.22200  1.0000
  O   O3        1.0  0.11100  0.61100  0.22200  1.0000
  O   O4        1.0  0.21000  0.21000  0.41900  1.0000
  O   O5        1.0  0.79000  0.79000  0.58100  1.0000
  O   O6        1.0  0.88900  0.38900  0.77800  1.0000
  O   O7        1.0  0.38900  0.88900  0.77800  1.0000
  Sc  Sc1       1.0  0.10100  0.10100  0.20100  1.0000
  Sc  Sc2       1.0  0.89900  0.89900  0.79900  1.0000
  Sm  Sm1       1.0  0.68300  0.68300  0.36500  1.0000
  Sm  Sm2       1.0  0.31700  0.31700  0.63500  1.0000
  Sr  Sr1       1.0  0.50000  0.50000  0.00000  1.0000
