data_image0
_chemical_formula_structural       N4O4P4
_chemical_formula_sum              "N4 O4 P4"
_cell_length_a       4.57424
_cell_length_b       4.57424
_cell_length_c       6.98251
_cell_angle_alpha    90
_cell_angle_beta     90
_cell_angle_gamma    90

_space_group_name_H-M_alt    "P 1"
_space_group_IT_number       1

loop_
  _space_group_symop_operation_xyz
  'x, y, z'

loop_
  _atom_site_type_symbol
  _atom_site_label
  _atom_site_symmetry_multiplicity
  _atom_site_fract_x
  _atom_site_fract_y
  _atom_site_fract_z
  _atom_site_occupancy
  N   N1        1.0  0.74000  0.33900  0.36500  1.0000
  N   N2        1.0  0.26000  0.66100  0.36500  1.0000
  N   N3        1.0  0.33900  0.26000  0.63500  1.0000
  N   N4        1.0  0.66100  0.74000  0.63500  1.0000
  O   O1        1.0  0.13500  0.25600  0.11500  1.0000
  O   O2        1.0  0.86500  0.74400  0.11500  1.0000
  O   O3        1.0  0.74400  0.13500  0.88500  1.0000
  O   O4        1.0  0.25600  0.86500  0.88500  1.0000
  P   P1        1.0  0.00000  0.00000  0.00000  1.0000
  P   P2        1.0  0.00000  0.50000  0.27100  1.0000
  P   P3        1.0  0.50000  0.50000  0.50000  1.0000
  P   P4        1.0  0.50000  0.00000  0.72900  1.0000
