data_image0
_chemical_formula_structural       Fe4Yb6
_chemical_formula_sum              "Fe4 Yb6"
_cell_length_a       6.74174
_cell_length_b       6.74174
_cell_length_c       7.53007
_cell_angle_alpha    116.593
_cell_angle_beta     63.4067
_cell_angle_gamma    120

_space_group_name_H-M_alt    "P 1"
_space_group_IT_number       1

loop_
  _space_group_symop_operation_xyz
  'x, y, z'

loop_
  _atom_site_type_symbol
  _atom_site_label
  _atom_site_symmetry_multiplicity
  _atom_site_fract_x
  _atom_site_fract_y
  _atom_site_fract_z
  _atom_site_occupancy
  Fe  Fe1       1.0  0.30500  0.69500  0.08630  1.0000
  Fe  Fe2       1.0  0.19500  0.80500  0.41400  1.0000
  Fe  Fe3       1.0  0.80500  0.19500  0.58600  1.0000
  Fe  Fe4       1.0  0.69500  0.30500  0.91400  1.0000
  Yb  Yb1       1.0  0.25000  0.15500  0.25000  1.0000
  Yb  Yb2       1.0  0.84500  0.34500  0.25000  1.0000
  Yb  Yb3       1.0  0.65500  0.75000  0.25000  1.0000
  Yb  Yb4       1.0  0.34500  0.25000  0.75000  1.0000
  Yb  Yb5       1.0  0.15500  0.65500  0.75000  1.0000
  Yb  Yb6       1.0  0.75000  0.84500  0.75000  1.0000
