data_image0
_chemical_formula_structural       Al2Ho2O7Sr
_chemical_formula_sum              "Al2 Ho2 O7 Sr1"
_cell_length_a       3.69408
_cell_length_b       3.69408
_cell_length_c       10.0296
_cell_angle_alpha    100.612
_cell_angle_beta     100.612
_cell_angle_gamma    90

_space_group_name_H-M_alt    "P 1"
_space_group_IT_number       1

loop_
  _space_group_symop_operation_xyz
  'x, y, z'

loop_
  _atom_site_type_symbol
  _atom_site_label
  _atom_site_symmetry_multiplicity
  _atom_site_fract_x
  _atom_site_fract_y
  _atom_site_fract_z
  _atom_site_occupancy
  Al  Al1       1.0  0.09730  0.09730  0.19500  1.0000
  Al  Al2       1.0  0.90300  0.90300  0.80500  1.0000
  Ho  Ho1       1.0  0.68200  0.68200  0.36400  1.0000
  Ho  Ho2       1.0  0.31800  0.31800  0.63600  1.0000
  O   O1        1.0  0.00000  0.00000  0.00000  1.0000
  O   O2        1.0  0.60700  0.10700  0.21300  1.0000
  O   O3        1.0  0.10700  0.60700  0.21300  1.0000
  O   O4        1.0  0.20500  0.20500  0.41100  1.0000
  O   O5        1.0  0.79500  0.79500  0.58900  1.0000
  O   O6        1.0  0.89300  0.39300  0.78700  1.0000
  O   O7        1.0  0.39300  0.89300  0.78700  1.0000
  Sr  Sr1       1.0  0.50000  0.50000  0.00000  1.0000
