data_image0
_chemical_formula_structural       Cr2Ga4Sb4
_chemical_formula_sum              "Cr2 Ga4 Sb4"
_cell_length_a       5.91915
_cell_length_b       6.00048
_cell_length_c       7.26195
_cell_angle_alpha    114.403
_cell_angle_beta     114.051
_cell_angle_gamma    90

_space_group_name_H-M_alt    "P 1"
_space_group_IT_number       1

loop_
  _space_group_symop_operation_xyz
  'x, y, z'

loop_
  _atom_site_type_symbol
  _atom_site_label
  _atom_site_symmetry_multiplicity
  _atom_site_fract_x
  _atom_site_fract_y
  _atom_site_fract_z
  _atom_site_occupancy
  Cr  Cr1       1.0  0.00320  0.00000  0.00000  1.0000
  Cr  Cr2       1.0  0.50300  0.00000  0.00000  1.0000
  Ga  Ga1       1.0  0.88300  0.39700  0.25600  1.0000
  Ga  Ga2       1.0  0.38300  0.85900  0.25600  1.0000
  Ga  Ga3       1.0  0.12700  0.14100  0.74400  1.0000
  Ga  Ga4       1.0  0.62700  0.60300  0.74400  1.0000
  Sb  Sb1       1.0  0.39000  0.40700  0.27200  1.0000
  Sb  Sb2       1.0  0.89000  0.86500  0.27200  1.0000
  Sb  Sb3       1.0  0.61800  0.13500  0.72800  1.0000
  Sb  Sb4       1.0  0.11800  0.59300  0.72800  1.0000
