data_image0
_chemical_formula_structural       Cl6GdNa3
_chemical_formula_sum              "Cl6 Gd1 Na3"
_cell_length_a       7.00961
_cell_length_b       7.00961
_cell_length_c       7.50447
_cell_angle_alpha    117.842
_cell_angle_beta     117.842
_cell_angle_gamma    60

_space_group_name_H-M_alt    "P 1"
_space_group_IT_number       1

loop_
  _space_group_symop_operation_xyz
  'x, y, z'

loop_
  _atom_site_type_symbol
  _atom_site_label
  _atom_site_symmetry_multiplicity
  _atom_site_fract_x
  _atom_site_fract_y
  _atom_site_fract_z
  _atom_site_occupancy
  Cl  Cl1       1.0  0.74200  0.10900  0.23100  1.0000
  Cl  Cl2       1.0  0.37900  0.74200  0.23100  1.0000
  Cl  Cl3       1.0  0.10900  0.37900  0.23100  1.0000
  Cl  Cl4       1.0  0.89100  0.62100  0.76900  1.0000
  Cl  Cl5       1.0  0.62100  0.25800  0.76900  1.0000
  Cl  Cl6       1.0  0.25800  0.89100  0.76900  1.0000
  Gd  Gd1       1.0  0.00000  0.00000  0.00000  1.0000
  Na  Na1       1.0  0.69100  0.69100  0.07170  1.0000
  Na  Na2       1.0  0.50000  0.50000  0.50000  1.0000
  Na  Na3       1.0  0.30900  0.30900  0.92800  1.0000
