data_image0
_chemical_formula_structural       Cr4Mg6
_chemical_formula_sum              "Cr4 Mg6"
_cell_length_a       5.81093
_cell_length_b       5.81093
_cell_length_c       8.03737
_cell_angle_alpha    111.192
_cell_angle_beta     68.808
_cell_angle_gamma    120

_space_group_name_H-M_alt    "P 1"
_space_group_IT_number       1

loop_
  _space_group_symop_operation_xyz
  'x, y, z'

loop_
  _atom_site_type_symbol
  _atom_site_label
  _atom_site_symmetry_multiplicity
  _atom_site_fract_x
  _atom_site_fract_y
  _atom_site_fract_z
  _atom_site_occupancy
  Cr  Cr1       1.0  0.31200  0.68800  0.06370  1.0000
  Cr  Cr2       1.0  0.18800  0.81200  0.43600  1.0000
  Cr  Cr3       1.0  0.81200  0.18800  0.56400  1.0000
  Cr  Cr4       1.0  0.68800  0.31200  0.93600  1.0000
  Mg  Mg1       1.0  0.25000  0.24800  0.25000  1.0000
  Mg  Mg2       1.0  0.75200  0.25200  0.25000  1.0000
  Mg  Mg3       1.0  0.74800  0.75000  0.25000  1.0000
  Mg  Mg4       1.0  0.25200  0.25000  0.75000  1.0000
  Mg  Mg5       1.0  0.24800  0.74800  0.75000  1.0000
  Mg  Mg6       1.0  0.75000  0.75200  0.75000  1.0000
