data_image0
_chemical_formula_structural       Ba2BiO6Pr
_chemical_formula_sum              "Ba2 Bi1 O6 Pr1"
_cell_length_a       6.17497
_cell_length_b       6.16633
_cell_length_c       6.20925
_cell_angle_alpha    90.3729
_cell_angle_beta     60.1825
_cell_angle_gamma    120.046

_space_group_name_H-M_alt    "P 1"
_space_group_IT_number       1

loop_
  _space_group_symop_operation_xyz
  'x, y, z'

loop_
  _atom_site_type_symbol
  _atom_site_label
  _atom_site_symmetry_multiplicity
  _atom_site_fract_x
  _atom_site_fract_y
  _atom_site_fract_z
  _atom_site_occupancy
  Ba  Ba1       1.0  0.00787  0.25600  0.24000  1.0000
  Ba  Ba2       1.0  0.99200  0.74400  0.76000  1.0000
  Bi  Bi1       1.0  0.50000  0.00000  0.00000  1.0000
  O   O1        1.0  0.02420  0.72100  0.19300  1.0000
  O   O2        1.0  0.50400  0.72100  0.19300  1.0000
  O   O3        1.0  0.42300  0.16000  0.31300  1.0000
  O   O4        1.0  0.57700  0.84000  0.68700  1.0000
  O   O5        1.0  0.49600  0.27900  0.80700  1.0000
  O   O6        1.0  0.97600  0.27900  0.80700  1.0000
  Pr  Pr1       1.0  0.50000  0.50000  0.50000  1.0000
