data_image0
_chemical_formula_structural       Nd2O7Sc2Sr
_chemical_formula_sum              "Nd2 O7 Sc2 Sr1"
_cell_length_a       4.0287
_cell_length_b       4.0287
_cell_length_c       10.6129
_cell_angle_alpha    100.931
_cell_angle_beta     100.931
_cell_angle_gamma    90.0548

_space_group_name_H-M_alt    "P 1"
_space_group_IT_number       1

loop_
  _space_group_symop_operation_xyz
  'x, y, z'

loop_
  _atom_site_type_symbol
  _atom_site_label
  _atom_site_symmetry_multiplicity
  _atom_site_fract_x
  _atom_site_fract_y
  _atom_site_fract_z
  _atom_site_occupancy
  Nd  Nd1       1.0  0.68200  0.68200  0.36500  1.0000
  Nd  Nd2       1.0  0.31800  0.31800  0.63500  1.0000
  O   O1        1.0  0.00000  0.00000  0.00000  1.0000
  O   O2        1.0  0.61000  0.11000  0.21900  1.0000
  O   O3        1.0  0.11000  0.61000  0.21900  1.0000
  O   O4        1.0  0.20800  0.20800  0.41600  1.0000
  O   O5        1.0  0.79200  0.79200  0.58400  1.0000
  O   O6        1.0  0.89000  0.39000  0.78100  1.0000
  O   O7        1.0  0.39000  0.89000  0.78100  1.0000
  Sc  Sc1       1.0  0.09950  0.09950  0.19900  1.0000
  Sc  Sc2       1.0  0.90100  0.90100  0.80100  1.0000
  Sr  Sr1       1.0  0.50000  0.50000  0.00000  1.0000
