data_image0
_chemical_formula_structural       LaNi9Y2
_chemical_formula_sum              "La1 Ni9 Y2"
_cell_length_a       5.00264
_cell_length_b       5.00264
_cell_length_c       8.63297
_cell_angle_alpha    73.1576
_cell_angle_beta     106.842
_cell_angle_gamma    120

_space_group_name_H-M_alt    "P 1"
_space_group_IT_number       1

loop_
  _space_group_symop_operation_xyz
  'x, y, z'

loop_
  _atom_site_type_symbol
  _atom_site_label
  _atom_site_symmetry_multiplicity
  _atom_site_fract_x
  _atom_site_fract_y
  _atom_site_fract_z
  _atom_site_occupancy
  La  La1       1.0  0.00000  0.00000  0.00000  1.0000
  Ni  Ni1       1.0  0.66700  0.33300  0.00166  1.0000
  Ni  Ni2       1.0  0.08240  0.41700  0.24900  1.0000
  Ni  Ni3       1.0  0.58300  0.41700  0.24900  1.0000
  Ni  Ni4       1.0  0.58300  0.91800  0.24900  1.0000
  Ni  Ni5       1.0  0.50000  0.50000  0.50000  1.0000
  Ni  Ni6       1.0  0.41700  0.08240  0.75100  1.0000
  Ni  Ni7       1.0  0.41700  0.58300  0.75100  1.0000
  Ni  Ni8       1.0  0.91800  0.58300  0.75100  1.0000
  Ni  Ni9       1.0  0.33300  0.66700  0.99800  1.0000
  Y   Y1        1.0  0.14000  0.86000  0.41900  1.0000
  Y   Y2        1.0  0.86000  0.14000  0.58100  1.0000
