data_image0
_chemical_formula_structural       Mg4Re6
_chemical_formula_sum              "Mg4 Re6"
_cell_length_a       7.61223
_cell_length_b       7.61223
_cell_length_c       5.32825
_cell_angle_alpha    135.588
_cell_angle_beta     44.4119
_cell_angle_gamma    120

_space_group_name_H-M_alt    "P 1"
_space_group_IT_number       1

loop_
  _space_group_symop_operation_xyz
  'x, y, z'

loop_
  _atom_site_type_symbol
  _atom_site_label
  _atom_site_symmetry_multiplicity
  _atom_site_fract_x
  _atom_site_fract_y
  _atom_site_fract_z
  _atom_site_occupancy
  Mg  Mg1       1.0  0.62400  0.37600  0.12700  1.0000
  Mg  Mg2       1.0  0.87600  0.12400  0.37300  1.0000
  Mg  Mg3       1.0  0.12400  0.87600  0.62700  1.0000
  Mg  Mg4       1.0  0.37600  0.62400  0.87300  1.0000
  Re  Re1       1.0  0.25000  0.07860  0.25000  1.0000
  Re  Re2       1.0  0.92100  0.42100  0.25000  1.0000
  Re  Re3       1.0  0.57900  0.75000  0.25000  1.0000
  Re  Re4       1.0  0.42100  0.25000  0.75000  1.0000
  Re  Re5       1.0  0.07860  0.57900  0.75000  1.0000
  Re  Re6       1.0  0.75000  0.92100  0.75000  1.0000
