data_image0
_chemical_formula_structural       Fe4Np6
_chemical_formula_sum              "Fe4 Np6"
_cell_length_a       6.32287
_cell_length_b       6.32287
_cell_length_c       6.52772
_cell_angle_alpha    118.967
_cell_angle_beta     61.0328
_cell_angle_gamma    120

_space_group_name_H-M_alt    "P 1"
_space_group_IT_number       1

loop_
  _space_group_symop_operation_xyz
  'x, y, z'

loop_
  _atom_site_type_symbol
  _atom_site_label
  _atom_site_symmetry_multiplicity
  _atom_site_fract_x
  _atom_site_fract_y
  _atom_site_fract_z
  _atom_site_occupancy
  Fe  Fe1       1.0  0.32300  0.67700  0.03070  1.0000
  Fe  Fe2       1.0  0.17700  0.82300  0.46900  1.0000
  Fe  Fe3       1.0  0.82300  0.17700  0.53100  1.0000
  Fe  Fe4       1.0  0.67700  0.32300  0.96900  1.0000
  Np  Np1       1.0  0.25000  0.24900  0.25000  1.0000
  Np  Np2       1.0  0.75100  0.25100  0.25000  1.0000
  Np  Np3       1.0  0.74900  0.75000  0.25000  1.0000
  Np  Np4       1.0  0.25100  0.25000  0.75000  1.0000
  Np  Np5       1.0  0.24900  0.74900  0.75000  1.0000
  Np  Np6       1.0  0.75000  0.75100  0.75000  1.0000
