data_image0
_chemical_formula_structural       La4Ti6
_chemical_formula_sum              "La4 Ti6"
_cell_length_a       7.13276
_cell_length_b       7.13276
_cell_length_c       7.05492
_cell_angle_alpha    120.366
_cell_angle_beta     59.6344
_cell_angle_gamma    120

_space_group_name_H-M_alt    "P 1"
_space_group_IT_number       1

loop_
  _space_group_symop_operation_xyz
  'x, y, z'

loop_
  _atom_site_type_symbol
  _atom_site_label
  _atom_site_symmetry_multiplicity
  _atom_site_fract_x
  _atom_site_fract_y
  _atom_site_fract_z
  _atom_site_occupancy
  La  La1       1.0  0.58700  0.41300  0.23800  1.0000
  La  La2       1.0  0.91300  0.08740  0.26200  1.0000
  La  La3       1.0  0.08740  0.91300  0.73800  1.0000
  La  La4       1.0  0.41300  0.58700  0.76200  1.0000
  Ti  Ti1       1.0  0.04380  0.54400  0.25000  1.0000
  Ti  Ti2       1.0  0.45600  0.75000  0.25000  1.0000
  Ti  Ti3       1.0  0.25000  0.95600  0.25000  1.0000
  Ti  Ti4       1.0  0.75000  0.04380  0.75000  1.0000
  Ti  Ti5       1.0  0.54400  0.25000  0.75000  1.0000
  Ti  Ti6       1.0  0.95600  0.45600  0.75000  1.0000
