data_image0
_chemical_formula_structural       Fe4U6
_chemical_formula_sum              "Fe4 U6"
_cell_length_a       6.3829
_cell_length_b       6.3829
_cell_length_c       6.46423
_cell_angle_alpha    119.585
_cell_angle_beta     60.4153
_cell_angle_gamma    120

_space_group_name_H-M_alt    "P 1"
_space_group_IT_number       1

loop_
  _space_group_symop_operation_xyz
  'x, y, z'

loop_
  _atom_site_type_symbol
  _atom_site_label
  _atom_site_symmetry_multiplicity
  _atom_site_fract_x
  _atom_site_fract_y
  _atom_site_fract_z
  _atom_site_occupancy
  Fe  Fe1       1.0  0.32400  0.67600  0.02710  1.0000
  Fe  Fe2       1.0  0.17600  0.82400  0.47300  1.0000
  Fe  Fe3       1.0  0.82400  0.17600  0.52700  1.0000
  Fe  Fe4       1.0  0.67600  0.32400  0.97300  1.0000
  U   U1        1.0  0.25000  0.20900  0.25000  1.0000
  U   U2        1.0  0.79100  0.29100  0.25000  1.0000
  U   U3        1.0  0.70900  0.75000  0.25000  1.0000
  U   U4        1.0  0.29100  0.25000  0.75000  1.0000
  U   U5        1.0  0.20900  0.70900  0.75000  1.0000
  U   U6        1.0  0.75000  0.79100  0.75000  1.0000
