data_image0
_chemical_formula_structural       O7Pr2Sc2Sr
_chemical_formula_sum              "O7 Pr2 Sc2 Sr1"
_cell_length_a       4.03737
_cell_length_b       4.03737
_cell_length_c       10.6684
_cell_angle_alpha    100.888
_cell_angle_beta     100.888
_cell_angle_gamma    90.0997

_space_group_name_H-M_alt    "P 1"
_space_group_IT_number       1

loop_
  _space_group_symop_operation_xyz
  'x, y, z'

loop_
  _atom_site_type_symbol
  _atom_site_label
  _atom_site_symmetry_multiplicity
  _atom_site_fract_x
  _atom_site_fract_y
  _atom_site_fract_z
  _atom_site_occupancy
  O   O1        1.0  0.00000  0.00000  0.00000  1.0000
  O   O2        1.0  0.60900  0.10900  0.21700  1.0000
  O   O3        1.0  0.10900  0.60900  0.21700  1.0000
  O   O4        1.0  0.20700  0.20700  0.41500  1.0000
  O   O5        1.0  0.79300  0.79300  0.58500  1.0000
  O   O6        1.0  0.89100  0.39100  0.78300  1.0000
  O   O7        1.0  0.39100  0.89100  0.78300  1.0000
  Pr  Pr1       1.0  0.68200  0.68200  0.36500  1.0000
  Pr  Pr2       1.0  0.31800  0.31800  0.63500  1.0000
  Sc  Sc1       1.0  0.09870  0.09870  0.19700  1.0000
  Sc  Sc2       1.0  0.90100  0.90100  0.80300  1.0000
  Sr  Sr1       1.0  0.50000  0.50000  0.00000  1.0000
