data_image0
_chemical_formula_structural       Ga2Ni6Te4
_chemical_formula_sum              "Ga2 Ni6 Te4"
_cell_length_a       3.9817
_cell_length_b       3.9817
_cell_length_c       16.06
_cell_angle_alpha    90
_cell_angle_beta     90
_cell_angle_gamma    120

_space_group_name_H-M_alt    "P 1"
_space_group_IT_number       1

loop_
  _space_group_symop_operation_xyz
  'x, y, z'

loop_
  _atom_site_type_symbol
  _atom_site_label
  _atom_site_symmetry_multiplicity
  _atom_site_fract_x
  _atom_site_fract_y
  _atom_site_fract_z
  _atom_site_occupancy
  Ga  Ga1       1.0  0.66700  0.33300  0.25000  1.0000
  Ga  Ga2       1.0  0.33300  0.66700  0.75000  1.0000
  Ni  Ni1       1.0  0.00000  0.00000  0.16700  1.0000
  Ni  Ni2       1.0  0.33300  0.66700  0.25000  1.0000
  Ni  Ni3       1.0  0.00000  0.00000  0.33300  1.0000
  Ni  Ni4       1.0  0.00000  0.00000  0.66700  1.0000
  Ni  Ni5       1.0  0.66700  0.33300  0.75000  1.0000
  Ni  Ni6       1.0  0.00000  0.00000  0.83300  1.0000
  Te  Te1       1.0  0.33300  0.66700  0.09230  1.0000
  Te  Te2       1.0  0.33300  0.66700  0.40800  1.0000
  Te  Te3       1.0  0.66700  0.33300  0.59200  1.0000
  Te  Te4       1.0  0.66700  0.33300  0.90800  1.0000
