data_image0
_chemical_formula_structural       Ge4Mg6
_chemical_formula_sum              "Ge4 Mg6"
_cell_length_a       7.61259
_cell_length_b       7.61259
_cell_length_c       6.12386
_cell_angle_alpha    128.43
_cell_angle_beta     51.5705
_cell_angle_gamma    120

_space_group_name_H-M_alt    "P 1"
_space_group_IT_number       1

loop_
  _space_group_symop_operation_xyz
  'x, y, z'

loop_
  _atom_site_type_symbol
  _atom_site_label
  _atom_site_symmetry_multiplicity
  _atom_site_fract_x
  _atom_site_fract_y
  _atom_site_fract_z
  _atom_site_occupancy
  Ge  Ge1       1.0  0.63300  0.36700  0.10000  1.0000
  Ge  Ge2       1.0  0.86700  0.13300  0.40000  1.0000
  Ge  Ge3       1.0  0.13300  0.86700  0.60000  1.0000
  Ge  Ge4       1.0  0.36700  0.63300  0.90000  1.0000
  Mg  Mg1       1.0  0.55900  0.75000  0.25000  1.0000
  Mg  Mg2       1.0  0.94100  0.44100  0.25000  1.0000
  Mg  Mg3       1.0  0.25000  0.05910  0.25000  1.0000
  Mg  Mg4       1.0  0.75000  0.94100  0.75000  1.0000
  Mg  Mg5       1.0  0.05910  0.55900  0.75000  1.0000
  Mg  Mg6       1.0  0.44100  0.25000  0.75000  1.0000
