data_image0
_chemical_formula_structural       Ge4Ti6
_chemical_formula_sum              "Ge4 Ti6"
_cell_length_a       7.23596
_cell_length_b       7.23596
_cell_length_c       5.65968
_cell_angle_alpha    129.736
_cell_angle_beta     50.2637
_cell_angle_gamma    120

_space_group_name_H-M_alt    "P 1"
_space_group_IT_number       1

loop_
  _space_group_symop_operation_xyz
  'x, y, z'

loop_
  _atom_site_type_symbol
  _atom_site_label
  _atom_site_symmetry_multiplicity
  _atom_site_fract_x
  _atom_site_fract_y
  _atom_site_fract_z
  _atom_site_occupancy
  Ge  Ge1       1.0  0.60700  0.39300  0.17900  1.0000
  Ge  Ge2       1.0  0.89300  0.10700  0.32100  1.0000
  Ge  Ge3       1.0  0.10700  0.89300  0.67900  1.0000
  Ge  Ge4       1.0  0.39300  0.60700  0.82100  1.0000
  Ti  Ti1       1.0  0.25000  0.02150  0.25000  1.0000
  Ti  Ti2       1.0  0.52100  0.75000  0.25000  1.0000
  Ti  Ti3       1.0  0.97900  0.47900  0.25000  1.0000
  Ti  Ti4       1.0  0.02150  0.52100  0.75000  1.0000
  Ti  Ti5       1.0  0.47900  0.25000  0.75000  1.0000
  Ti  Ti6       1.0  0.75000  0.97900  0.75000  1.0000
