data_image0
_chemical_formula_structural       C2CaMnO6
_chemical_formula_sum              "C2 Ca1 Mn1 O6"
_cell_length_a       4.89312
_cell_length_b       4.89312
_cell_length_c       6.03371
_cell_angle_alpha    90
_cell_angle_beta     113.921
_cell_angle_gamma    120

_space_group_name_H-M_alt    "P 1"
_space_group_IT_number       1

loop_
  _space_group_symop_operation_xyz
  'x, y, z'

loop_
  _atom_site_type_symbol
  _atom_site_label
  _atom_site_symmetry_multiplicity
  _atom_site_fract_x
  _atom_site_fract_y
  _atom_site_fract_z
  _atom_site_occupancy
  C   C1        1.0  0.49100  0.74500  0.23600  1.0000
  C   C2        1.0  0.50900  0.25500  0.76400  1.0000
  Ca  Ca1       1.0  0.00000  0.50000  0.50000  1.0000
  Mn  Mn1       1.0  0.00000  0.00000  0.00000  1.0000
  O   O1        1.0  0.47500  0.00165  0.23900  1.0000
  O   O2        1.0  0.76500  0.76400  0.23900  1.0000
  O   O3        1.0  0.23700  0.47300  0.23900  1.0000
  O   O4        1.0  0.52500  0.99800  0.76100  1.0000
  O   O5        1.0  0.76300  0.52700  0.76100  1.0000
  O   O6        1.0  0.23500  0.23600  0.76100  1.0000
