data_image0
_chemical_formula_structural       Fe4Pd6
_chemical_formula_sum              "Fe4 Pd6"
_cell_length_a       6.60071
_cell_length_b       6.60071
_cell_length_c       5.58717
_cell_angle_alpha    126.207
_cell_angle_beta     53.7931
_cell_angle_gamma    120

_space_group_name_H-M_alt    "P 1"
_space_group_IT_number       1

loop_
  _space_group_symop_operation_xyz
  'x, y, z'

loop_
  _atom_site_type_symbol
  _atom_site_label
  _atom_site_symmetry_multiplicity
  _atom_site_fract_x
  _atom_site_fract_y
  _atom_site_fract_z
  _atom_site_occupancy
  Fe  Fe1       1.0  0.59400  0.40600  0.21700  1.0000
  Fe  Fe2       1.0  0.90600  0.09440  0.28300  1.0000
  Fe  Fe3       1.0  0.09440  0.90600  0.71700  1.0000
  Fe  Fe4       1.0  0.40600  0.59400  0.78300  1.0000
  Pd  Pd1       1.0  0.25000  0.01010  0.25000  1.0000
  Pd  Pd2       1.0  0.99000  0.49000  0.25000  1.0000
  Pd  Pd3       1.0  0.51000  0.75000  0.25000  1.0000
  Pd  Pd4       1.0  0.49000  0.25000  0.75000  1.0000
  Pd  Pd5       1.0  0.01010  0.51000  0.75000  1.0000
  Pd  Pd6       1.0  0.75000  0.99000  0.75000  1.0000
