data_image0
_chemical_formula_structural       P2Se6Zn2
_chemical_formula_sum              "P2 Se6 Zn2"
_cell_length_a       6.34544
_cell_length_b       6.34544
_cell_length_c       7.90776
_cell_angle_alpha    90
_cell_angle_beta     113.654
_cell_angle_gamma    60

_space_group_name_H-M_alt    "P 1"
_space_group_IT_number       1

loop_
  _space_group_symop_operation_xyz
  'x, y, z'

loop_
  _atom_site_type_symbol
  _atom_site_label
  _atom_site_symmetry_multiplicity
  _atom_site_fract_x
  _atom_site_fract_y
  _atom_site_fract_z
  _atom_site_occupancy
  P   P1        1.0  0.89300  0.55400  0.33900  1.0000
  P   P2        1.0  0.10700  0.44600  0.66100  1.0000
  Se  Se1       1.0  0.84100  0.24200  0.25800  1.0000
  Se  Se2       1.0  0.50000  0.91700  0.25800  1.0000
  Se  Se3       1.0  0.17500  0.58300  0.25800  1.0000
  Se  Se4       1.0  0.82500  0.41700  0.74200  1.0000
  Se  Se5       1.0  0.50000  0.08330  0.74200  1.0000
  Se  Se6       1.0  0.15900  0.75800  0.74200  1.0000
  Zn  Zn1       1.0  0.66400  0.16800  0.49700  1.0000
  Zn  Zn2       1.0  0.33600  0.83200  0.50300  1.0000
