data_image0
_chemical_formula_structural       Ba2In2O6Sr
_chemical_formula_sum              "Ba2 In2 O6 Sr1"
_cell_length_a       4.17318
_cell_length_b       4.17318
_cell_length_c       10.9637
_cell_angle_alpha    100.971
_cell_angle_beta     100.971
_cell_angle_gamma    90

_space_group_name_H-M_alt    "P 1"
_space_group_IT_number       1

loop_
  _space_group_symop_operation_xyz
  'x, y, z'

loop_
  _atom_site_type_symbol
  _atom_site_label
  _atom_site_symmetry_multiplicity
  _atom_site_fract_x
  _atom_site_fract_y
  _atom_site_fract_z
  _atom_site_occupancy
  Ba  Ba1       1.0  0.68100  0.68100  0.36200  1.0000
  Ba  Ba2       1.0  0.31900  0.31900  0.63800  1.0000
  In  In1       1.0  0.09690  0.09690  0.19400  1.0000
  In  In2       1.0  0.90300  0.90300  0.80600  1.0000
  O   O1        1.0  0.57700  0.07680  0.15400  1.0000
  O   O2        1.0  0.07680  0.57700  0.15400  1.0000
  O   O3        1.0  0.19700  0.19700  0.39400  1.0000
  O   O4        1.0  0.80300  0.80300  0.60600  1.0000
  O   O5        1.0  0.92300  0.42300  0.84600  1.0000
  O   O6        1.0  0.42300  0.92300  0.84600  1.0000
  Sr  Sr1       1.0  0.50000  0.50000  0.00000  1.0000
