data_image0
_chemical_formula_structural       Rb4Ti6
_chemical_formula_sum              "Rb4 Ti6"
_cell_length_a       9.32173
_cell_length_b       9.32173
_cell_length_c       6.60681
_cell_angle_alpha    134.867
_cell_angle_beta     45.133
_cell_angle_gamma    120

_space_group_name_H-M_alt    "P 1"
_space_group_IT_number       1

loop_
  _space_group_symop_operation_xyz
  'x, y, z'

loop_
  _atom_site_type_symbol
  _atom_site_label
  _atom_site_symmetry_multiplicity
  _atom_site_fract_x
  _atom_site_fract_y
  _atom_site_fract_z
  _atom_site_occupancy
  Rb  Rb1       1.0  0.62500  0.37500  0.12500  1.0000
  Rb  Rb2       1.0  0.87500  0.12500  0.37500  1.0000
  Rb  Rb3       1.0  0.12500  0.87500  0.62500  1.0000
  Rb  Rb4       1.0  0.37500  0.62500  0.87500  1.0000
  Ti  Ti1       1.0  0.91800  0.41800  0.25000  1.0000
  Ti  Ti2       1.0  0.58200  0.75000  0.25000  1.0000
  Ti  Ti3       1.0  0.25000  0.08200  0.25000  1.0000
  Ti  Ti4       1.0  0.75000  0.91800  0.75000  1.0000
  Ti  Ti5       1.0  0.41800  0.25000  0.75000  1.0000
  Ti  Ti6       1.0  0.08200  0.58200  0.75000  1.0000
