data_image0
_chemical_formula_structural       Th4Ti6
_chemical_formula_sum              "Th4 Ti6"
_cell_length_a       8.34622
_cell_length_b       8.34622
_cell_length_c       6.16686
_cell_angle_alpha    132.586
_cell_angle_beta     47.4138
_cell_angle_gamma    120

_space_group_name_H-M_alt    "P 1"
_space_group_IT_number       1

loop_
  _space_group_symop_operation_xyz
  'x, y, z'

loop_
  _atom_site_type_symbol
  _atom_site_label
  _atom_site_symmetry_multiplicity
  _atom_site_fract_x
  _atom_site_fract_y
  _atom_site_fract_z
  _atom_site_occupancy
  Th  Th1       1.0  0.62600  0.37400  0.12200  1.0000
  Th  Th2       1.0  0.87400  0.12600  0.37800  1.0000
  Th  Th3       1.0  0.12600  0.87400  0.62200  1.0000
  Th  Th4       1.0  0.37400  0.62600  0.87800  1.0000
  Ti  Ti1       1.0  0.91700  0.41700  0.25000  1.0000
  Ti  Ti2       1.0  0.58300  0.75000  0.25000  1.0000
  Ti  Ti3       1.0  0.25000  0.08260  0.25000  1.0000
  Ti  Ti4       1.0  0.75000  0.91700  0.75000  1.0000
  Ti  Ti5       1.0  0.41700  0.25000  0.75000  1.0000
  Ti  Ti6       1.0  0.08260  0.58300  0.75000  1.0000
