data_image0
_chemical_formula_structural       Mn2O7PV
_chemical_formula_sum              "Mn2 O7 P1 V1"
_cell_length_a       4.66325
_cell_length_b       5.46971
_cell_length_c       5.46971
_cell_angle_alpha    105.119
_cell_angle_beta     97.8337
_cell_angle_gamma    97.8337

_space_group_name_H-M_alt    "P 1"
_space_group_IT_number       1

loop_
  _space_group_symop_operation_xyz
  'x, y, z'

loop_
  _atom_site_type_symbol
  _atom_site_label
  _atom_site_symmetry_multiplicity
  _atom_site_fract_x
  _atom_site_fract_y
  _atom_site_fract_z
  _atom_site_occupancy
  Mn  Mn1       1.0  0.68900  0.81400  0.20100  1.0000
  Mn  Mn2       1.0  0.68900  0.20100  0.81400  1.0000
  O   O1        1.0  0.47700  0.43700  0.10300  1.0000
  O   O2        1.0  0.93500  0.12900  0.12900  1.0000
  O   O3        1.0  0.47700  0.10300  0.43700  1.0000
  O   O4        1.0  0.21300  0.53700  0.53700  1.0000
  O   O5        1.0  0.91100  0.88800  0.59400  1.0000
  O   O6        1.0  0.91100  0.59400  0.88800  1.0000
  O   O7        1.0  0.37400  0.91600  0.91600  1.0000
  P   P1        1.0  0.09530  0.73900  0.73900  1.0000
  V   V1        1.0  0.28200  0.28100  0.28100  1.0000
