data_image0
_chemical_formula_structural       Eu4Mg4Tl4
_chemical_formula_sum              "Eu4 Mg4 Tl4"
_cell_length_a       7.99711
_cell_length_b       4.93307
_cell_length_c       8.72507
_cell_angle_alpha    90
_cell_angle_beta     90
_cell_angle_gamma    90

_space_group_name_H-M_alt    "P 1"
_space_group_IT_number       1

loop_
  _space_group_symop_operation_xyz
  'x, y, z'

loop_
  _atom_site_type_symbol
  _atom_site_label
  _atom_site_symmetry_multiplicity
  _atom_site_fract_x
  _atom_site_fract_y
  _atom_site_fract_z
  _atom_site_occupancy
  Eu  Eu1       1.0  0.49100  0.75000  0.19100  1.0000
  Eu  Eu2       1.0  0.99100  0.75000  0.30900  1.0000
  Eu  Eu3       1.0  0.00890  0.25000  0.69100  1.0000
  Eu  Eu4       1.0  0.50900  0.25000  0.80900  1.0000
  Mg  Mg1       1.0  0.16000  0.25000  0.06880  1.0000
  Mg  Mg2       1.0  0.66000  0.25000  0.43100  1.0000
  Mg  Mg3       1.0  0.34000  0.75000  0.56900  1.0000
  Mg  Mg4       1.0  0.84000  0.75000  0.93100  1.0000
  Tl  Tl1       1.0  0.78300  0.25000  0.10800  1.0000
  Tl  Tl2       1.0  0.28300  0.25000  0.39200  1.0000
  Tl  Tl3       1.0  0.71700  0.75000  0.60800  1.0000
  Tl  Tl4       1.0  0.21700  0.75000  0.89200  1.0000
