data_image0
_chemical_formula_structural       Mg2P2S6
_chemical_formula_sum              "Mg2 P2 S6"
_cell_length_a       6.08734
_cell_length_b       6.08906
_cell_length_c       6.95665
_cell_angle_alpha    98.2681
_cell_angle_beta     106.72
_cell_angle_gamma    60.0093

_space_group_name_H-M_alt    "P 1"
_space_group_IT_number       1

loop_
  _space_group_symop_operation_xyz
  'x, y, z'

loop_
  _atom_site_type_symbol
  _atom_site_label
  _atom_site_symmetry_multiplicity
  _atom_site_fract_x
  _atom_site_fract_y
  _atom_site_fract_z
  _atom_site_occupancy
  Mg  Mg1       1.0  0.33300  0.33400  0.00000  1.0000
  Mg  Mg2       1.0  0.66700  0.66600  0.00000  1.0000
  P   P1        1.0  0.05500  0.00000  0.16600  1.0000
  P   P2        1.0  0.94500  0.00000  0.83400  1.0000
  S   S1        1.0  0.75600  0.00000  0.24400  1.0000
  S   S2        1.0  0.08080  0.32400  0.24500  1.0000
  S   S3        1.0  0.40500  0.67600  0.24500  1.0000
  S   S4        1.0  0.59500  0.32400  0.75500  1.0000
  S   S5        1.0  0.91900  0.67600  0.75500  1.0000
  S   S6        1.0  0.24400  0.00000  0.75600  1.0000
