data_image0
_chemical_formula_structural       B6C3ScU2
_chemical_formula_sum              "B6 C3 Sc1 U2"
_cell_length_a       6.50902
_cell_length_b       6.50902
_cell_length_c       3.39099
_cell_angle_alpha    90
_cell_angle_beta     90
_cell_angle_gamma    120

_space_group_name_H-M_alt    "P 1"
_space_group_IT_number       1

loop_
  _space_group_symop_operation_xyz
  'x, y, z'

loop_
  _atom_site_type_symbol
  _atom_site_label
  _atom_site_symmetry_multiplicity
  _atom_site_fract_x
  _atom_site_fract_y
  _atom_site_fract_z
  _atom_site_occupancy
  B   B1        1.0  0.27100  0.00000  0.50000  1.0000
  B   B2        1.0  0.72900  0.00000  0.50000  1.0000
  B   B3        1.0  0.27100  0.27100  0.50000  1.0000
  B   B4        1.0  0.00000  0.27100  0.50000  1.0000
  B   B5        1.0  0.72900  0.72900  0.50000  1.0000
  B   B6        1.0  0.00000  0.72900  0.50000  1.0000
  C   C1        1.0  0.50000  0.00000  0.50000  1.0000
  C   C2        1.0  0.50000  0.50000  0.50000  1.0000
  C   C3        1.0  0.00000  0.50000  0.50000  1.0000
  Sc  Sc1       1.0  0.00000  0.00000  0.00000  1.0000
  U   U1        1.0  0.66700  0.33300  0.00000  1.0000
  U   U2        1.0  0.33300  0.66700  0.00000  1.0000
