data_image0
_chemical_formula_structural       Ba2Ca2Cd2Sb4
_chemical_formula_sum              "Ba2 Ca2 Cd2 Sb4"
_cell_length_a       4.77755
_cell_length_b       7.45767
_cell_length_c       9.70948
_cell_angle_alpha    90
_cell_angle_beta     75.7576
_cell_angle_gamma    90

_space_group_name_H-M_alt    "P 1"
_space_group_IT_number       1

loop_
  _space_group_symop_operation_xyz
  'x, y, z'

loop_
  _atom_site_type_symbol
  _atom_site_label
  _atom_site_symmetry_multiplicity
  _atom_site_fract_x
  _atom_site_fract_y
  _atom_site_fract_z
  _atom_site_occupancy
  Ba  Ba1       1.0  0.30200  0.52400  0.39600  1.0000
  Ba  Ba2       1.0  0.69800  0.02400  0.60400  1.0000
  Ca  Ca1       1.0  0.47900  0.22400  0.04190  1.0000
  Ca  Ca2       1.0  0.52100  0.72400  0.95800  1.0000
  Cd  Cd1       1.0  0.90500  0.89400  0.18900  1.0000
  Cd  Cd2       1.0  0.09460  0.39400  0.81100  1.0000
  Sb  Sb1       1.0  0.94100  0.50500  0.11800  1.0000
  Sb  Sb2       1.0  0.33300  0.00742  0.33400  1.0000
  Sb  Sb3       1.0  0.66700  0.50700  0.66600  1.0000
  Sb  Sb4       1.0  0.05900  0.00537  0.88200  1.0000
