data_image0
_chemical_formula_structural       GdNaO8W2
_chemical_formula_sum              "Gd1 Na1 O8 W2"
_cell_length_a       5.21176
_cell_length_b       5.21176
_cell_length_c       6.70657
_cell_angle_alpha    112.865
_cell_angle_beta     112.865
_cell_angle_gamma    90

_space_group_name_H-M_alt    "P 1"
_space_group_IT_number       1

loop_
  _space_group_symop_operation_xyz
  'x, y, z'

loop_
  _atom_site_type_symbol
  _atom_site_label
  _atom_site_symmetry_multiplicity
  _atom_site_fract_x
  _atom_site_fract_y
  _atom_site_fract_z
  _atom_site_occupancy
  Gd  Gd1       1.0  0.50000  0.50000  0.00000  1.0000
  Na  Na1       1.0  0.75000  0.25000  0.50000  1.0000
  O   O1        1.0  0.32800  0.25200  0.17000  1.0000
  O   O2        1.0  0.84200  0.91800  0.17000  1.0000
  O   O3        1.0  0.91800  0.50400  0.31900  1.0000
  O   O4        1.0  0.40100  0.81500  0.31900  1.0000
  O   O5        1.0  0.18500  0.08170  0.68100  1.0000
  O   O6        1.0  0.49600  0.59900  0.68100  1.0000
  O   O7        1.0  0.74800  0.15800  0.83000  1.0000
  O   O8        1.0  0.08170  0.67200  0.83000  1.0000
  W   W1        1.0  0.00000  0.00000  0.00000  1.0000
  W   W2        1.0  0.25000  0.75000  0.50000  1.0000
