data_image0
_chemical_formula_structural       Eu2O8W2
_chemical_formula_sum              "Eu2 O8 W2"
_cell_length_a       6.83407
_cell_length_b       5.28259
_cell_length_c       5.28259
_cell_angle_alpha    90
_cell_angle_beta     112.736
_cell_angle_gamma    112.736

_space_group_name_H-M_alt    "P 1"
_space_group_IT_number       1

loop_
  _space_group_symop_operation_xyz
  'x, y, z'

loop_
  _atom_site_type_symbol
  _atom_site_label
  _atom_site_symmetry_multiplicity
  _atom_site_fract_x
  _atom_site_fract_y
  _atom_site_fract_z
  _atom_site_occupancy
  Eu  Eu1       1.0  0.75000  0.37500  0.12500  1.0000
  Eu  Eu2       1.0  0.25000  0.62500  0.87500  1.0000
  O   O1        1.0  0.07660  0.27900  0.13400  1.0000
  O   O2        1.0  0.42300  0.05770  0.22100  1.0000
  O   O3        1.0  0.57700  0.63400  0.29800  1.0000
  O   O4        1.0  0.07660  0.79800  0.44200  1.0000
  O   O5        1.0  0.92300  0.20200  0.55800  1.0000
  O   O6        1.0  0.42300  0.36600  0.70200  1.0000
  O   O7        1.0  0.57700  0.94200  0.77900  1.0000
  O   O8        1.0  0.92300  0.72100  0.86600  1.0000
  W   W1        1.0  0.25000  0.12500  0.37500  1.0000
  W   W2        1.0  0.75000  0.87500  0.62500  1.0000
