data_image0
_chemical_formula_structural       CuF6Sn
_chemical_formula_sum              "Cu1 F6 Sn1"
_cell_length_a       5.32699
_cell_length_b       4.88501
_cell_length_c       4.93204
_cell_angle_alpha    120.638
_cell_angle_beta     90.3808
_cell_angle_gamma    116.28

_space_group_name_H-M_alt    "P 1"
_space_group_IT_number       1

loop_
  _space_group_symop_operation_xyz
  'x, y, z'

loop_
  _atom_site_type_symbol
  _atom_site_label
  _atom_site_symmetry_multiplicity
  _atom_site_fract_x
  _atom_site_fract_y
  _atom_site_fract_z
  _atom_site_occupancy
  Cu  Cu1       1.0  0.00000  0.00000  0.00000  1.0000
  F   F1        1.0  0.25100  0.83000  0.08040  1.0000
  F   F2        1.0  0.75100  0.83200  0.25100  1.0000
  F   F3        1.0  0.25200  0.50100  0.41700  1.0000
  F   F4        1.0  0.74800  0.49900  0.58300  1.0000
  F   F5        1.0  0.24900  0.16800  0.74900  1.0000
  F   F6        1.0  0.74900  0.17000  0.92000  1.0000
  Sn  Sn1       1.0  0.50000  0.00000  0.50000  1.0000
