data_image0
_chemical_formula_structural       CsSe6U2
_chemical_formula_sum              "Cs1 Se6 U2"
_cell_length_a       12.2033
_cell_length_b       4.04261
_cell_length_c       5.56166
_cell_angle_alpha    90
_cell_angle_beta     103.172
_cell_angle_gamma    99.5342

_space_group_name_H-M_alt    "P 1"
_space_group_IT_number       1

loop_
  _space_group_symop_operation_xyz
  'x, y, z'

loop_
  _atom_site_type_symbol
  _atom_site_label
  _atom_site_symmetry_multiplicity
  _atom_site_fract_x
  _atom_site_fract_y
  _atom_site_fract_z
  _atom_site_occupancy
  Cs  Cs1       1.0  0.00000  0.00000  0.00000  1.0000
  Se  Se1       1.0  0.76400  0.38200  0.13300  1.0000
  Se  Se2       1.0  0.45500  0.22800  0.22800  1.0000
  Se  Se3       1.0  0.23600  0.61800  0.36900  1.0000
  Se  Se4       1.0  0.76400  0.38200  0.63100  1.0000
  Se  Se5       1.0  0.54500  0.77200  0.77200  1.0000
  Se  Se6       1.0  0.23600  0.61800  0.86700  1.0000
  U   U1        1.0  0.63000  0.81500  0.31500  1.0000
  U   U2        1.0  0.37000  0.18500  0.68500  1.0000
