data_image0
_chemical_formula_structural       Ho4Mg6
_chemical_formula_sum              "Ho4 Mg6"
_cell_length_a       9.18852
_cell_length_b       9.18852
_cell_length_c       6.60458
_cell_angle_alpha    134.076
_cell_angle_beta     45.9236
_cell_angle_gamma    120

_space_group_name_H-M_alt    "P 1"
_space_group_IT_number       1

loop_
  _space_group_symop_operation_xyz
  'x, y, z'

loop_
  _atom_site_type_symbol
  _atom_site_label
  _atom_site_symmetry_multiplicity
  _atom_site_fract_x
  _atom_site_fract_y
  _atom_site_fract_z
  _atom_site_occupancy
  Ho  Ho1       1.0  0.62500  0.37500  0.12600  1.0000
  Ho  Ho2       1.0  0.87500  0.12500  0.37400  1.0000
  Ho  Ho3       1.0  0.12500  0.87500  0.62600  1.0000
  Ho  Ho4       1.0  0.37500  0.62500  0.87400  1.0000
  Mg  Mg1       1.0  0.25000  0.06910  0.25000  1.0000
  Mg  Mg2       1.0  0.93100  0.43100  0.25000  1.0000
  Mg  Mg3       1.0  0.56900  0.75000  0.25000  1.0000
  Mg  Mg4       1.0  0.43100  0.25000  0.75000  1.0000
  Mg  Mg5       1.0  0.06910  0.56900  0.75000  1.0000
  Mg  Mg6       1.0  0.75000  0.93100  0.75000  1.0000
