data_image0
_chemical_formula_structural       B6Ir4
_chemical_formula_sum              "B6 Ir4"
_cell_length_a       3.13713
_cell_length_b       5.46908
_cell_length_c       6.20132
_cell_angle_alpha    90.4185
_cell_angle_beta     90
_cell_angle_gamma    106.667

_space_group_name_H-M_alt    "P 1"
_space_group_IT_number       1

loop_
  _space_group_symop_operation_xyz
  'x, y, z'

loop_
  _atom_site_type_symbol
  _atom_site_label
  _atom_site_symmetry_multiplicity
  _atom_site_fract_x
  _atom_site_fract_y
  _atom_site_fract_z
  _atom_site_occupancy
  B   B1        1.0  0.73900  0.47900  0.07320  1.0000
  B   B2        1.0  0.55900  0.11700  0.38500  1.0000
  B   B3        1.0  0.17500  0.35000  0.47400  1.0000
  B   B4        1.0  0.82500  0.65000  0.52600  1.0000
  B   B5        1.0  0.44100  0.88300  0.61500  1.0000
  B   B6        1.0  0.26100  0.52100  0.92700  1.0000
  Ir  Ir1       1.0  0.10100  0.20300  0.14800  1.0000
  Ir  Ir2       1.0  0.35900  0.71800  0.29700  1.0000
  Ir  Ir3       1.0  0.64100  0.28200  0.70300  1.0000
  Ir  Ir4       1.0  0.89900  0.79700  0.85200  1.0000
