data_image0
_chemical_formula_structural       Cu4Fe6
_chemical_formula_sum              "Cu4 Fe6"
_cell_length_a       6.01106
_cell_length_b       6.01106
_cell_length_c       5.46296
_cell_angle_alpha    123.378
_cell_angle_beta     56.6217
_cell_angle_gamma    120

_space_group_name_H-M_alt    "P 1"
_space_group_IT_number       1

loop_
  _space_group_symop_operation_xyz
  'x, y, z'

loop_
  _atom_site_type_symbol
  _atom_site_label
  _atom_site_symmetry_multiplicity
  _atom_site_fract_x
  _atom_site_fract_y
  _atom_site_fract_z
  _atom_site_occupancy
  Cu  Cu1       1.0  0.58900  0.41100  0.23200  1.0000
  Cu  Cu2       1.0  0.91100  0.08940  0.26800  1.0000
  Cu  Cu3       1.0  0.08940  0.91100  0.73200  1.0000
  Cu  Cu4       1.0  0.41100  0.58900  0.76800  1.0000
  Fe  Fe1       1.0  0.25000  0.98300  0.25000  1.0000
  Fe  Fe2       1.0  0.48300  0.75000  0.25000  1.0000
  Fe  Fe3       1.0  0.01690  0.51700  0.25000  1.0000
  Fe  Fe4       1.0  0.98300  0.48300  0.75000  1.0000
  Fe  Fe5       1.0  0.51700  0.25000  0.75000  1.0000
  Fe  Fe6       1.0  0.75000  0.01690  0.75000  1.0000
