data_image0
_chemical_formula_structural       Ni4Pa6
_chemical_formula_sum              "Ni4 Pa6"
_cell_length_a       6.14111
_cell_length_b       6.14111
_cell_length_c       7.31631
_cell_angle_alpha    114.815
_cell_angle_beta     65.1852
_cell_angle_gamma    120

_space_group_name_H-M_alt    "P 1"
_space_group_IT_number       1

loop_
  _space_group_symop_operation_xyz
  'x, y, z'

loop_
  _atom_site_type_symbol
  _atom_site_label
  _atom_site_symmetry_multiplicity
  _atom_site_fract_x
  _atom_site_fract_y
  _atom_site_fract_z
  _atom_site_occupancy
  Ni  Ni1       1.0  0.31200  0.68800  0.06530  1.0000
  Ni  Ni2       1.0  0.18800  0.81200  0.43500  1.0000
  Ni  Ni3       1.0  0.81200  0.18800  0.56500  1.0000
  Ni  Ni4       1.0  0.68800  0.31200  0.93500  1.0000
  Pa  Pa1       1.0  0.25000  0.16800  0.25000  1.0000
  Pa  Pa2       1.0  0.83200  0.33200  0.25000  1.0000
  Pa  Pa3       1.0  0.66800  0.75000  0.25000  1.0000
  Pa  Pa4       1.0  0.33200  0.25000  0.75000  1.0000
  Pa  Pa5       1.0  0.16800  0.66800  0.75000  1.0000
  Pa  Pa6       1.0  0.75000  0.83200  0.75000  1.0000
