data_image0
_chemical_formula_structural       H9Tb4
_chemical_formula_sum              "H9 Tb4"
_cell_length_a       5.18034
_cell_length_b       5.18034
_cell_length_c       6.34928
_cell_angle_alpha    114.076
_cell_angle_beta     114.076
_cell_angle_gamma    90

_space_group_name_H-M_alt    "P 1"
_space_group_IT_number       1

loop_
  _space_group_symop_operation_xyz
  'x, y, z'

loop_
  _atom_site_type_symbol
  _atom_site_label
  _atom_site_symmetry_multiplicity
  _atom_site_fract_x
  _atom_site_fract_y
  _atom_site_fract_z
  _atom_site_occupancy
  H   H1        1.0  0.00000  0.00000  0.00000  1.0000
  H   H2        1.0  0.38500  0.38500  0.25300  1.0000
  H   H3        1.0  0.86900  0.38500  0.25300  1.0000
  H   H4        1.0  0.38500  0.86900  0.25300  1.0000
  H   H5        1.0  0.86900  0.86900  0.25300  1.0000
  H   H6        1.0  0.13100  0.13100  0.74700  1.0000
  H   H7        1.0  0.61500  0.13100  0.74700  1.0000
  H   H8        1.0  0.13100  0.61500  0.74700  1.0000
  H   H9        1.0  0.61500  0.61500  0.74700  1.0000
  Tb  Tb1       1.0  0.50000  0.00000  0.00000  1.0000
  Tb  Tb2       1.0  0.00000  0.50000  0.00000  1.0000
  Tb  Tb3       1.0  0.24700  0.24700  0.49300  1.0000
  Tb  Tb4       1.0  0.75300  0.75300  0.50700  1.0000
