data_image0
_chemical_formula_structural       Ga3Mn3Tb3
_chemical_formula_sum              "Ga3 Mn3 Tb3"
_cell_length_a       7.23928
_cell_length_b       7.23927
_cell_length_c       4.17302
_cell_angle_alpha    90
_cell_angle_beta     90
_cell_angle_gamma    120.011

_space_group_name_H-M_alt    "P 1"
_space_group_IT_number       1

loop_
  _space_group_symop_operation_xyz
  'x, y, z'

loop_
  _atom_site_type_symbol
  _atom_site_label
  _atom_site_symmetry_multiplicity
  _atom_site_fract_x
  _atom_site_fract_y
  _atom_site_fract_z
  _atom_site_occupancy
  Ga  Ga1       1.0  0.66700  0.33300  0.00000  1.0000
  Ga  Ga2       1.0  0.33300  0.66700  0.00000  1.0000
  Ga  Ga3       1.0  0.00000  0.00000  0.50000  1.0000
  Mn  Mn1       1.0  0.23800  0.00000  0.00000  1.0000
  Mn  Mn2       1.0  0.00000  0.23800  0.00000  1.0000
  Mn  Mn3       1.0  0.76200  0.76200  0.00000  1.0000
  Tb  Tb1       1.0  0.59100  0.00000  0.50000  1.0000
  Tb  Tb2       1.0  0.40900  0.40900  0.50000  1.0000
  Tb  Tb3       1.0  0.00000  0.59100  0.50000  1.0000
