data_image0
_chemical_formula_structural       Cu4Si4U3
_chemical_formula_sum              "Cu4 Si4 U3"
_cell_length_a       3.94632
_cell_length_b       4.01554
_cell_length_c       12.2171
_cell_angle_alpha    99.4589
_cell_angle_beta     99.2944
_cell_angle_gamma    90

_space_group_name_H-M_alt    "P 1"
_space_group_IT_number       1

loop_
  _space_group_symop_operation_xyz
  'x, y, z'

loop_
  _atom_site_type_symbol
  _atom_site_label
  _atom_site_symmetry_multiplicity
  _atom_site_fract_x
  _atom_site_fract_y
  _atom_site_fract_z
  _atom_site_occupancy
  Cu  Cu1       1.0  0.59700  0.09660  0.19300  1.0000
  Cu  Cu2       1.0  0.75000  0.75000  0.49900  1.0000
  Cu  Cu3       1.0  0.25000  0.25000  0.50100  1.0000
  Cu  Cu4       1.0  0.40300  0.90300  0.80700  1.0000
  Si  Si1       1.0  0.54900  0.54900  0.09870  1.0000
  Si  Si2       1.0  0.69300  0.19300  0.38700  1.0000
  Si  Si3       1.0  0.30700  0.80700  0.61300  1.0000
  Si  Si4       1.0  0.45100  0.45100  0.90100  1.0000
  U   U1        1.0  0.00000  0.00000  0.00000  1.0000
  U   U2        1.0  0.14700  0.64700  0.29400  1.0000
  U   U3        1.0  0.85300  0.35300  0.70600  1.0000
