data_image0
_chemical_formula_structural       S8V5
_chemical_formula_sum              "S8 V5"
_cell_length_a       6.56807
_cell_length_b       6.56807
_cell_length_c       6.51718
_cell_angle_alpha    103.418
_cell_angle_beta     106.005
_cell_angle_gamma    119.746

_space_group_name_H-M_alt    "P 1"
_space_group_IT_number       1

loop_
  _space_group_symop_operation_xyz
  'x, y, z'

loop_
  _atom_site_type_symbol
  _atom_site_label
  _atom_site_symmetry_multiplicity
  _atom_site_fract_x
  _atom_site_fract_y
  _atom_site_fract_z
  _atom_site_occupancy
  S   S1        1.0  0.21300  0.46100  0.17400  1.0000
  S   S2        1.0  0.71400  0.96100  0.17400  1.0000
  S   S3        1.0  0.30600  0.01620  0.32200  1.0000
  S   S4        1.0  0.77400  0.55800  0.33200  1.0000
  S   S5        1.0  0.22600  0.44200  0.66800  1.0000
  S   S6        1.0  0.69400  0.98400  0.67800  1.0000
  S   S7        1.0  0.28600  0.03920  0.82600  1.0000
  S   S8        1.0  0.78700  0.53900  0.82600  1.0000
  V   V1        1.0  0.00000  0.00000  0.00000  1.0000
  V   V2        1.0  0.76700  0.27600  0.04280  1.0000
  V   V3        1.0  0.79600  0.29600  0.50000  1.0000
  V   V4        1.0  0.20400  0.70400  0.50000  1.0000
  V   V5        1.0  0.23300  0.72400  0.95700  1.0000
