data_image0
_chemical_formula_structural       Ge3Sb2Te6
_chemical_formula_sum              "Ge3 Sb2 Te6"
_cell_length_a       4.2948
_cell_length_b       4.2948
_cell_length_c       20.7087
_cell_angle_alpha    90
_cell_angle_beta     95.952
_cell_angle_gamma    120

_space_group_name_H-M_alt    "P 1"
_space_group_IT_number       1

loop_
  _space_group_symop_operation_xyz
  'x, y, z'

loop_
  _atom_site_type_symbol
  _atom_site_label
  _atom_site_symmetry_multiplicity
  _atom_site_fract_x
  _atom_site_fract_y
  _atom_site_fract_z
  _atom_site_occupancy
  Ge  Ge1       1.0  0.00000  0.00000  0.00000  1.0000
  Ge  Ge2       1.0  0.44700  0.72300  0.17000  1.0000
  Ge  Ge3       1.0  0.55300  0.27700  0.83000  1.0000
  Sb  Sb1       1.0  0.90100  0.45000  0.35100  1.0000
  Sb  Sb2       1.0  0.09930  0.55000  0.64900  1.0000
  Te  Te1       1.0  0.72400  0.36200  0.08550  1.0000
  Te  Te2       1.0  0.16800  0.08420  0.25300  1.0000
  Te  Te3       1.0  0.62300  0.81200  0.43500  1.0000
  Te  Te4       1.0  0.37700  0.18800  0.56500  1.0000
  Te  Te5       1.0  0.83200  0.91600  0.74700  1.0000
  Te  Te6       1.0  0.27600  0.63800  0.91500  1.0000
