data_image0
_chemical_formula_structural       B2Mn4
_chemical_formula_sum              "B2 Mn4"
_cell_length_a       4.12018
_cell_length_b       4.12018
_cell_length_c       4.12018
_cell_angle_alpha    120.361
_cell_angle_beta     104.316
_cell_angle_gamma    104.316

_space_group_name_H-M_alt    "P 1"
_space_group_IT_number       1

loop_
  _space_group_symop_operation_xyz
  'x, y, z'

loop_
  _atom_site_type_symbol
  _atom_site_label
  _atom_site_symmetry_multiplicity
  _atom_site_fract_x
  _atom_site_fract_y
  _atom_site_fract_z
  _atom_site_occupancy
  B   B1        1.0  0.00000  0.25000  0.25000  1.0000
  B   B2        1.0  0.00000  0.75000  0.75000  1.0000
  Mn  Mn1       1.0  0.81700  0.65800  0.15800  1.0000
  Mn  Mn2       1.0  0.50000  0.15800  0.34200  1.0000
  Mn  Mn3       1.0  0.50000  0.84200  0.65800  1.0000
  Mn  Mn4       1.0  0.18300  0.34200  0.84200  1.0000
