data_image0
_chemical_formula_structural       La3Ni2O7
_chemical_formula_sum              "La3 Ni2 O7"
_cell_length_a       3.83308
_cell_length_b       3.83308
_cell_length_c       10.4279
_cell_angle_alpha    100.567
_cell_angle_beta     100.567
_cell_angle_gamma    90.1288

_space_group_name_H-M_alt    "P 1"
_space_group_IT_number       1

loop_
  _space_group_symop_operation_xyz
  'x, y, z'

loop_
  _atom_site_type_symbol
  _atom_site_label
  _atom_site_symmetry_multiplicity
  _atom_site_fract_x
  _atom_site_fract_y
  _atom_site_fract_z
  _atom_site_occupancy
  La  La1       1.0  0.50000  0.50000  0.00000  1.0000
  La  La2       1.0  0.67900  0.67900  0.35800  1.0000
  La  La3       1.0  0.32100  0.32100  0.64200  1.0000
  Ni  Ni1       1.0  0.09790  0.09790  0.19600  1.0000
  Ni  Ni2       1.0  0.90200  0.90200  0.80400  1.0000
  O   O1        1.0  0.00000  0.00000  0.00000  1.0000
  O   O2        1.0  0.59700  0.09690  0.19400  1.0000
  O   O3        1.0  0.09690  0.59700  0.19400  1.0000
  O   O4        1.0  0.20400  0.20400  0.40900  1.0000
  O   O5        1.0  0.79600  0.79600  0.59100  1.0000
  O   O6        1.0  0.90300  0.40300  0.80600  1.0000
  O   O7        1.0  0.40300  0.90300  0.80600  1.0000
