data_image0
_chemical_formula_structural       Na4Ti6
_chemical_formula_sum              "Na4 Ti6"
_cell_length_a       7.07757
_cell_length_b       7.07757
_cell_length_c       6.64407
_cell_angle_alpha    122.183
_cell_angle_beta     57.8171
_cell_angle_gamma    120

_space_group_name_H-M_alt    "P 1"
_space_group_IT_number       1

loop_
  _space_group_symop_operation_xyz
  'x, y, z'

loop_
  _atom_site_type_symbol
  _atom_site_label
  _atom_site_symmetry_multiplicity
  _atom_site_fract_x
  _atom_site_fract_y
  _atom_site_fract_z
  _atom_site_occupancy
  Na  Na1       1.0  0.92000  0.07990  0.24000  1.0000
  Na  Na2       1.0  0.58000  0.42000  0.26000  1.0000
  Na  Na3       1.0  0.42000  0.58000  0.74000  1.0000
  Na  Na4       1.0  0.07990  0.92000  0.76000  1.0000
  Ti  Ti1       1.0  0.04530  0.54500  0.25000  1.0000
  Ti  Ti2       1.0  0.45500  0.75000  0.25000  1.0000
  Ti  Ti3       1.0  0.25000  0.95500  0.25000  1.0000
  Ti  Ti4       1.0  0.75000  0.04530  0.75000  1.0000
  Ti  Ti5       1.0  0.54500  0.25000  0.75000  1.0000
  Ti  Ti6       1.0  0.95500  0.45500  0.75000  1.0000
