data_image0
_chemical_formula_structural       Ni4Np6
_chemical_formula_sum              "Ni4 Np6"
_cell_length_a       7.38153
_cell_length_b       7.38153
_cell_length_c       6.17176
_cell_angle_alpha    126.727
_cell_angle_beta     53.2726
_cell_angle_gamma    120

_space_group_name_H-M_alt    "P 1"
_space_group_IT_number       1

loop_
  _space_group_symop_operation_xyz
  'x, y, z'

loop_
  _atom_site_type_symbol
  _atom_site_label
  _atom_site_symmetry_multiplicity
  _atom_site_fract_x
  _atom_site_fract_y
  _atom_site_fract_z
  _atom_site_occupancy
  Ni  Ni1       1.0  0.63800  0.36200  0.08710  1.0000
  Ni  Ni2       1.0  0.86200  0.13800  0.41300  1.0000
  Ni  Ni3       1.0  0.13800  0.86200  0.58700  1.0000
  Ni  Ni4       1.0  0.36200  0.63800  0.91300  1.0000
  Np  Np1       1.0  0.25000  0.05120  0.25000  1.0000
  Np  Np2       1.0  0.94900  0.44900  0.25000  1.0000
  Np  Np3       1.0  0.55100  0.75000  0.25000  1.0000
  Np  Np4       1.0  0.44900  0.25000  0.75000  1.0000
  Np  Np5       1.0  0.05120  0.55100  0.75000  1.0000
  Np  Np6       1.0  0.75000  0.94900  0.75000  1.0000
