data_image0
_chemical_formula_structural       Mg4Pu6
_chemical_formula_sum              "Mg4 Pu6"
_cell_length_a       8.21119
_cell_length_b       8.21119
_cell_length_c       6.92802
_cell_angle_alpha    126.342
_cell_angle_beta     53.6577
_cell_angle_gamma    120

_space_group_name_H-M_alt    "P 1"
_space_group_IT_number       1

loop_
  _space_group_symop_operation_xyz
  'x, y, z'

loop_
  _atom_site_type_symbol
  _atom_site_label
  _atom_site_symmetry_multiplicity
  _atom_site_fract_x
  _atom_site_fract_y
  _atom_site_fract_z
  _atom_site_occupancy
  Mg  Mg1       1.0  0.58900  0.41100  0.23300  1.0000
  Mg  Mg2       1.0  0.91100  0.08890  0.26700  1.0000
  Mg  Mg3       1.0  0.08890  0.91100  0.73300  1.0000
  Mg  Mg4       1.0  0.41100  0.58900  0.76700  1.0000
  Pu  Pu1       1.0  0.25000  0.99900  0.25000  1.0000
  Pu  Pu2       1.0  0.49900  0.75000  0.25000  1.0000
  Pu  Pu3       1.0  0.00101  0.50100  0.25000  1.0000
  Pu  Pu4       1.0  0.99900  0.49900  0.75000  1.0000
  Pu  Pu5       1.0  0.50100  0.25000  0.75000  1.0000
  Pu  Pu6       1.0  0.75000  0.00101  0.75000  1.0000
