data_image0
_chemical_formula_structural       Fe4K6
_chemical_formula_sum              "Fe4 K6"
_cell_length_a       7.57673
_cell_length_b       7.57673
_cell_length_c       8.815
_cell_angle_alpha    115.453
_cell_angle_beta     64.5475
_cell_angle_gamma    120

_space_group_name_H-M_alt    "P 1"
_space_group_IT_number       1

loop_
  _space_group_symop_operation_xyz
  'x, y, z'

loop_
  _atom_site_type_symbol
  _atom_site_label
  _atom_site_symmetry_multiplicity
  _atom_site_fract_x
  _atom_site_fract_y
  _atom_site_fract_z
  _atom_site_occupancy
  Fe  Fe1       1.0  0.29500  0.70500  0.11500  1.0000
  Fe  Fe2       1.0  0.20500  0.79500  0.38500  1.0000
  Fe  Fe3       1.0  0.79500  0.20500  0.61500  1.0000
  Fe  Fe4       1.0  0.70500  0.29500  0.88500  1.0000
  K   K1        1.0  0.25000  0.20500  0.25000  1.0000
  K   K2        1.0  0.79500  0.29500  0.25000  1.0000
  K   K3        1.0  0.70500  0.75000  0.25000  1.0000
  K   K4        1.0  0.29500  0.25000  0.75000  1.0000
  K   K5        1.0  0.20500  0.70500  0.75000  1.0000
  K   K6        1.0  0.75000  0.79500  0.75000  1.0000
