data_image0
_chemical_formula_structural       AgMn4O8
_chemical_formula_sum              "Ag1 Mn4 O8"
_cell_length_a       2.94487
_cell_length_b       7.02697
_cell_length_c       7.02697
_cell_angle_alpha    92.5165
_cell_angle_beta     77.9046
_cell_angle_gamma    102.095

_space_group_name_H-M_alt    "P 1"
_space_group_IT_number       1

loop_
  _space_group_symop_operation_xyz
  'x, y, z'

loop_
  _atom_site_type_symbol
  _atom_site_label
  _atom_site_symmetry_multiplicity
  _atom_site_fract_x
  _atom_site_fract_y
  _atom_site_fract_z
  _atom_site_occupancy
  Ag  Ag1       1.0  0.00000  0.00000  0.00000  1.0000
  Mn  Mn1       1.0  0.16900  0.52000  0.18300  1.0000
  Mn  Mn2       1.0  0.35200  0.18300  0.48000  1.0000
  Mn  Mn3       1.0  0.64800  0.81700  0.52000  1.0000
  Mn  Mn4       1.0  0.83100  0.48000  0.81700  1.0000
  O   O1        1.0  0.80400  0.65400  0.04550  1.0000
  O   O2        1.0  0.54500  0.38000  0.28900  1.0000
  O   O3        1.0  0.85000  0.04550  0.34600  1.0000
  O   O4        1.0  0.16500  0.71100  0.38000  1.0000
  O   O5        1.0  0.83500  0.28900  0.62000  1.0000
  O   O6        1.0  0.15000  0.95400  0.65400  1.0000
  O   O7        1.0  0.45500  0.62000  0.71100  1.0000
  O   O8        1.0  0.19600  0.34600  0.95400  1.0000
