data_image0
_chemical_formula_structural       In2MnSe4
_chemical_formula_sum              "In2 Mn1 Se4"
_cell_length_a       4.0992
_cell_length_b       4.0992
_cell_length_c       13.6346
_cell_angle_alpha    81.3543
_cell_angle_beta     98.6457
_cell_angle_gamma    120

_space_group_name_H-M_alt    "P 1"
_space_group_IT_number       1

loop_
  _space_group_symop_operation_xyz
  'x, y, z'

loop_
  _atom_site_type_symbol
  _atom_site_label
  _atom_site_symmetry_multiplicity
  _atom_site_fract_x
  _atom_site_fract_y
  _atom_site_fract_z
  _atom_site_occupancy
  In  In1       1.0  0.76300  0.23700  0.28900  1.0000
  In  In2       1.0  0.23700  0.76300  0.71100  1.0000
  Mn  Mn1       1.0  0.00000  0.00000  0.00000  1.0000
  Se  Se1       1.0  0.69900  0.30100  0.09810  1.0000
  Se  Se2       1.0  0.12700  0.87300  0.38100  1.0000
  Se  Se3       1.0  0.87300  0.12700  0.61900  1.0000
  Se  Se4       1.0  0.30100  0.69900  0.90200  1.0000
