data_image0
_chemical_formula_structural       Mg4Np6
_chemical_formula_sum              "Mg4 Np6"
_cell_length_a       7.39634
_cell_length_b       7.39634
_cell_length_c       6.87295
_cell_angle_alpha    122.553
_cell_angle_beta     57.4472
_cell_angle_gamma    120

_space_group_name_H-M_alt    "P 1"
_space_group_IT_number       1

loop_
  _space_group_symop_operation_xyz
  'x, y, z'

loop_
  _atom_site_type_symbol
  _atom_site_label
  _atom_site_symmetry_multiplicity
  _atom_site_fract_x
  _atom_site_fract_y
  _atom_site_fract_z
  _atom_site_occupancy
  Mg  Mg1       1.0  0.91800  0.08190  0.24600  1.0000
  Mg  Mg2       1.0  0.58200  0.41800  0.25400  1.0000
  Mg  Mg3       1.0  0.41800  0.58200  0.74600  1.0000
  Mg  Mg4       1.0  0.08190  0.91800  0.75400  1.0000
  Np  Np1       1.0  0.05990  0.56000  0.25000  1.0000
  Np  Np2       1.0  0.44000  0.75000  0.25000  1.0000
  Np  Np3       1.0  0.25000  0.94000  0.25000  1.0000
  Np  Np4       1.0  0.75000  0.05990  0.75000  1.0000
  Np  Np5       1.0  0.56000  0.25000  0.75000  1.0000
  Np  Np6       1.0  0.94000  0.44000  0.75000  1.0000
