data_image0
_chemical_formula_structural       RbSe6U2
_chemical_formula_sum              "Rb1 Se6 U2"
_cell_length_a       4.0336
_cell_length_b       5.57022
_cell_length_c       11.7754
_cell_angle_alpha    103.681
_cell_angle_beta     99.8618
_cell_angle_gamma    90

_space_group_name_H-M_alt    "P 1"
_space_group_IT_number       1

loop_
  _space_group_symop_operation_xyz
  'x, y, z'

loop_
  _atom_site_type_symbol
  _atom_site_label
  _atom_site_symmetry_multiplicity
  _atom_site_fract_x
  _atom_site_fract_y
  _atom_site_fract_z
  _atom_site_occupancy
  Rb  Rb1       1.0  0.00000  0.50000  0.00000  1.0000
  Se  Se1       1.0  0.61200  0.36000  0.22300  1.0000
  Se  Se2       1.0  0.61200  0.86300  0.22300  1.0000
  Se  Se3       1.0  0.22700  0.72700  0.45300  1.0000
  Se  Se4       1.0  0.77300  0.27300  0.54700  1.0000
  Se  Se5       1.0  0.38800  0.13700  0.77700  1.0000
  Se  Se6       1.0  0.38800  0.64000  0.77700  1.0000
  U   U1        1.0  0.18200  0.18200  0.36400  1.0000
  U   U2        1.0  0.81800  0.81800  0.63600  1.0000
