data_image0
_chemical_formula_structural       K2O8P2Zr
_chemical_formula_sum              "K2 O8 P2 Zr1"
_cell_length_a       5.13093
_cell_length_b       5.13093
_cell_length_c       8.98946
_cell_angle_alpha    90
_cell_angle_beta     89.9985
_cell_angle_gamma    120.002

_space_group_name_H-M_alt    "P 1"
_space_group_IT_number       1

loop_
  _space_group_symop_operation_xyz
  'x, y, z'

loop_
  _atom_site_type_symbol
  _atom_site_label
  _atom_site_symmetry_multiplicity
  _atom_site_fract_x
  _atom_site_fract_y
  _atom_site_fract_z
  _atom_site_occupancy
  K   K1        1.0  0.66700  0.33300  0.35000  1.0000
  K   K2        1.0  0.33300  0.66700  0.65000  1.0000
  O   O1        1.0  0.28200  0.36100  0.13800  1.0000
  O   O2        1.0  0.07820  0.71800  0.13800  1.0000
  O   O3        1.0  0.63900  0.92200  0.13800  1.0000
  O   O4        1.0  0.33300  0.66700  0.36700  1.0000
  O   O5        1.0  0.66700  0.33300  0.63300  1.0000
  O   O6        1.0  0.36100  0.07820  0.86200  1.0000
  O   O7        1.0  0.92200  0.28200  0.86200  1.0000
  O   O8        1.0  0.71800  0.63900  0.86200  1.0000
  P   P1        1.0  0.33300  0.66700  0.19900  1.0000
  P   P2        1.0  0.66700  0.33300  0.80100  1.0000
  Zr  Zr1       1.0  0.00000  0.00000  0.00000  1.0000
