data_image0
_chemical_formula_structural       Ni4V6
_chemical_formula_sum              "Ni4 V6"
_cell_length_a       5.989
_cell_length_b       5.989
_cell_length_c       5.48933
_cell_angle_alpha    123.06
_cell_angle_beta     56.9403
_cell_angle_gamma    120

_space_group_name_H-M_alt    "P 1"
_space_group_IT_number       1

loop_
  _space_group_symop_operation_xyz
  'x, y, z'

loop_
  _atom_site_type_symbol
  _atom_site_label
  _atom_site_symmetry_multiplicity
  _atom_site_fract_x
  _atom_site_fract_y
  _atom_site_fract_z
  _atom_site_occupancy
  Ni  Ni1       1.0  0.58900  0.41100  0.23200  1.0000
  Ni  Ni2       1.0  0.91100  0.08920  0.26800  1.0000
  Ni  Ni3       1.0  0.08920  0.91100  0.73200  1.0000
  Ni  Ni4       1.0  0.41100  0.58900  0.76800  1.0000
  V   V1        1.0  0.25000  0.99600  0.25000  1.0000
  V   V2        1.0  0.49600  0.75000  0.25000  1.0000
  V   V3        1.0  0.00396  0.50400  0.25000  1.0000
  V   V4        1.0  0.99600  0.49600  0.75000  1.0000
  V   V5        1.0  0.50400  0.25000  0.75000  1.0000
  V   V6        1.0  0.75000  0.00396  0.75000  1.0000
