data_image0
_chemical_formula_structural       BrCu6PS5
_chemical_formula_sum              "Br1 Cu6 P1 S5"
_cell_length_a       6.92617
_cell_length_b       6.92617
_cell_length_c       6.92617
_cell_angle_alpha    120
_cell_angle_beta     90
_cell_angle_gamma    120

_space_group_name_H-M_alt    "P 1"
_space_group_IT_number       1

loop_
  _space_group_symop_operation_xyz
  'x, y, z'

loop_
  _atom_site_type_symbol
  _atom_site_label
  _atom_site_symmetry_multiplicity
  _atom_site_fract_x
  _atom_site_fract_y
  _atom_site_fract_z
  _atom_site_occupancy
  Br  Br1       1.0  0.00000  0.00000  0.00000  1.0000
  Cu  Cu1       1.0  0.51900  0.50000  0.01930  1.0000
  Cu  Cu2       1.0  0.51900  0.03870  0.01930  1.0000
  Cu  Cu3       1.0  0.98100  0.50000  0.01930  1.0000
  Cu  Cu4       1.0  0.98100  0.50000  0.48100  1.0000
  Cu  Cu5       1.0  0.98100  0.96100  0.48100  1.0000
  Cu  Cu6       1.0  0.51900  0.50000  0.48100  1.0000
  P   P1        1.0  0.50000  0.00000  0.50000  1.0000
  S   S1        1.0  0.37700  0.75500  0.13200  1.0000
  S   S2        1.0  0.75000  0.50000  0.25000  1.0000
  S   S3        1.0  0.37700  0.24500  0.62300  1.0000
  S   S4        1.0  0.86800  0.24500  0.62300  1.0000
  S   S5        1.0  0.37700  0.75500  0.62300  1.0000
