data_image0
_chemical_formula_structural       Cr5Te8
_chemical_formula_sum              "Cr5 Te8"
_cell_length_a       7.24403
_cell_length_b       7.24403
_cell_length_c       7.85402
_cell_angle_alpha    106.306
_cell_angle_beta     105.206
_cell_angle_gamma    114.281

_space_group_name_H-M_alt    "P 1"
_space_group_IT_number       1

loop_
  _space_group_symop_operation_xyz
  'x, y, z'

loop_
  _atom_site_type_symbol
  _atom_site_label
  _atom_site_symmetry_multiplicity
  _atom_site_fract_x
  _atom_site_fract_y
  _atom_site_fract_z
  _atom_site_occupancy
  Cr  Cr1       1.0  0.50000  0.50000  0.00000  1.0000
  Cr  Cr2       1.0  0.76400  0.24600  0.00983  1.0000
  Cr  Cr3       1.0  0.23100  0.73100  0.50000  1.0000
  Cr  Cr4       1.0  0.76900  0.26900  0.50000  1.0000
  Cr  Cr5       1.0  0.23600  0.75400  0.99000  1.0000
  Te  Te1       1.0  0.46300  0.21200  0.17000  1.0000
  Te  Te2       1.0  0.95800  0.70700  0.17000  1.0000
  Te  Te3       1.0  0.53100  0.79900  0.33000  1.0000
  Te  Te4       1.0  0.04790  0.28400  0.33200  1.0000
  Te  Te5       1.0  0.95200  0.71600  0.66800  1.0000
  Te  Te6       1.0  0.46900  0.20100  0.67000  1.0000
  Te  Te7       1.0  0.04220  0.29300  0.83000  1.0000
  Te  Te8       1.0  0.53700  0.78800  0.83000  1.0000
