data_image0
_chemical_formula_structural       Al2BaO8Si2
_chemical_formula_sum              "Al2 Ba1 O8 Si2"
_cell_length_a       5.28839
_cell_length_b       5.2885
_cell_length_c       7.77738
_cell_angle_alpha    90.0007
_cell_angle_beta     89.9971
_cell_angle_gamma    119.999

_space_group_name_H-M_alt    "P 1"
_space_group_IT_number       1

loop_
  _space_group_symop_operation_xyz
  'x, y, z'

loop_
  _atom_site_type_symbol
  _atom_site_label
  _atom_site_symmetry_multiplicity
  _atom_site_fract_x
  _atom_site_fract_y
  _atom_site_fract_z
  _atom_site_occupancy
  Al  Al1       1.0  0.33300  0.66700  0.29300  1.0000
  Al  Al2       1.0  0.66700  0.33300  0.70700  1.0000
  Ba  Ba1       1.0  0.00000  0.00000  0.00000  1.0000
  O   O1        1.0  0.43400  0.01090  0.20400  1.0000
  O   O2        1.0  0.57700  0.56600  0.20400  1.0000
  O   O3        1.0  0.98900  0.42300  0.20400  1.0000
  O   O4        1.0  0.66700  0.33300  0.48800  1.0000
  O   O5        1.0  0.33300  0.66700  0.51200  1.0000
  O   O6        1.0  0.01090  0.57700  0.79600  1.0000
  O   O7        1.0  0.42300  0.43400  0.79600  1.0000
  O   O8        1.0  0.56600  0.98900  0.79600  1.0000
  Si  Si1       1.0  0.66700  0.33300  0.28300  1.0000
  Si  Si2       1.0  0.33300  0.66700  0.71700  1.0000
