data_image0
_chemical_formula_structural       Br12Gd2Na6
_chemical_formula_sum              "Br12 Gd2 Na6"
_cell_length_a       7.25409
_cell_length_b       7.72016
_cell_length_c       10.7664
_cell_angle_alpha    90
_cell_angle_beta     90.8633
_cell_angle_gamma    90

_space_group_name_H-M_alt    "P 1"
_space_group_IT_number       1

loop_
  _space_group_symop_operation_xyz
  'x, y, z'

loop_
  _atom_site_type_symbol
  _atom_site_label
  _atom_site_symmetry_multiplicity
  _atom_site_fract_x
  _atom_site_fract_y
  _atom_site_fract_z
  _atom_site_occupancy
  Br  Br1       1.0  0.68000  0.17900  0.06700  1.0000
  Br  Br2       1.0  0.83300  0.68900  0.07940  1.0000
  Br  Br3       1.0  0.14400  0.06350  0.24300  1.0000
  Br  Br4       1.0  0.35600  0.56300  0.25700  1.0000
  Br  Br5       1.0  0.66700  0.18900  0.42100  1.0000
  Br  Br6       1.0  0.82000  0.67900  0.43300  1.0000
  Br  Br7       1.0  0.18000  0.32100  0.56700  1.0000
  Br  Br8       1.0  0.33300  0.81100  0.57900  1.0000
  Br  Br9       1.0  0.64400  0.43700  0.74300  1.0000
  Br  Br10      1.0  0.85600  0.93700  0.75700  1.0000
  Br  Br11      1.0  0.16700  0.31100  0.92100  1.0000
  Br  Br12      1.0  0.32000  0.82100  0.93300  1.0000
  Gd  Gd1       1.0  0.00000  0.00000  0.00000  1.0000
  Gd  Gd2       1.0  0.50000  0.50000  0.50000  1.0000
  Na  Na1       1.0  0.50000  0.50000  1.00000  1.0000
  Na  Na2       1.0  0.52700  0.91600  0.23500  1.0000
  Na  Na3       1.0  0.97300  0.41600  0.26500  1.0000
  Na  Na4       1.0  0.00000  0.00000  0.50000  1.0000
  Na  Na5       1.0  0.02650  0.58400  0.73500  1.0000
  Na  Na6       1.0  0.47300  0.08450  0.76500  1.0000
