data_image0
_chemical_formula_structural       AsBrCu6S5
_chemical_formula_sum              "As1 Br1 Cu6 S5"
_cell_length_a       7.01988
_cell_length_b       7.01988
_cell_length_c       7.01988
_cell_angle_alpha    120
_cell_angle_beta     90
_cell_angle_gamma    120

_space_group_name_H-M_alt    "P 1"
_space_group_IT_number       1

loop_
  _space_group_symop_operation_xyz
  'x, y, z'

loop_
  _atom_site_type_symbol
  _atom_site_label
  _atom_site_symmetry_multiplicity
  _atom_site_fract_x
  _atom_site_fract_y
  _atom_site_fract_z
  _atom_site_occupancy
  As  As1       1.0  0.50000  0.00000  0.50000  1.0000
  Br  Br1       1.0  0.00000  0.00000  0.00000  1.0000
  Cu  Cu1       1.0  0.52000  0.50000  0.01970  1.0000
  Cu  Cu2       1.0  0.98000  0.50000  0.01970  1.0000
  Cu  Cu3       1.0  0.52000  0.03950  0.01970  1.0000
  Cu  Cu4       1.0  0.52000  0.50000  0.48000  1.0000
  Cu  Cu5       1.0  0.98000  0.50000  0.48000  1.0000
  Cu  Cu6       1.0  0.98000  0.96100  0.48000  1.0000
  S   S1        1.0  0.37100  0.74300  0.11400  1.0000
  S   S2        1.0  0.75000  0.50000  0.25000  1.0000
  S   S3        1.0  0.88600  0.25700  0.62900  1.0000
  S   S4        1.0  0.37100  0.25700  0.62900  1.0000
  S   S5        1.0  0.37100  0.74300  0.62900  1.0000
