data_image0
_chemical_formula_structural       Fe2K2O5Rb4
_chemical_formula_sum              "Fe2 K2 O5 Rb4"
_cell_length_a       6.8128
_cell_length_b       6.8128
_cell_length_c       6.8501
_cell_angle_alpha    90.2867
_cell_angle_beta     90.2867
_cell_angle_gamma    118.857

_space_group_name_H-M_alt    "P 1"
_space_group_IT_number       1

loop_
  _space_group_symop_operation_xyz
  'x, y, z'

loop_
  _atom_site_type_symbol
  _atom_site_label
  _atom_site_symmetry_multiplicity
  _atom_site_fract_x
  _atom_site_fract_y
  _atom_site_fract_z
  _atom_site_occupancy
  Fe  Fe1       1.0  0.80000  0.80000  0.30400  1.0000
  Fe  Fe2       1.0  0.20000  0.20000  0.69600  1.0000
  K   K1        1.0  0.78200  0.21800  0.00000  1.0000
  K   K2        1.0  0.21800  0.78200  0.00000  1.0000
  O   O1        1.0  0.84000  0.56300  0.21100  1.0000
  O   O2        1.0  0.56300  0.84000  0.21100  1.0000
  O   O3        1.0  0.00000  0.00000  0.50000  1.0000
  O   O4        1.0  0.43700  0.16000  0.78900  1.0000
  O   O5        1.0  0.16000  0.43700  0.78900  1.0000
  Rb  Rb1       1.0  0.33400  0.33400  0.18400  1.0000
  Rb  Rb2       1.0  0.75700  0.24300  0.50000  1.0000
  Rb  Rb3       1.0  0.24300  0.75700  0.50000  1.0000
  Rb  Rb4       1.0  0.66600  0.66600  0.81600  1.0000
