data_image0
_chemical_formula_structural       HoSn6V6
_chemical_formula_sum              "Ho1 Sn6 V6"
_cell_length_a       5.4856
_cell_length_b       5.4856
_cell_length_c       9.2275
_cell_angle_alpha    90
_cell_angle_beta     90
_cell_angle_gamma    119.998

_space_group_name_H-M_alt    "P 1"
_space_group_IT_number       1

loop_
  _space_group_symop_operation_xyz
  'x, y, z'

loop_
  _atom_site_type_symbol
  _atom_site_label
  _atom_site_symmetry_multiplicity
  _atom_site_fract_x
  _atom_site_fract_y
  _atom_site_fract_z
  _atom_site_occupancy
  Ho  Ho1       1.0  0.00000  0.00000  0.00000  1.0000
  Sn  Sn1       1.0  0.66700  0.33300  0.00000  1.0000
  Sn  Sn2       1.0  0.33300  0.66700  0.00000  1.0000
  Sn  Sn3       1.0  0.00000  0.00000  0.33000  1.0000
  Sn  Sn4       1.0  0.66700  0.33300  0.50000  1.0000
  Sn  Sn5       1.0  0.33300  0.66700  0.50000  1.0000
  Sn  Sn6       1.0  0.00000  0.00000  0.67000  1.0000
  V   V1        1.0  0.50000  0.00000  0.24800  1.0000
  V   V2        1.0  0.00000  0.50000  0.24800  1.0000
  V   V3        1.0  0.50000  0.50000  0.24800  1.0000
  V   V4        1.0  0.50000  0.50000  0.75200  1.0000
  V   V5        1.0  0.50000  0.00000  0.75200  1.0000
  V   V6        1.0  0.00000  0.50000  0.75200  1.0000
