data_image0
_chemical_formula_structural       FeSe8Ti4
_chemical_formula_sum              "Fe1 Se8 Ti4"
_cell_length_a       6.99065
_cell_length_b       6.99065
_cell_length_c       7.12806
_cell_angle_alpha    105.13
_cell_angle_beta     104.499
_cell_angle_gamma    118.593

_space_group_name_H-M_alt    "P 1"
_space_group_IT_number       1

loop_
  _space_group_symop_operation_xyz
  'x, y, z'

loop_
  _atom_site_type_symbol
  _atom_site_label
  _atom_site_symmetry_multiplicity
  _atom_site_fract_x
  _atom_site_fract_y
  _atom_site_fract_z
  _atom_site_occupancy
  Fe  Fe1       1.0  0.00000  0.00000  0.00000  1.0000
  Se  Se1       1.0  0.45800  0.21800  0.16900  1.0000
  Se  Se2       1.0  0.95100  0.71200  0.16900  1.0000
  Se  Se3       1.0  0.54500  0.78600  0.33100  1.0000
  Se  Se4       1.0  0.04370  0.29200  0.33600  1.0000
  Se  Se5       1.0  0.95600  0.70800  0.66400  1.0000
  Se  Se6       1.0  0.45500  0.21400  0.66900  1.0000
  Se  Se7       1.0  0.04880  0.28800  0.83100  1.0000
  Se  Se8       1.0  0.54200  0.78200  0.83100  1.0000
  Ti  Ti1       1.0  0.25100  0.75800  0.00891  1.0000
  Ti  Ti2       1.0  0.26300  0.76300  0.50000  1.0000
  Ti  Ti3       1.0  0.73700  0.23700  0.50000  1.0000
  Ti  Ti4       1.0  0.74900  0.24200  0.99100  1.0000
