data_image0
_chemical_formula_structural       Br6Fe2
_chemical_formula_sum              "Br6 Fe2"
_cell_length_a       6.46151
_cell_length_b       6.46182
_cell_length_c       7.25419
_cell_angle_alpha    116.445
_cell_angle_beta     63.5563
_cell_angle_gamma    119.999

_space_group_name_H-M_alt    "P 1"
_space_group_IT_number       1

loop_
  _space_group_symop_operation_xyz
  'x, y, z'

loop_
  _atom_site_type_symbol
  _atom_site_label
  _atom_site_symmetry_multiplicity
  _atom_site_fract_x
  _atom_site_fract_y
  _atom_site_fract_z
  _atom_site_occupancy
  Br  Br1       1.0  0.92200  0.72500  0.23600  1.0000
  Br  Br2       1.0  0.27500  0.43300  0.23600  1.0000
  Br  Br3       1.0  0.56700  0.07830  0.23600  1.0000
  Br  Br4       1.0  0.43300  0.92200  0.76400  1.0000
  Br  Br5       1.0  0.72500  0.56700  0.76400  1.0000
  Br  Br6       1.0  0.07820  0.27500  0.76400  1.0000
  Fe  Fe1       1.0  0.66600  0.33400  0.00107  1.0000
  Fe  Fe2       1.0  0.33400  0.66600  0.99900  1.0000
