data_image0
_chemical_formula_structural       Ba2Bi2O6
_chemical_formula_sum              "Ba2 Bi2 O6"
_cell_length_a       6.1438
_cell_length_b       6.1438
_cell_length_c       6.17949
_cell_angle_alpha    90.4021
_cell_angle_beta     119.383
_cell_angle_gamma    119.963

_space_group_name_H-M_alt    "P 1"
_space_group_IT_number       1

loop_
  _space_group_symop_operation_xyz
  'x, y, z'

loop_
  _atom_site_type_symbol
  _atom_site_label
  _atom_site_symmetry_multiplicity
  _atom_site_fract_x
  _atom_site_fract_y
  _atom_site_fract_z
  _atom_site_occupancy
  Ba  Ba1       1.0  0.50700  0.75100  0.25800  1.0000
  Ba  Ba2       1.0  0.49300  0.24900  0.74200  1.0000
  Bi  Bi1       1.0  0.00000  0.00000  0.00000  1.0000
  Bi  Bi2       1.0  1.00000  0.50000  0.50000  1.0000
  O   O1        1.0  0.92400  0.25900  0.18400  1.0000
  O   O2        1.0  0.00325  0.78500  0.30200  1.0000
  O   O3        1.0  0.51600  0.29800  0.30200  1.0000
  O   O4        1.0  0.99700  0.21500  0.69800  1.0000
  O   O5        1.0  0.48400  0.70200  0.69800  1.0000
  O   O6        1.0  0.07550  0.74100  0.81600  1.0000
