data_image0
_chemical_formula_structural       F8Xe2
_chemical_formula_sum              "F8 Xe2"
_cell_length_a       4.70715
_cell_length_b       5.47073
_cell_length_c       5.48123
_cell_angle_alpha    90
_cell_angle_beta     100.441
_cell_angle_gamma    90

_space_group_name_H-M_alt    "P 1"
_space_group_IT_number       1

loop_
  _space_group_symop_operation_xyz
  'x, y, z'

loop_
  _atom_site_type_symbol
  _atom_site_label
  _atom_site_symmetry_multiplicity
  _atom_site_fract_x
  _atom_site_fract_y
  _atom_site_fract_z
  _atom_site_occupancy
  F   F1        1.0  0.69400  0.83700  0.16000  1.0000
  F   F2        1.0  0.24400  0.52300  0.16100  1.0000
  F   F3        1.0  0.25600  0.02320  0.33900  1.0000
  F   F4        1.0  0.80600  0.33700  0.34000  1.0000
  F   F5        1.0  0.19400  0.66300  0.66000  1.0000
  F   F6        1.0  0.74400  0.97700  0.66100  1.0000
  F   F7        1.0  0.75600  0.47700  0.83900  1.0000
  F   F8        1.0  0.30600  0.16300  0.84000  1.0000
  Xe  Xe1       1.0  0.00000  0.00000  0.00000  1.0000
  Xe  Xe2       1.0  0.50000  0.50000  0.50000  1.0000
