data_image0
_chemical_formula_structural       AgBi3Br2S4
_chemical_formula_sum              "Ag1 Bi3 Br2 S4"
_cell_length_a       4.15607
_cell_length_b       7.08757
_cell_length_c       9.90517
_cell_angle_alpha    94.3137
_cell_angle_beta     90
_cell_angle_gamma    107.049

_space_group_name_H-M_alt    "P 1"
_space_group_IT_number       1

loop_
  _space_group_symop_operation_xyz
  'x, y, z'

loop_
  _atom_site_type_symbol
  _atom_site_label
  _atom_site_symmetry_multiplicity
  _atom_site_fract_x
  _atom_site_fract_y
  _atom_site_fract_z
  _atom_site_occupancy
  Ag  Ag1       1.0  0.50000  0.00000  0.00000  1.0000
  Bi  Bi1       1.0  0.78300  0.56500  0.17400  1.0000
  Bi  Bi2       1.0  0.50000  0.00000  0.50000  1.0000
  Bi  Bi3       1.0  0.21700  0.43500  0.82600  1.0000
  Br  Br1       1.0  0.14000  0.27900  0.43000  1.0000
  Br  Br2       1.0  0.86000  0.72100  0.57000  1.0000
  S   S1        1.0  0.14700  0.29500  0.06020  1.0000
  S   S2        1.0  0.41900  0.83700  0.23100  1.0000
  S   S3        1.0  0.58100  0.16300  0.76900  1.0000
  S   S4        1.0  0.85300  0.70500  0.94000  1.0000
