data_image0
_chemical_formula_structural       Bi3InSe8Sn2
_chemical_formula_sum              "Bi3 In1 Se8 Sn2"
_cell_length_a       4.1659
_cell_length_b       7.18726
_cell_length_c       14.231
_cell_angle_alpha    93.7459
_cell_angle_beta     98.4164
_cell_angle_gamma    73.1534

_space_group_name_H-M_alt    "P 1"
_space_group_IT_number       1

loop_
  _space_group_symop_operation_xyz
  'x, y, z'

loop_
  _atom_site_type_symbol
  _atom_site_label
  _atom_site_symmetry_multiplicity
  _atom_site_fract_x
  _atom_site_fract_y
  _atom_site_fract_z
  _atom_site_occupancy
  Bi  Bi1       1.0  0.00000  0.00000  0.00000  1.0000
  Bi  Bi2       1.0  0.35100  0.43700  0.13900  1.0000
  Bi  Bi3       1.0  0.64900  0.56300  0.86100  1.0000
  In  In1       1.0  0.50000  0.50000  0.50000  1.0000
  Se  Se1       1.0  0.66600  0.73300  0.06430  1.0000
  Se  Se2       1.0  0.00600  0.18100  0.19300  1.0000
  Se  Se3       1.0  0.33600  0.64700  0.32000  1.0000
  Se  Se4       1.0  0.11800  0.22800  0.46300  1.0000
  Se  Se5       1.0  0.88200  0.77200  0.53700  1.0000
  Se  Se6       1.0  0.66400  0.35300  0.68000  1.0000
  Se  Se7       1.0  0.99400  0.81900  0.80700  1.0000
  Se  Se8       1.0  0.33400  0.26700  0.93600  1.0000
  Sn  Sn1       1.0  0.71600  0.92600  0.35700  1.0000
  Sn  Sn2       1.0  0.28400  0.07400  0.64300  1.0000
