data_image0
_chemical_formula_structural       F6Ni2
_chemical_formula_sum              "F6 Ni2"
_cell_length_a       5.03044
_cell_length_b       5.03044
_cell_length_c       5.03044
_cell_angle_alpha    54.2031
_cell_angle_beta     54.2031
_cell_angle_gamma    54.2031

_space_group_name_H-M_alt    "P 1"
_space_group_IT_number       1

loop_
  _space_group_symop_operation_xyz
  'x, y, z'

loop_
  _atom_site_type_symbol
  _atom_site_label
  _atom_site_symmetry_multiplicity
  _atom_site_fract_x
  _atom_site_fract_y
  _atom_site_fract_z
  _atom_site_occupancy
  F   F1        1.0  0.41000  0.75400  0.08340  1.0000
  F   F2        1.0  0.91700  0.59000  0.24600  1.0000
  F   F3        1.0  0.75400  0.08340  0.41000  1.0000
  F   F4        1.0  0.24600  0.91700  0.59000  1.0000
  F   F5        1.0  0.08340  0.41000  0.75400  1.0000
  F   F6        1.0  0.59000  0.24600  0.91700  1.0000
  Ni  Ni1       1.0  0.00000  0.00000  0.00000  1.0000
  Ni  Ni2       1.0  0.50000  0.50000  0.50000  1.0000
