data_image0
_chemical_formula_structural       H10La4
_chemical_formula_sum              "H10 La4"
_cell_length_a       5.53607
_cell_length_b       5.53607
_cell_length_c       6.83691
_cell_angle_alpha    113.883
_cell_angle_beta     113.883
_cell_angle_gamma    90

_space_group_name_H-M_alt    "P 1"
_space_group_IT_number       1

loop_
  _space_group_symop_operation_xyz
  'x, y, z'

loop_
  _atom_site_type_symbol
  _atom_site_label
  _atom_site_symmetry_multiplicity
  _atom_site_fract_x
  _atom_site_fract_y
  _atom_site_fract_z
  _atom_site_occupancy
  H   H1        1.0  0.00000  0.00000  0.00000  1.0000
  H   H2        1.0  0.39300  0.37500  0.25000  1.0000
  H   H3        1.0  0.85700  0.37500  0.25000  1.0000
  H   H4        1.0  0.39300  0.87500  0.25000  1.0000
  H   H5        1.0  0.85700  0.87500  0.25000  1.0000
  H   H6        1.0  0.25000  0.75000  0.50000  1.0000
  H   H7        1.0  0.12500  0.14300  0.75000  1.0000
  H   H8        1.0  0.62500  0.14300  0.75000  1.0000
  H   H9        1.0  0.12500  0.60700  0.75000  1.0000
  H   H10       1.0  0.62500  0.60700  0.75000  1.0000
  La  La1       1.0  0.00421  0.50400  0.00842  1.0000
  La  La2       1.0  0.24600  0.24600  0.49200  1.0000
  La  La3       1.0  0.75400  0.75400  0.50800  1.0000
  La  La4       1.0  0.49600  0.99600  0.99200  1.0000
