data_image0
_chemical_formula_structural       Ce4Fe2O4Se4
_chemical_formula_sum              "Ce4 Fe2 O4 Se4"
_cell_length_a       5.72935
_cell_length_b       5.78454
_cell_length_c       9.70369
_cell_angle_alpha    107.341
_cell_angle_beta     107.17
_cell_angle_gamma    90

_space_group_name_H-M_alt    "P 1"
_space_group_IT_number       1

loop_
  _space_group_symop_operation_xyz
  'x, y, z'

loop_
  _atom_site_type_symbol
  _atom_site_label
  _atom_site_symmetry_multiplicity
  _atom_site_fract_x
  _atom_site_fract_y
  _atom_site_fract_z
  _atom_site_occupancy
  Ce  Ce1       1.0  0.68000  0.42600  0.36100  1.0000
  Ce  Ce2       1.0  0.18000  0.93500  0.36100  1.0000
  Ce  Ce3       1.0  0.82000  0.06500  0.63900  1.0000
  Ce  Ce4       1.0  0.32000  0.57400  0.63900  1.0000
  Fe  Fe1       1.0  0.25000  0.00000  0.00000  1.0000
  Fe  Fe2       1.0  0.75000  0.00000  0.00000  1.0000
  O   O1        1.0  0.49800  0.74800  0.49700  1.0000
  O   O2        1.0  0.99800  0.74800  0.49700  1.0000
  O   O3        1.0  0.00170  0.25200  0.50300  1.0000
  O   O4        1.0  0.50200  0.25200  0.50300  1.0000
  Se  Se1       1.0  0.08250  0.32700  0.16500  1.0000
  Se  Se2       1.0  0.58200  0.83800  0.16500  1.0000
  Se  Se3       1.0  0.41800  0.16200  0.83500  1.0000
  Se  Se4       1.0  0.91800  0.67300  0.83500  1.0000
