data_image0
_chemical_formula_structural       Al4N4Ti6
_chemical_formula_sum              "Al4 N4 Ti6"
_cell_length_a       2.95284
_cell_length_b       2.95284
_cell_length_c       23.2889
_cell_angle_alpha    90
_cell_angle_beta     90
_cell_angle_gamma    120

_space_group_name_H-M_alt    "P 1"
_space_group_IT_number       1

loop_
  _space_group_symop_operation_xyz
  'x, y, z'

loop_
  _atom_site_type_symbol
  _atom_site_label
  _atom_site_symmetry_multiplicity
  _atom_site_fract_x
  _atom_site_fract_y
  _atom_site_fract_z
  _atom_site_occupancy
  Al  Al1       1.0  0.00000  0.00000  0.30300  1.0000
  Al  Al2       1.0  0.33300  0.66700  0.40000  1.0000
  Al  Al3       1.0  0.00000  0.00000  0.80300  1.0000
  Al  Al4       1.0  0.66700  0.33300  0.90000  1.0000
  N   N1        1.0  0.33300  0.66700  0.04510  1.0000
  N   N2        1.0  0.66700  0.33300  0.26000  1.0000
  N   N3        1.0  0.66700  0.33300  0.54500  1.0000
  N   N4        1.0  0.33300  0.66700  0.76000  1.0000
  Ti  Ti1       1.0  0.66700  0.33300  0.09780  1.0000
  Ti  Ti2       1.0  0.33300  0.66700  0.19900  1.0000
  Ti  Ti3       1.0  0.00000  0.00000  0.49600  1.0000
  Ti  Ti4       1.0  0.33300  0.66700  0.59800  1.0000
  Ti  Ti5       1.0  0.66700  0.33300  0.69900  1.0000
  Ti  Ti6       1.0  0.00000  0.00000  0.99600  1.0000
