data_image0
_chemical_formula_structural       S8Ti5Tl
_chemical_formula_sum              "S8 Ti5 Tl1"
_cell_length_a       3.4085
_cell_length_b       8.94291
_cell_length_c       9.02801
_cell_angle_alpha    104.354
_cell_angle_beta     100.881
_cell_angle_gamma    90

_space_group_name_H-M_alt    "P 1"
_space_group_IT_number       1

loop_
  _space_group_symop_operation_xyz
  'x, y, z'

loop_
  _atom_site_type_symbol
  _atom_site_label
  _atom_site_symmetry_multiplicity
  _atom_site_fract_x
  _atom_site_fract_y
  _atom_site_fract_z
  _atom_site_occupancy
  S   S1        1.0  0.07630  0.66600  0.15300  1.0000
  S   S2        1.0  0.58800  0.32900  0.17600  1.0000
  S   S3        1.0  0.66100  0.99600  0.32200  1.0000
  S   S4        1.0  0.74400  0.67100  0.48700  1.0000
  S   S5        1.0  0.25600  0.32900  0.51300  1.0000
  S   S6        1.0  0.33900  0.00381  0.67800  1.0000
  S   S7        1.0  0.41200  0.67100  0.82400  1.0000
  S   S8        1.0  0.92400  0.33400  0.84700  1.0000
  Ti  Ti1       1.0  0.50000  0.50000  0.00000  1.0000
  Ti  Ti2       1.0  0.16300  0.49400  0.32700  1.0000
  Ti  Ti3       1.0  0.20800  0.85000  0.41500  1.0000
  Ti  Ti4       1.0  0.79200  0.15000  0.58500  1.0000
  Ti  Ti5       1.0  0.83700  0.50600  0.67300  1.0000
  Tl  Tl1       1.0  0.00000  0.00000  0.00000  1.0000
