data_image0
_chemical_formula_structural       Fe3O8Sr2Y
_chemical_formula_sum              "Fe3 O8 Sr2 Y1"
_cell_length_a       3.86212
_cell_length_b       3.86212
_cell_length_c       11.6946
_cell_angle_alpha    90
_cell_angle_beta     90
_cell_angle_gamma    90

_space_group_name_H-M_alt    "P 1"
_space_group_IT_number       1

loop_
  _space_group_symop_operation_xyz
  'x, y, z'

loop_
  _atom_site_type_symbol
  _atom_site_label
  _atom_site_symmetry_multiplicity
  _atom_site_fract_x
  _atom_site_fract_y
  _atom_site_fract_z
  _atom_site_occupancy
  Fe  Fe1       1.0  0.00000  0.00000  0.00000  1.0000
  Fe  Fe2       1.0  0.00000  0.00000  0.33700  1.0000
  Fe  Fe3       1.0  0.00000  0.00000  0.66300  1.0000
  O   O1        1.0  0.50000  0.00000  0.00000  1.0000
  O   O2        1.0  0.00000  0.50000  0.00000  1.0000
  O   O3        1.0  0.00000  0.00000  0.17900  1.0000
  O   O4        1.0  0.50000  0.00000  0.38000  1.0000
  O   O5        1.0  0.00000  0.50000  0.38000  1.0000
  O   O6        1.0  0.50000  0.00000  0.62000  1.0000
  O   O7        1.0  0.00000  0.50000  0.62000  1.0000
  O   O8        1.0  0.00000  0.00000  0.82100  1.0000
  Sr  Sr1       1.0  0.50000  0.50000  0.15600  1.0000
  Sr  Sr2       1.0  0.50000  0.50000  0.84400  1.0000
  Y   Y1        1.0  0.50000  0.50000  0.50000  1.0000
