data_image0
_chemical_formula_structural       In2Mn2Se5
_chemical_formula_sum              "In2 Mn2 Se5"
_cell_length_a       4.04428
_cell_length_b       4.04428
_cell_length_c       16.6139
_cell_angle_alpha    83.009
_cell_angle_beta     96.991
_cell_angle_gamma    120

_space_group_name_H-M_alt    "P 1"
_space_group_IT_number       1

loop_
  _space_group_symop_operation_xyz
  'x, y, z'

loop_
  _atom_site_type_symbol
  _atom_site_label
  _atom_site_symmetry_multiplicity
  _atom_site_fract_x
  _atom_site_fract_y
  _atom_site_fract_z
  _atom_site_occupancy
  In  In1       1.0  0.44300  0.55700  0.32900  1.0000
  In  In2       1.0  0.55700  0.44300  0.67100  1.0000
  Mn  Mn1       1.0  0.69800  0.30200  0.09440  1.0000
  Mn  Mn2       1.0  0.30200  0.69800  0.90600  1.0000
  Se  Se1       1.0  0.00000  0.00000  0.00000  1.0000
  Se  Se2       1.0  0.39100  0.60900  0.17300  1.0000
  Se  Se3       1.0  0.13500  0.86500  0.40600  1.0000
  Se  Se4       1.0  0.86500  0.13500  0.59400  1.0000
  Se  Se5       1.0  0.60900  0.39100  0.82700  1.0000
