data_image0
_chemical_formula_structural       Ge6Nb10
_chemical_formula_sum              "Ge6 Nb10"
_cell_length_a       5.15412
_cell_length_b       7.77014
_cell_length_c       7.77014
_cell_angle_alpha    96.3153
_cell_angle_beta     70.6303
_cell_angle_gamma    109.37

_space_group_name_H-M_alt    "P 1"
_space_group_IT_number       1

loop_
  _space_group_symop_operation_xyz
  'x, y, z'

loop_
  _atom_site_type_symbol
  _atom_site_label
  _atom_site_symmetry_multiplicity
  _atom_site_fract_x
  _atom_site_fract_y
  _atom_site_fract_z
  _atom_site_occupancy
  Ge  Ge1       1.0  0.25000  0.00000  0.00000  1.0000
  Ge  Ge2       1.0  0.75000  0.00000  0.00000  1.0000
  Ge  Ge3       1.0  0.17900  0.50000  0.14300  1.0000
  Ge  Ge4       1.0  0.32100  0.14300  0.50000  1.0000
  Ge  Ge5       1.0  0.67900  0.85700  0.50000  1.0000
  Ge  Ge6       1.0  0.82100  0.50000  0.85700  1.0000
  Nb  Nb1       1.0  0.57000  0.29200  0.15300  1.0000
  Nb  Nb2       1.0  0.77700  0.70800  0.15300  1.0000
  Nb  Nb3       1.0  0.93000  0.15300  0.29200  1.0000
  Nb  Nb4       1.0  0.27700  0.84700  0.29200  1.0000
  Nb  Nb5       1.0  0.00000  0.50000  0.50000  1.0000
  Nb  Nb6       1.0  0.50000  0.50000  0.50000  1.0000
  Nb  Nb7       1.0  0.06950  0.84700  0.70800  1.0000
  Nb  Nb8       1.0  0.72300  0.15300  0.70800  1.0000
  Nb  Nb9       1.0  0.22300  0.29200  0.84700  1.0000
  Nb  Nb10      1.0  0.43000  0.70800  0.84700  1.0000
