data_image0
_chemical_formula_structural       Ag2Dy2Se4
_chemical_formula_sum              "Ag2 Dy2 Se4"
_cell_length_a       5.66263
_cell_length_b       5.66263
_cell_length_c       7.38562
_cell_angle_alpha    112.542
_cell_angle_beta     112.542
_cell_angle_gamma    90

_space_group_name_H-M_alt    "P 1"
_space_group_IT_number       1

loop_
  _space_group_symop_operation_xyz
  'x, y, z'

loop_
  _atom_site_type_symbol
  _atom_site_label
  _atom_site_symmetry_multiplicity
  _atom_site_fract_x
  _atom_site_fract_y
  _atom_site_fract_z
  _atom_site_occupancy
  Ag  Ag1       1.0  0.54000  0.54000  0.08080  1.0000
  Ag  Ag2       1.0  0.79000  0.29000  0.58100  1.0000
  Dy  Dy1       1.0  0.00130  0.00130  0.00259  1.0000
  Dy  Dy2       1.0  0.25100  0.75100  0.50300  1.0000
  Se  Se1       1.0  0.01770  0.51800  0.03530  1.0000
  Se  Se2       1.0  0.23100  0.23100  0.46100  1.0000
  Se  Se3       1.0  0.76800  0.76800  0.53500  1.0000
  Se  Se4       1.0  0.48100  0.98100  0.96100  1.0000
