data_image0
_chemical_formula_structural       CuLa4LiO8
_chemical_formula_sum              "Cu1 La4 Li1 O8"
_cell_length_a       5.24767
_cell_length_b       5.24885
_cell_length_c       7.04735
_cell_angle_alpha    90
_cell_angle_beta     68.1415
_cell_angle_gamma    90

_space_group_name_H-M_alt    "P 1"
_space_group_IT_number       1

loop_
  _space_group_symop_operation_xyz
  'x, y, z'

loop_
  _atom_site_type_symbol
  _atom_site_label
  _atom_site_symmetry_multiplicity
  _atom_site_fract_x
  _atom_site_fract_y
  _atom_site_fract_z
  _atom_site_occupancy
  Cu  Cu1       1.0  0.00000  0.00000  0.00000  1.0000
  La  La1       1.0  0.36200  0.00000  0.27600  1.0000
  La  La2       1.0  0.86100  0.50000  0.27900  1.0000
  La  La3       1.0  0.13900  0.50000  0.72100  1.0000
  La  La4       1.0  0.63800  0.00000  0.72400  1.0000
  Li  Li1       1.0  0.50000  0.50000  0.00000  1.0000
  O   O1        1.0  0.24400  0.24500  0.00000  1.0000
  O   O2        1.0  0.75600  0.24500  0.00000  1.0000
  O   O3        1.0  0.24400  0.75500  0.00000  1.0000
  O   O4        1.0  0.75600  0.75500  0.00000  1.0000
  O   O5        1.0  0.32200  0.50000  0.35700  1.0000
  O   O6        1.0  0.81600  0.00000  0.36900  1.0000
  O   O7        1.0  0.18400  0.00000  0.63100  1.0000
  O   O8        1.0  0.67800  0.50000  0.64300  1.0000
