data_image0
_chemical_formula_structural       Ce4Pd6Si6
_chemical_formula_sum              "Ce4 Pd6 Si6"
_cell_length_a       4.25266
_cell_length_b       4.25106
_cell_length_c       17.3394
_cell_angle_alpha    90
_cell_angle_beta     90
_cell_angle_gamma    90

_space_group_name_H-M_alt    "P 1"
_space_group_IT_number       1

loop_
  _space_group_symop_operation_xyz
  'x, y, z'

loop_
  _atom_site_type_symbol
  _atom_site_label
  _atom_site_symmetry_multiplicity
  _atom_site_fract_x
  _atom_site_fract_y
  _atom_site_fract_z
  _atom_site_occupancy
  Ce  Ce1       1.0  0.75000  0.25000  0.14500  1.0000
  Ce  Ce2       1.0  0.75000  0.75000  0.35300  1.0000
  Ce  Ce3       1.0  0.25000  0.25000  0.64700  1.0000
  Ce  Ce4       1.0  0.25000  0.75000  0.85500  1.0000
  Pd  Pd1       1.0  0.25000  0.25000  0.00233  1.0000
  Pd  Pd2       1.0  0.25000  0.25000  0.28500  1.0000
  Pd  Pd3       1.0  0.75000  0.25000  0.49700  1.0000
  Pd  Pd4       1.0  0.25000  0.75000  0.50300  1.0000
  Pd  Pd5       1.0  0.75000  0.75000  0.71500  1.0000
  Pd  Pd6       1.0  0.75000  0.75000  0.99800  1.0000
  Si  Si1       1.0  0.25000  0.75000  0.07410  1.0000
  Si  Si2       1.0  0.25000  0.75000  0.21300  1.0000
  Si  Si3       1.0  0.25000  0.25000  0.42600  1.0000
  Si  Si4       1.0  0.75000  0.75000  0.57400  1.0000
  Si  Si5       1.0  0.75000  0.25000  0.78700  1.0000
  Si  Si6       1.0  0.75000  0.25000  0.92600  1.0000
