data_image0
_chemical_formula_structural       Al2B2Ba2F4O6
_chemical_formula_sum              "Al2 B2 Ba2 F4 O6"
_cell_length_a       4.85221
_cell_length_b       4.85207
_cell_length_c       9.26378
_cell_angle_alpha    90
_cell_angle_beta     90
_cell_angle_gamma    119.999

_space_group_name_H-M_alt    "P 1"
_space_group_IT_number       1

loop_
  _space_group_symop_operation_xyz
  'x, y, z'

loop_
  _atom_site_type_symbol
  _atom_site_label
  _atom_site_symmetry_multiplicity
  _atom_site_fract_x
  _atom_site_fract_y
  _atom_site_fract_z
  _atom_site_occupancy
  Al  Al1       1.0  0.66700  0.33300  0.00000  1.0000
  Al  Al2       1.0  0.33300  0.66700  0.50000  1.0000
  B   B1        1.0  0.33300  0.66700  0.00000  1.0000
  B   B2        1.0  0.66700  0.33300  0.50000  1.0000
  Ba  Ba1       1.0  0.00000  0.00000  0.25100  1.0000
  Ba  Ba2       1.0  0.00000  0.00000  0.74900  1.0000
  F   F1        1.0  0.66700  0.33300  0.19900  1.0000
  F   F2        1.0  0.33300  0.66700  0.30000  1.0000
  F   F3        1.0  0.33300  0.66700  0.70000  1.0000
  F   F4        1.0  0.66700  0.33300  0.80100  1.0000
  O   O1        1.0  0.05690  0.37700  0.00000  1.0000
  O   O2        1.0  0.62300  0.68000  0.00000  1.0000
  O   O3        1.0  0.32000  0.94300  0.00000  1.0000
  O   O4        1.0  0.37700  0.05660  0.50000  1.0000
  O   O5        1.0  0.94300  0.32000  0.50000  1.0000
  O   O6        1.0  0.68000  0.62300  0.50000  1.0000
