data_image0
_chemical_formula_structural       LiMoO2
_chemical_formula_sum              "Li1 Mo1 O2"
_cell_length_a       2.79095
_cell_length_b       2.79094
_cell_length_c       5.58699
_cell_angle_alpha    75.536
_cell_angle_beta     104.464
_cell_angle_gamma    120

_space_group_name_H-M_alt    "P 1"
_space_group_IT_number       1

loop_
  _space_group_symop_operation_xyz
  'x, y, z'

loop_
  _atom_site_type_symbol
  _atom_site_label
  _atom_site_symmetry_multiplicity
  _atom_site_fract_x
  _atom_site_fract_y
  _atom_site_fract_z
  _atom_site_occupancy
  Li  Li1       1.0  0.50000  0.50000  0.50000  1.0000
  Mo  Mo1       1.0  0.00000  0.00000  0.00000  1.0000
  O   O1        1.0  0.75400  0.24600  0.26100  1.0000
  O   O2        1.0  0.24600  0.75400  0.73900  1.0000
