data_image0
_chemical_formula_structural       As10Ba4K2
_chemical_formula_sum              "As10 Ba4 K2"
_cell_length_a       6.62055
_cell_length_b       6.62055
_cell_length_c       11.8909
_cell_angle_alpha    90
_cell_angle_beta     90
_cell_angle_gamma    106.294

_space_group_name_H-M_alt    "P 1"
_space_group_IT_number       1

loop_
  _space_group_symop_operation_xyz
  'x, y, z'

loop_
  _atom_site_type_symbol
  _atom_site_label
  _atom_site_symmetry_multiplicity
  _atom_site_fract_x
  _atom_site_fract_y
  _atom_site_fract_z
  _atom_site_occupancy
  As  As1       1.0  0.94800  0.05210  0.00151  1.0000
  As  As2       1.0  0.09790  0.40700  0.08200  1.0000
  As  As3       1.0  0.59300  0.90200  0.08200  1.0000
  As  As4       1.0  0.28700  0.38800  0.26400  1.0000
  As  As5       1.0  0.61200  0.71300  0.26400  1.0000
  As  As6       1.0  0.05210  0.94800  0.50200  1.0000
  As  As7       1.0  0.40700  0.09790  0.58200  1.0000
  As  As8       1.0  0.90200  0.59300  0.58200  1.0000
  As  As9       1.0  0.38800  0.28700  0.76400  1.0000
  As  As10      1.0  0.71300  0.61200  0.76400  1.0000
  Ba  Ba1       1.0  0.59800  0.40200  0.02900  1.0000
  Ba  Ba2       1.0  0.15100  0.84900  0.22300  1.0000
  Ba  Ba3       1.0  0.40200  0.59800  0.52900  1.0000
  Ba  Ba4       1.0  0.84900  0.15100  0.72300  1.0000
  K   K1        1.0  0.75600  0.24400  0.35000  1.0000
  K   K2        1.0  0.24400  0.75600  0.85000  1.0000
