data_image0
_chemical_formula_structural       C6Ga2Ti8
_chemical_formula_sum              "C6 Ga2 Ti8"
_cell_length_a       3.08737
_cell_length_b       3.08738
_cell_length_c       23.2183
_cell_angle_alpha    90
_cell_angle_beta     90
_cell_angle_gamma    120

_space_group_name_H-M_alt    "P 1"
_space_group_IT_number       1

loop_
  _space_group_symop_operation_xyz
  'x, y, z'

loop_
  _atom_site_type_symbol
  _atom_site_label
  _atom_site_symmetry_multiplicity
  _atom_site_fract_x
  _atom_site_fract_y
  _atom_site_fract_z
  _atom_site_occupancy
  C   C1        1.0  0.00000  0.00000  0.00000  1.0000
  C   C2        1.0  0.66700  0.33300  0.10900  1.0000
  C   C3        1.0  0.66700  0.33300  0.39100  1.0000
  C   C4        1.0  0.00000  0.00000  0.50000  1.0000
  C   C5        1.0  0.33300  0.66700  0.60900  1.0000
  C   C6        1.0  0.33300  0.66700  0.89100  1.0000
  Ga  Ga1       1.0  0.33300  0.66700  0.25000  1.0000
  Ga  Ga2       1.0  0.66700  0.33300  0.75000  1.0000
  Ti  Ti1       1.0  0.33300  0.66700  0.05180  1.0000
  Ti  Ti2       1.0  0.00000  0.00000  0.15500  1.0000
  Ti  Ti3       1.0  0.00000  0.00000  0.34500  1.0000
  Ti  Ti4       1.0  0.33300  0.66700  0.44800  1.0000
  Ti  Ti5       1.0  0.66700  0.33300  0.55200  1.0000
  Ti  Ti6       1.0  0.00000  0.00000  0.65500  1.0000
  Ti  Ti7       1.0  0.00000  0.00000  0.84500  1.0000
  Ti  Ti8       1.0  0.66700  0.33300  0.94800  1.0000
