data_image0
_chemical_formula_structural       F6FeNb
_chemical_formula_sum              "F6 Fe1 Nb1"
_cell_length_a       4.91748
_cell_length_b       4.91748
_cell_length_c       5.38066
_cell_angle_alpha    117.191
_cell_angle_beta     62.8089
_cell_angle_gamma    120

_space_group_name_H-M_alt    "P 1"
_space_group_IT_number       1

loop_
  _space_group_symop_operation_xyz
  'x, y, z'

loop_
  _atom_site_type_symbol
  _atom_site_label
  _atom_site_symmetry_multiplicity
  _atom_site_fract_x
  _atom_site_fract_y
  _atom_site_fract_z
  _atom_site_occupancy
  F   F1        1.0  0.25100  0.08290  0.25000  1.0000
  F   F2        1.0  0.91700  0.41800  0.25000  1.0000
  F   F3        1.0  0.58200  0.74900  0.25000  1.0000
  F   F4        1.0  0.41800  0.25100  0.75000  1.0000
  F   F5        1.0  0.08290  0.58200  0.75000  1.0000
  F   F6        1.0  0.74900  0.91700  0.75000  1.0000
  Fe  Fe1       1.0  0.00000  0.00000  0.00000  1.0000
  Nb  Nb1       1.0  0.50000  0.50000  0.50000  1.0000
