data_image0
_chemical_formula_structural       Ag4Se8Tm4
_chemical_formula_sum              "Ag4 Se8 Tm4"
_cell_length_a       6.80681
_cell_length_b       13.6675
_cell_length_c       4.20362
_cell_angle_alpha    90
_cell_angle_beta     90
_cell_angle_gamma    90

_space_group_name_H-M_alt    "P 1"
_space_group_IT_number       1

loop_
  _space_group_symop_operation_xyz
  'x, y, z'

loop_
  _atom_site_type_symbol
  _atom_site_label
  _atom_site_symmetry_multiplicity
  _atom_site_fract_x
  _atom_site_fract_y
  _atom_site_fract_z
  _atom_site_occupancy
  Ag  Ag1       1.0  0.79500  0.12600  0.00449  1.0000
  Ag  Ag2       1.0  0.20500  0.62600  0.49600  1.0000
  Ag  Ag3       1.0  0.70500  0.87400  0.50400  1.0000
  Ag  Ag4       1.0  0.29500  0.37400  0.99600  1.0000
  Se  Se1       1.0  0.41100  0.77300  0.22100  1.0000
  Se  Se2       1.0  0.01360  0.97300  0.22700  1.0000
  Se  Se3       1.0  0.98600  0.47300  0.27300  1.0000
  Se  Se4       1.0  0.58900  0.27300  0.27900  1.0000
  Se  Se5       1.0  0.08860  0.22700  0.72100  1.0000
  Se  Se6       1.0  0.48600  0.02740  0.72700  1.0000
  Se  Se7       1.0  0.51400  0.52700  0.77300  1.0000
  Se  Se8       1.0  0.91100  0.72700  0.77900  1.0000
  Tm  Tm1       1.0  0.29200  0.12800  0.22100  1.0000
  Tm  Tm2       1.0  0.70800  0.62800  0.27900  1.0000
  Tm  Tm3       1.0  0.20800  0.87200  0.72100  1.0000
  Tm  Tm4       1.0  0.79200  0.37200  0.77900  1.0000
