data_image0
_chemical_formula_structural       Cr2S2Ta10
_chemical_formula_sum              "Cr2 S2 Ta10"
_cell_length_a       5.02941
_cell_length_b       7.40741
_cell_length_c       7.54461
_cell_angle_alpha    112.833
_cell_angle_beta     100.475
_cell_angle_gamma    107.976

_space_group_name_H-M_alt    "P 1"
_space_group_IT_number       1

loop_
  _space_group_symop_operation_xyz
  'x, y, z'

loop_
  _atom_site_type_symbol
  _atom_site_label
  _atom_site_symmetry_multiplicity
  _atom_site_fract_x
  _atom_site_fract_y
  _atom_site_fract_z
  _atom_site_occupancy
  Cr  Cr1       1.0  0.00000  0.00000  0.00000  1.0000
  Cr  Cr2       1.0  0.50000  0.00000  0.00000  1.0000
  S   S1        1.0  0.95900  0.70900  0.41800  1.0000
  S   S2        1.0  0.04090  0.29100  0.58200  1.0000
  Ta  Ta1       1.0  0.48700  0.42100  0.14000  1.0000
  Ta  Ta2       1.0  0.15300  0.71900  0.14000  1.0000
  Ta  Ta3       1.0  0.00387  0.35700  0.28600  1.0000
  Ta  Ta4       1.0  0.78200  0.92900  0.28600  1.0000
  Ta  Ta5       1.0  0.45300  0.20300  0.40700  1.0000
  Ta  Ta6       1.0  0.54700  0.79700  0.59300  1.0000
  Ta  Ta7       1.0  0.21800  0.07080  0.71400  1.0000
  Ta  Ta8       1.0  0.99600  0.64300  0.71400  1.0000
  Ta  Ta9       1.0  0.84700  0.28100  0.86000  1.0000
  Ta  Ta10      1.0  0.51300  0.57900  0.86000  1.0000
