data_image0
_chemical_formula_structural       Ag4Se8Yb4
_chemical_formula_sum              "Ag4 Se8 Yb4"
_cell_length_a       6.73858
_cell_length_b       13.8793
_cell_length_c       4.26165
_cell_angle_alpha    90
_cell_angle_beta     90
_cell_angle_gamma    90

_space_group_name_H-M_alt    "P 1"
_space_group_IT_number       1

loop_
  _space_group_symop_operation_xyz
  'x, y, z'

loop_
  _atom_site_type_symbol
  _atom_site_label
  _atom_site_symmetry_multiplicity
  _atom_site_fract_x
  _atom_site_fract_y
  _atom_site_fract_z
  _atom_site_occupancy
  Ag  Ag1       1.0  0.79600  0.12800  0.01040  1.0000
  Ag  Ag2       1.0  0.20400  0.62800  0.49000  1.0000
  Ag  Ag3       1.0  0.70400  0.87200  0.51000  1.0000
  Ag  Ag4       1.0  0.29600  0.37200  0.99000  1.0000
  Se  Se1       1.0  0.59500  0.27500  0.23900  1.0000
  Se  Se2       1.0  0.01270  0.47900  0.24700  1.0000
  Se  Se3       1.0  0.98700  0.97900  0.25300  1.0000
  Se  Se4       1.0  0.40500  0.77500  0.26100  1.0000
  Se  Se5       1.0  0.90500  0.72500  0.73900  1.0000
  Se  Se6       1.0  0.48700  0.52100  0.74700  1.0000
  Se  Se7       1.0  0.51300  0.02060  0.75300  1.0000
  Se  Se8       1.0  0.09480  0.22500  0.76100  1.0000
  Yb  Yb1       1.0  0.69700  0.62400  0.24200  1.0000
  Yb  Yb2       1.0  0.30300  0.12400  0.25800  1.0000
  Yb  Yb3       1.0  0.80300  0.37600  0.74200  1.0000
  Yb  Yb4       1.0  0.19700  0.87600  0.75800  1.0000
