data_image0
_chemical_formula_structural       C8Rh2Sc6
_chemical_formula_sum              "C8 Rh2 Sc6"
_cell_length_a       5.62137
_cell_length_b       5.62118
_cell_length_c       6.75355
_cell_angle_alpha    65.4073
_cell_angle_beta     96.5087
_cell_angle_gamma    105.806

_space_group_name_H-M_alt    "P 1"
_space_group_IT_number       1

loop_
  _space_group_symop_operation_xyz
  'x, y, z'

loop_
  _atom_site_type_symbol
  _atom_site_label
  _atom_site_symmetry_multiplicity
  _atom_site_fract_x
  _atom_site_fract_y
  _atom_site_fract_z
  _atom_site_occupancy
  C   C1        1.0  0.58200  0.79300  0.25700  1.0000
  C   C2        1.0  0.41800  0.95000  0.25700  1.0000
  C   C3        1.0  0.07820  0.28900  0.25800  1.0000
  C   C4        1.0  0.92200  0.45300  0.25800  1.0000
  C   C5        1.0  0.07820  0.54700  0.74200  1.0000
  C   C6        1.0  0.92200  0.71100  0.74200  1.0000
  C   C7        1.0  0.58200  0.05040  0.74300  1.0000
  C   C8        1.0  0.41800  0.20700  0.74300  1.0000
  Rh  Rh1       1.0  0.27000  0.26900  0.00000  1.0000
  Rh  Rh2       1.0  0.73000  0.73100  0.00000  1.0000
  Sc  Sc1       1.0  0.76000  0.24100  0.00000  1.0000
  Sc  Sc2       1.0  0.24000  0.75900  0.00000  1.0000
  Sc  Sc3       1.0  0.00000  0.81200  0.37600  1.0000
  Sc  Sc4       1.0  0.50000  0.31000  0.37900  1.0000
  Sc  Sc5       1.0  0.50000  0.69000  0.62100  1.0000
  Sc  Sc6       1.0  0.00000  0.18800  0.62400  1.0000
