data_image0
_chemical_formula_structural       Ag4Lu4Se8
_chemical_formula_sum              "Ag4 Lu4 Se8"
_cell_length_a       6.79622
_cell_length_b       13.6096
_cell_length_c       4.17406
_cell_angle_alpha    90
_cell_angle_beta     90
_cell_angle_gamma    90

_space_group_name_H-M_alt    "P 1"
_space_group_IT_number       1

loop_
  _space_group_symop_operation_xyz
  'x, y, z'

loop_
  _atom_site_type_symbol
  _atom_site_label
  _atom_site_symmetry_multiplicity
  _atom_site_fract_x
  _atom_site_fract_y
  _atom_site_fract_z
  _atom_site_occupancy
  Ag  Ag1       1.0  0.29400  0.37800  0.00047  1.0000
  Ag  Ag2       1.0  0.70600  0.87800  0.50000  1.0000
  Ag  Ag3       1.0  0.20600  0.62200  0.50000  1.0000
  Ag  Ag4       1.0  0.79400  0.12200  0.00000  1.0000
  Lu  Lu1       1.0  0.28900  0.12900  0.22700  1.0000
  Lu  Lu2       1.0  0.71100  0.62900  0.27300  1.0000
  Lu  Lu3       1.0  0.21100  0.87100  0.72700  1.0000
  Lu  Lu4       1.0  0.78900  0.37100  0.77300  1.0000
  Se  Se1       1.0  0.41200  0.77300  0.22600  1.0000
  Se  Se2       1.0  0.01770  0.97200  0.23100  1.0000
  Se  Se3       1.0  0.98200  0.47200  0.26900  1.0000
  Se  Se4       1.0  0.58800  0.27300  0.27400  1.0000
  Se  Se5       1.0  0.08750  0.22700  0.72600  1.0000
  Se  Se6       1.0  0.48200  0.02830  0.73100  1.0000
  Se  Se7       1.0  0.51800  0.52800  0.76900  1.0000
  Se  Se8       1.0  0.91200  0.72700  0.77400  1.0000
