data_image0
_chemical_formula_structural       Na4O8Si2Zn2
_chemical_formula_sum              "Na4 O8 Si2 Zn2"
_cell_length_a       7.01105
_cell_length_b       5.42075
_cell_length_c       5.22794
_cell_angle_alpha    90
_cell_angle_beta     89.9006
_cell_angle_gamma    90

_space_group_name_H-M_alt    "P 1"
_space_group_IT_number       1

loop_
  _space_group_symop_operation_xyz
  'x, y, z'

loop_
  _atom_site_type_symbol
  _atom_site_label
  _atom_site_symmetry_multiplicity
  _atom_site_fract_x
  _atom_site_fract_y
  _atom_site_fract_z
  _atom_site_occupancy
  Na  Na1       1.0  0.25100  0.31500  0.48800  1.0000
  Na  Na2       1.0  0.99800  0.81200  0.49400  1.0000
  Na  Na3       1.0  0.75100  0.68500  0.98800  1.0000
  Na  Na4       1.0  0.49800  0.18800  0.99400  1.0000
  O   O1        1.0  0.27400  0.70500  0.31900  1.0000
  O   O2        1.0  0.94500  0.20700  0.37200  1.0000
  O   O3        1.0  0.55600  0.16200  0.42200  1.0000
  O   O4        1.0  0.72500  0.60700  0.42300  1.0000
  O   O5        1.0  0.77400  0.29500  0.81900  1.0000
  O   O6        1.0  0.44500  0.79300  0.87200  1.0000
  O   O7        1.0  0.05580  0.83800  0.92200  1.0000
  O   O8        1.0  0.22500  0.39300  0.92300  1.0000
  Si  Si1       1.0  0.25000  0.68600  0.00623  1.0000
  Si  Si2       1.0  0.75000  0.31400  0.50600  1.0000
  Zn  Zn1       1.0  0.00188  0.18700  0.00200  1.0000
  Zn  Zn2       1.0  0.50200  0.81300  0.50200  1.0000
