data_image0
_chemical_formula_structural       C2NiY
_chemical_formula_sum              "C2 Ni1 Y1"
_cell_length_a       3.59758
_cell_length_b       3.76119
_cell_length_c       3.76119
_cell_angle_alpha    106.087
_cell_angle_beta     90
_cell_angle_gamma    90

_space_group_name_H-M_alt    "P 1"
_space_group_IT_number       1

loop_
  _space_group_symop_operation_xyz
  'x, y, z'

loop_
  _atom_site_type_symbol
  _atom_site_label
  _atom_site_symmetry_multiplicity
  _atom_site_fract_x
  _atom_site_fract_y
  _atom_site_fract_z
  _atom_site_occupancy
  C   C1        1.0  0.50000  0.54500  0.15100  1.0000
  C   C2        1.0  0.50000  0.84900  0.45500  1.0000
  Ni  Ni1       1.0  0.50000  0.38500  0.61500  1.0000
  Y   Y1        1.0  0.00000  0.99800  0.00201  1.0000
