data_image0
_chemical_formula_structural       Ni4U6
_chemical_formula_sum              "Ni4 U6"
_cell_length_a       5.65404
_cell_length_b       5.65404
_cell_length_c       7.60981
_cell_angle_alpha    111.808
_cell_angle_beta     68.1921
_cell_angle_gamma    120

_space_group_name_H-M_alt    "P 1"
_space_group_IT_number       1

loop_
  _space_group_symop_operation_xyz
  'x, y, z'

loop_
  _atom_site_type_symbol
  _atom_site_label
  _atom_site_symmetry_multiplicity
  _atom_site_fract_x
  _atom_site_fract_y
  _atom_site_fract_z
  _atom_site_occupancy
  Ni  Ni1       1.0  0.30800  0.69200  0.07640  1.0000
  Ni  Ni2       1.0  0.19200  0.80800  0.42400  1.0000
  Ni  Ni3       1.0  0.80800  0.19200  0.57600  1.0000
  Ni  Ni4       1.0  0.69200  0.30800  0.92400  1.0000
  U   U1        1.0  0.25000  0.18500  0.25000  1.0000
  U   U2        1.0  0.81500  0.31500  0.25000  1.0000
  U   U3        1.0  0.68500  0.75000  0.25000  1.0000
  U   U4        1.0  0.75000  0.81500  0.75000  1.0000
  U   U5        1.0  0.31500  0.25000  0.75000  1.0000
  U   U6        1.0  0.18500  0.68500  0.75000  1.0000
