data_image0
_chemical_formula_structural       Ba4Ti6
_chemical_formula_sum              "Ba4 Ti6"
_cell_length_a       7.76073
_cell_length_b       7.76073
_cell_length_c       7.82062
_cell_angle_alpha    119.747
_cell_angle_beta     60.253
_cell_angle_gamma    120

_space_group_name_H-M_alt    "P 1"
_space_group_IT_number       1

loop_
  _space_group_symop_operation_xyz
  'x, y, z'

loop_
  _atom_site_type_symbol
  _atom_site_label
  _atom_site_symmetry_multiplicity
  _atom_site_fract_x
  _atom_site_fract_y
  _atom_site_fract_z
  _atom_site_occupancy
  Ba  Ba1       1.0  0.58800  0.41200  0.23700  1.0000
  Ba  Ba2       1.0  0.91200  0.08760  0.26300  1.0000
  Ba  Ba3       1.0  0.08760  0.91200  0.73700  1.0000
  Ba  Ba4       1.0  0.41200  0.58800  0.76300  1.0000
  Ti  Ti1       1.0  0.25000  0.93200  0.25000  1.0000
  Ti  Ti2       1.0  0.06760  0.56800  0.25000  1.0000
  Ti  Ti3       1.0  0.43200  0.75000  0.25000  1.0000
  Ti  Ti4       1.0  0.56800  0.25000  0.75000  1.0000
  Ti  Ti5       1.0  0.93200  0.43200  0.75000  1.0000
  Ti  Ti6       1.0  0.75000  0.06760  0.75000  1.0000
