data_image0
_chemical_formula_structural       Ce10Pb6
_chemical_formula_sum              "Ce10 Pb6"
_cell_length_a       9.55618
_cell_length_b       9.55618
_cell_length_c       6.97025
_cell_angle_alpha    90
_cell_angle_beta     90
_cell_angle_gamma    119.998

_space_group_name_H-M_alt    "P 1"
_space_group_IT_number       1

loop_
  _space_group_symop_operation_xyz
  'x, y, z'

loop_
  _atom_site_type_symbol
  _atom_site_label
  _atom_site_symmetry_multiplicity
  _atom_site_fract_x
  _atom_site_fract_y
  _atom_site_fract_z
  _atom_site_occupancy
  Ce  Ce1       1.0  0.66700  0.33300  0.00000  1.0000
  Ce  Ce2       1.0  0.33300  0.66700  0.00000  1.0000
  Ce  Ce3       1.0  0.24200  0.00000  0.25000  1.0000
  Ce  Ce4       1.0  0.00000  0.24200  0.25000  1.0000
  Ce  Ce5       1.0  0.75800  0.75800  0.25000  1.0000
  Ce  Ce6       1.0  0.66700  0.33300  0.50000  1.0000
  Ce  Ce7       1.0  0.33300  0.66700  0.50000  1.0000
  Ce  Ce8       1.0  0.75800  0.00000  0.75000  1.0000
  Ce  Ce9       1.0  0.00000  0.75800  0.75000  1.0000
  Ce  Ce10      1.0  0.24200  0.24200  0.75000  1.0000
  Pb  Pb1       1.0  0.60800  0.00000  0.25000  1.0000
  Pb  Pb2       1.0  0.39200  0.39200  0.25000  1.0000
  Pb  Pb3       1.0  0.00000  0.60800  0.25000  1.0000
  Pb  Pb4       1.0  0.39200  0.00000  0.75000  1.0000
  Pb  Pb5       1.0  0.00000  0.39200  0.75000  1.0000
  Pb  Pb6       1.0  0.60800  0.60800  0.75000  1.0000
