data_image0
_chemical_formula_structural       Cl2Fe2N6O6
_chemical_formula_sum              "Cl2 Fe2 N6 O6"
_cell_length_a       6.93511
_cell_length_b       6.93512
_cell_length_c       5.86021
_cell_angle_alpha    90
_cell_angle_beta     90
_cell_angle_gamma    120

_space_group_name_H-M_alt    "P 1"
_space_group_IT_number       1

loop_
  _space_group_symop_operation_xyz
  'x, y, z'

loop_
  _atom_site_type_symbol
  _atom_site_label
  _atom_site_symmetry_multiplicity
  _atom_site_fract_x
  _atom_site_fract_y
  _atom_site_fract_z
  _atom_site_occupancy
  Cl  Cl1       1.0  0.33300  0.66700  0.17900  1.0000
  Cl  Cl2       1.0  0.66700  0.33300  0.67900  1.0000
  Fe  Fe1       1.0  0.66700  0.33300  0.29700  1.0000
  Fe  Fe2       1.0  0.33300  0.66700  0.79700  1.0000
  N   N1        1.0  0.40200  0.20100  0.18700  1.0000
  N   N2        1.0  0.79900  0.20100  0.18700  1.0000
  N   N3        1.0  0.79900  0.59800  0.18700  1.0000
  N   N4        1.0  0.20100  0.79900  0.68700  1.0000
  N   N5        1.0  0.59800  0.79900  0.68700  1.0000
  N   N6        1.0  0.20100  0.40200  0.68700  1.0000
  O   O1        1.0  0.86900  0.73700  0.04640  1.0000
  O   O2        1.0  0.26300  0.13100  0.04650  1.0000
  O   O3        1.0  0.86900  0.13100  0.04650  1.0000
  O   O4        1.0  0.13100  0.26300  0.54600  1.0000
  O   O5        1.0  0.13100  0.86900  0.54600  1.0000
  O   O6        1.0  0.73700  0.86900  0.54600  1.0000
