data_image0
_chemical_formula_structural       Ce10Sb6
_chemical_formula_sum              "Ce10 Sb6"
_cell_length_a       9.50986
_cell_length_b       9.50986
_cell_length_c       6.62878
_cell_angle_alpha    90
_cell_angle_beta     90
_cell_angle_gamma    120.001

_space_group_name_H-M_alt    "P 1"
_space_group_IT_number       1

loop_
  _space_group_symop_operation_xyz
  'x, y, z'

loop_
  _atom_site_type_symbol
  _atom_site_label
  _atom_site_symmetry_multiplicity
  _atom_site_fract_x
  _atom_site_fract_y
  _atom_site_fract_z
  _atom_site_occupancy
  Ce  Ce1       1.0  0.66700  0.33300  0.00000  1.0000
  Ce  Ce2       1.0  0.33300  0.66700  0.00000  1.0000
  Ce  Ce3       1.0  0.25200  0.00000  0.25000  1.0000
  Ce  Ce4       1.0  0.00000  0.25200  0.25000  1.0000
  Ce  Ce5       1.0  0.74800  0.74800  0.25000  1.0000
  Ce  Ce6       1.0  0.66700  0.33300  0.50000  1.0000
  Ce  Ce7       1.0  0.33300  0.66700  0.50000  1.0000
  Ce  Ce8       1.0  0.74800  0.00000  0.75000  1.0000
  Ce  Ce9       1.0  0.00000  0.74800  0.75000  1.0000
  Ce  Ce10      1.0  0.25200  0.25200  0.75000  1.0000
  Sb  Sb1       1.0  0.61500  0.00000  0.25000  1.0000
  Sb  Sb2       1.0  0.00000  0.61500  0.25000  1.0000
  Sb  Sb3       1.0  0.38500  0.38500  0.25000  1.0000
  Sb  Sb4       1.0  0.38500  0.00000  0.75000  1.0000
  Sb  Sb5       1.0  0.00000  0.38500  0.75000  1.0000
  Sb  Sb6       1.0  0.61500  0.61500  0.75000  1.0000
