data_image0
_chemical_formula_structural       O10Ti6
_chemical_formula_sum              "O10 Ti6"
_cell_length_a       5.03947
_cell_length_b       5.6432
_cell_length_c       7.19602
_cell_angle_alpha    109.36
_cell_angle_beta     90
_cell_angle_gamma    116.52

_space_group_name_H-M_alt    "P 1"
_space_group_IT_number       1

loop_
  _space_group_symop_operation_xyz
  'x, y, z'

loop_
  _atom_site_type_symbol
  _atom_site_label
  _atom_site_symmetry_multiplicity
  _atom_site_fract_x
  _atom_site_fract_y
  _atom_site_fract_z
  _atom_site_occupancy
  O   O1        1.0  0.75900  0.83500  0.05800  1.0000
  O   O2        1.0  0.85100  0.38100  0.15100  1.0000
  O   O3        1.0  0.31300  0.00000  0.25000  1.0000
  O   O4        1.0  0.46900  0.61900  0.34900  1.0000
  O   O5        1.0  0.92400  0.16500  0.44200  1.0000
  O   O6        1.0  0.07570  0.83500  0.55800  1.0000
  O   O7        1.0  0.53100  0.38100  0.65100  1.0000
  O   O8        1.0  0.68700  0.00000  0.75000  1.0000
  O   O9        1.0  0.14900  0.61900  0.84900  1.0000
  O   O10       1.0  0.24100  0.16500  0.94200  1.0000
  Ti  Ti1       1.0  0.50000  0.00000  0.00000  1.0000
  Ti  Ti2       1.0  0.13500  0.25400  0.21600  1.0000
  Ti  Ti3       1.0  0.88000  0.74600  0.28400  1.0000
  Ti  Ti4       1.0  0.50000  0.00000  0.50000  1.0000
  Ti  Ti5       1.0  0.12000  0.25400  0.71600  1.0000
  Ti  Ti6       1.0  0.86500  0.74600  0.78400  1.0000
