data_image0
_chemical_formula_structural       Ba2Bi4Nb4O18
_chemical_formula_sum              "Ba2 Bi4 Nb4 O18"
_cell_length_a       5.57513
_cell_length_b       12.2581
_cell_length_c       12.2581
_cell_angle_alpha    26.4024
_cell_angle_beta     90
_cell_angle_gamma    90

_space_group_name_H-M_alt    "P 1"
_space_group_IT_number       1

loop_
  _space_group_symop_operation_xyz
  'x, y, z'

loop_
  _atom_site_type_symbol
  _atom_site_label
  _atom_site_symmetry_multiplicity
  _atom_site_fract_x
  _atom_site_fract_y
  _atom_site_fract_z
  _atom_site_occupancy
  Ba  Ba1       1.0  0.98300  0.25100  0.74900  1.0000
  Ba  Ba2       1.0  0.48300  0.74900  0.25100  1.0000
  Bi  Bi1       1.0  0.49800  0.92800  0.47300  1.0000
  Bi  Bi2       1.0  0.99800  0.07190  0.52700  1.0000
  Bi  Bi3       1.0  0.99800  0.47300  0.92800  1.0000
  Bi  Bi4       1.0  0.49800  0.52700  0.07190  1.0000
  Nb  Nb1       1.0  0.48500  0.15900  0.65800  1.0000
  Nb  Nb2       1.0  0.98500  0.84100  0.34200  1.0000
  Nb  Nb3       1.0  0.98500  0.65800  0.15900  1.0000
  Nb  Nb4       1.0  0.48500  0.34200  0.84100  1.0000
  O   O1        1.0  0.73800  0.56400  0.59500  1.0000
  O   O2        1.0  0.23800  0.43600  0.40500  1.0000
  O   O3        1.0  0.23800  0.59500  0.56400  1.0000
  O   O4        1.0  0.73800  0.40500  0.43600  1.0000
  O   O5        1.0  0.69900  0.06600  0.11400  1.0000
  O   O6        1.0  0.19900  0.93400  0.88600  1.0000
  O   O7        1.0  0.19900  0.11400  0.06600  1.0000
  O   O8        1.0  0.69900  0.88600  0.93400  1.0000
  O   O9        1.0  0.73700  0.24400  0.24700  1.0000
  O   O10       1.0  0.23700  0.75600  0.75300  1.0000
  O   O11       1.0  0.23700  0.24700  0.24400  1.0000
  O   O12       1.0  0.73700  0.75300  0.75600  1.0000
  O   O13       1.0  0.47000  0.12800  0.53400  1.0000
  O   O14       1.0  0.97000  0.87200  0.46600  1.0000
  O   O15       1.0  0.97000  0.53400  0.12800  1.0000
  O   O16       1.0  0.47000  0.46600  0.87200  1.0000
  O   O17       1.0  0.47300  0.22900  0.77100  1.0000
  O   O18       1.0  0.97300  0.77100  0.22900  1.0000
