data_image0
_chemical_formula_structural       Li4Mo4S8
_chemical_formula_sum              "Li4 Mo4 S8"
_cell_length_a       6.83295
_cell_length_b       6.74212
_cell_length_c       6.22599
_cell_angle_alpha    89.9599
_cell_angle_beta     89.9586
_cell_angle_gamma    121.368

_space_group_name_H-M_alt    "P 1"
_space_group_IT_number       1

loop_
  _space_group_symop_operation_xyz
  'x, y, z'

loop_
  _atom_site_type_symbol
  _atom_site_label
  _atom_site_symmetry_multiplicity
  _atom_site_fract_x
  _atom_site_fract_y
  _atom_site_fract_z
  _atom_site_occupancy
  Li  Li1       1.0  0.52100  0.22700  0.01030  1.0000
  Li  Li2       1.0  0.00922  0.74800  0.02000  1.0000
  Li  Li3       1.0  0.99100  0.25200  0.98000  1.0000
  Li  Li4       1.0  0.47900  0.77300  0.99000  1.0000
  Mo  Mo1       1.0  0.05670  0.24800  0.49600  1.0000
  Mo  Mo2       1.0  0.49200  0.70200  0.50000  1.0000
  Mo  Mo3       1.0  0.50800  0.29800  0.50000  1.0000
  Mo  Mo4       1.0  0.94300  0.75200  0.50400  1.0000
  S   S1        1.0  0.34500  0.41300  0.22400  1.0000
  S   S2        1.0  0.81800  0.92300  0.25100  1.0000
  S   S3        1.0  0.84800  0.41700  0.28000  1.0000
  S   S4        1.0  0.32200  0.91300  0.30000  1.0000
  S   S5        1.0  0.67800  0.08740  0.70000  1.0000
  S   S6        1.0  0.15200  0.58300  0.72000  1.0000
  S   S7        1.0  0.18200  0.07720  0.74900  1.0000
  S   S8        1.0  0.65500  0.58700  0.77600  1.0000
