data_image0
_chemical_formula_structural       B3Ca4O10Y
_chemical_formula_sum              "B3 Ca4 O10 Y1"
_cell_length_a       3.50308
_cell_length_b       8.04496
_cell_length_c       8.92928
_cell_angle_alpha    63.2254
_cell_angle_beta     94.8917
_cell_angle_gamma    100.911

_space_group_name_H-M_alt    "P 1"
_space_group_IT_number       1

loop_
  _space_group_symop_operation_xyz
  'x, y, z'

loop_
  _atom_site_type_symbol
  _atom_site_label
  _atom_site_symmetry_multiplicity
  _atom_site_fract_x
  _atom_site_fract_y
  _atom_site_fract_z
  _atom_site_occupancy
  B   B1        1.0  0.30400  0.62900  0.00000  1.0000
  B   B2        1.0  0.92400  0.86100  0.38900  1.0000
  B   B3        1.0  0.92400  0.25000  0.61100  1.0000
  Ca  Ca1       1.0  0.67800  0.25000  0.22400  1.0000
  Ca  Ca2       1.0  0.35200  0.55900  0.36400  1.0000
  Ca  Ca3       1.0  0.35200  0.92300  0.63600  1.0000
  Ca  Ca4       1.0  0.67800  0.47400  0.77600  1.0000
  O   O1        1.0  0.58000  0.17400  0.00000  1.0000
  O   O2        1.0  0.40400  0.80500  0.00000  1.0000
  O   O3        1.0  0.25500  0.46800  0.15000  1.0000
  O   O4        1.0  0.92900  0.77700  0.28300  1.0000
  O   O5        1.0  0.12400  0.04050  0.34700  1.0000
  O   O6        1.0  0.72500  0.30400  0.46100  1.0000
  O   O7        1.0  0.72500  0.76500  0.53900  1.0000
  O   O8        1.0  0.12400  0.38800  0.65300  1.0000
  O   O9        1.0  0.92900  0.05990  0.71700  1.0000
  O   O10       1.0  0.25500  0.61800  0.85000  1.0000
  Y   Y1        1.0  0.00234  0.00087  0.00000  1.0000
