data_image0
_chemical_formula_structural       Ag2O11V4
_chemical_formula_sum              "Ag2 O11 V4"
_cell_length_a       3.60663
_cell_length_b       7.7348
_cell_length_c       7.85264
_cell_angle_alpha    99.7348
_cell_angle_beta     103.276
_cell_angle_gamma    103.482

_space_group_name_H-M_alt    "P 1"
_space_group_IT_number       1

loop_
  _space_group_symop_operation_xyz
  'x, y, z'

loop_
  _atom_site_type_symbol
  _atom_site_label
  _atom_site_symmetry_multiplicity
  _atom_site_fract_x
  _atom_site_fract_y
  _atom_site_fract_z
  _atom_site_occupancy
  Ag  Ag1       1.0  0.39500  0.50700  0.28300  1.0000
  Ag  Ag2       1.0  0.60500  0.49300  0.71700  1.0000
  O   O1        1.0  0.00000  0.00000  0.00000  1.0000
  O   O2        1.0  0.83200  0.65000  0.01440  1.0000
  O   O3        1.0  0.56200  0.90700  0.21800  1.0000
  O   O4        1.0  0.80400  0.30800  0.29900  1.0000
  O   O5        1.0  0.03830  0.71500  0.36100  1.0000
  O   O6        1.0  0.24200  0.07690  0.40800  1.0000
  O   O7        1.0  0.75800  0.92300  0.59200  1.0000
  O   O8        1.0  0.96200  0.28500  0.63900  1.0000
  O   O9        1.0  0.19600  0.69200  0.70100  1.0000
  O   O10       1.0  0.43800  0.09330  0.78200  1.0000
  O   O11       1.0  0.16800  0.35000  0.98600  1.0000
  V   V1        1.0  0.00208  0.85100  0.15300  1.0000
  V   V2        1.0  0.78100  0.14800  0.41500  1.0000
  V   V3        1.0  0.21900  0.85200  0.58500  1.0000
  V   V4        1.0  0.99800  0.14900  0.84700  1.0000
