data_image0
_chemical_formula_structural       B3Ca4O10Tb
_chemical_formula_sum              "B3 Ca4 O10 Tb1"
_cell_length_a       3.51856
_cell_length_b       8.05805
_cell_length_c       8.92471
_cell_angle_alpha    63.1635
_cell_angle_beta     94.9585
_cell_angle_gamma    101.038

_space_group_name_H-M_alt    "P 1"
_space_group_IT_number       1

loop_
  _space_group_symop_operation_xyz
  'x, y, z'

loop_
  _atom_site_type_symbol
  _atom_site_label
  _atom_site_symmetry_multiplicity
  _atom_site_fract_x
  _atom_site_fract_y
  _atom_site_fract_z
  _atom_site_occupancy
  B   B1        1.0  0.69900  0.37400  0.00000  1.0000
  B   B2        1.0  0.07820  0.75200  0.39000  1.0000
  B   B3        1.0  0.07820  0.14200  0.61000  1.0000
  Ca  Ca1       1.0  0.32500  0.52800  0.22500  1.0000
  Ca  Ca2       1.0  0.65200  0.07980  0.36300  1.0000
  Ca  Ca3       1.0  0.65200  0.44300  0.63700  1.0000
  Ca  Ca4       1.0  0.32500  0.75200  0.77500  1.0000
  O   O1        1.0  0.60100  0.19900  0.00000  1.0000
  O   O2        1.0  0.42100  0.82800  0.00000  1.0000
  O   O3        1.0  0.74800  0.38500  0.15000  1.0000
  O   O4        1.0  0.07490  0.94200  0.28300  1.0000
  O   O5        1.0  0.87900  0.61500  0.34700  1.0000
  O   O6        1.0  0.27600  0.23700  0.46000  1.0000
  O   O7        1.0  0.27600  0.69700  0.54000  1.0000
  O   O8        1.0  0.87900  0.96200  0.65300  1.0000
  O   O9        1.0  0.07490  0.22600  0.71700  1.0000
  O   O10       1.0  0.74800  0.53600  0.85000  1.0000
  Tb  Tb1       1.0  0.99900  0.00044  0.00000  1.0000
