data_image0
_chemical_formula_structural       Br6H8N2Te
_chemical_formula_sum              "Br6 H8 N2 Te1"
_cell_length_a       7.58191
_cell_length_b       7.58191
_cell_length_c       7.58191
_cell_angle_alpha    120
_cell_angle_beta     90
_cell_angle_gamma    120

_space_group_name_H-M_alt    "P 1"
_space_group_IT_number       1

loop_
  _space_group_symop_operation_xyz
  'x, y, z'

loop_
  _atom_site_type_symbol
  _atom_site_label
  _atom_site_symmetry_multiplicity
  _atom_site_fract_x
  _atom_site_fract_y
  _atom_site_fract_z
  _atom_site_occupancy
  Br  Br1       1.0  0.24600  0.00000  0.24600  1.0000
  Br  Br2       1.0  0.24600  0.49300  0.24600  1.0000
  Br  Br3       1.0  0.75400  0.00000  0.24600  1.0000
  Br  Br4       1.0  0.24600  0.00000  0.75400  1.0000
  Br  Br5       1.0  0.75400  0.00000  0.75400  1.0000
  Br  Br6       1.0  0.75400  0.50700  0.75400  1.0000
  H   H1        1.0  0.58300  0.38800  0.19400  1.0000
  H   H2        1.0  0.80600  0.38800  0.19400  1.0000
  H   H3        1.0  0.80600  0.61200  0.19400  1.0000
  H   H4        1.0  0.80600  0.61200  0.41700  1.0000
  H   H5        1.0  0.19400  0.38800  0.58300  1.0000
  H   H6        1.0  0.19400  0.38800  0.80600  1.0000
  H   H7        1.0  0.19400  0.61200  0.80600  1.0000
  H   H8        1.0  0.41700  0.61200  0.80600  1.0000
  N   N1        1.0  0.75000  0.50000  0.25000  1.0000
  N   N2        1.0  0.25000  0.50000  0.75000  1.0000
  Te  Te1       1.0  0.50000  0.00000  0.50000  1.0000
