data_image0
_chemical_formula_structural       As2Fe2H2O10Pb
_chemical_formula_sum              "As2 Fe2 H2 O10 Pb1"
_cell_length_a       5.50101
_cell_length_b       5.50101
_cell_length_c       7.57363
_cell_angle_alpha    109.793
_cell_angle_beta     70.2069
_cell_angle_gamma    111.295

_space_group_name_H-M_alt    "P 1"
_space_group_IT_number       1

loop_
  _space_group_symop_operation_xyz
  'x, y, z'

loop_
  _atom_site_type_symbol
  _atom_site_label
  _atom_site_symmetry_multiplicity
  _atom_site_fract_x
  _atom_site_fract_y
  _atom_site_fract_z
  _atom_site_occupancy
  As  As1       1.0  0.58100  0.41900  0.21300  1.0000
  As  As2       1.0  0.41900  0.58100  0.78700  1.0000
  Fe  Fe1       1.0  0.00000  0.50000  0.50000  1.0000
  Fe  Fe2       1.0  0.50000  0.00000  0.50000  1.0000
  H   H1        1.0  0.21800  0.78200  0.25600  1.0000
  H   H2        1.0  0.78200  0.21800  0.74400  1.0000
  O   O1        1.0  0.27800  0.72200  0.01640  1.0000
  O   O2        1.0  0.23500  0.30800  0.26600  1.0000
  O   O3        1.0  0.69200  0.76500  0.26600  1.0000
  O   O4        1.0  0.68800  0.31200  0.36000  1.0000
  O   O5        1.0  0.17600  0.82400  0.40000  1.0000
  O   O6        1.0  0.82400  0.17600  0.60000  1.0000
  O   O7        1.0  0.31200  0.68800  0.64000  1.0000
  O   O8        1.0  0.30800  0.23500  0.73400  1.0000
  O   O9        1.0  0.76500  0.69200  0.73400  1.0000
  O   O10       1.0  0.72200  0.27800  0.98400  1.0000
  Pb  Pb1       1.0  0.00000  0.00000  0.00000  1.0000
