data_image0
_chemical_formula_structural       F4N4Sr8
_chemical_formula_sum              "F4 N4 Sr8"
_cell_length_a       7.4917
_cell_length_b       7.4917
_cell_length_c       7.4917
_cell_angle_alpha    120
_cell_angle_beta     90
_cell_angle_gamma    120

_space_group_name_H-M_alt    "P 1"
_space_group_IT_number       1

loop_
  _space_group_symop_operation_xyz
  'x, y, z'

loop_
  _atom_site_type_symbol
  _atom_site_label
  _atom_site_symmetry_multiplicity
  _atom_site_fract_x
  _atom_site_fract_y
  _atom_site_fract_z
  _atom_site_occupancy
  F   F1        1.0  0.50000  0.00000  0.00000  1.0000
  F   F2        1.0  0.00000  0.50000  0.00000  1.0000
  F   F3        1.0  0.50000  0.50000  0.00000  1.0000
  F   F4        1.0  0.50000  0.00000  0.50000  1.0000
  N   N1        1.0  0.00000  0.00000  0.00000  1.0000
  N   N2        1.0  0.00000  0.00000  0.50000  1.0000
  N   N3        1.0  0.00000  0.50000  0.50000  1.0000
  N   N4        1.0  0.50000  0.50000  0.50000  1.0000
  Sr  Sr1       1.0  0.24100  0.01740  0.25900  1.0000
  Sr  Sr2       1.0  0.77600  0.01740  0.25900  1.0000
  Sr  Sr3       1.0  0.24100  0.48300  0.25900  1.0000
  Sr  Sr4       1.0  0.75900  0.51700  0.27600  1.0000
  Sr  Sr5       1.0  0.24100  0.48300  0.72400  1.0000
  Sr  Sr6       1.0  0.75900  0.51700  0.74100  1.0000
  Sr  Sr7       1.0  0.22400  0.98300  0.74100  1.0000
  Sr  Sr8       1.0  0.75900  0.98300  0.74100  1.0000
