data_image0
_chemical_formula_structural       SbTe6Tl9
_chemical_formula_sum              "Sb1 Te6 Tl9"
_cell_length_a       8.87779
_cell_length_b       8.87779
_cell_length_c       9.09309
_cell_angle_alpha    119.22
_cell_angle_beta     119.22
_cell_angle_gamma    90

_space_group_name_H-M_alt    "P 1"
_space_group_IT_number       1

loop_
  _space_group_symop_operation_xyz
  'x, y, z'

loop_
  _atom_site_type_symbol
  _atom_site_label
  _atom_site_symmetry_multiplicity
  _atom_site_fract_x
  _atom_site_fract_y
  _atom_site_fract_z
  _atom_site_occupancy
  Sb  Sb1       1.0  0.00000  0.00000  0.00000  1.0000
  Te  Te1       1.0  0.67600  0.14900  0.00000  1.0000
  Te  Te2       1.0  0.14900  0.32400  0.00000  1.0000
  Te  Te3       1.0  0.85100  0.67600  0.00000  1.0000
  Te  Te4       1.0  0.32400  0.85100  0.00000  1.0000
  Te  Te5       1.0  0.23700  0.23700  0.47400  1.0000
  Te  Te6       1.0  0.76300  0.76300  0.52600  1.0000
  Tl  Tl1       1.0  0.50000  0.50000  0.00000  1.0000
  Tl  Tl2       1.0  0.80300  0.01050  0.31800  1.0000
  Tl  Tl3       1.0  0.51500  0.30800  0.31800  1.0000
  Tl  Tl4       1.0  0.01050  0.51500  0.31800  1.0000
  Tl  Tl5       1.0  0.30800  0.80300  0.31800  1.0000
  Tl  Tl6       1.0  0.69200  0.19700  0.68200  1.0000
  Tl  Tl7       1.0  0.99000  0.48500  0.68200  1.0000
  Tl  Tl8       1.0  0.48500  0.69200  0.68200  1.0000
  Tl  Tl9       1.0  0.19700  0.99000  0.68200  1.0000
