data_image0
_chemical_formula_structural       Al2Ca4Fe2O10
_chemical_formula_sum              "Al2 Ca4 Fe2 O10"
_cell_length_a       5.35134
_cell_length_b       5.61964
_cell_length_c       8.14955
_cell_angle_alpha    110.169
_cell_angle_beta     109.167
_cell_angle_gamma    90

_space_group_name_H-M_alt    "P 1"
_space_group_IT_number       1

loop_
  _space_group_symop_operation_xyz
  'x, y, z'

loop_
  _atom_site_type_symbol
  _atom_site_label
  _atom_site_symmetry_multiplicity
  _atom_site_fract_x
  _atom_site_fract_y
  _atom_site_fract_z
  _atom_site_occupancy
  Al  Al1       1.0  0.20700  0.17600  0.50000  1.0000
  Al  Al2       1.0  0.70700  0.82400  0.50000  1.0000
  Ca  Ca1       1.0  0.59700  0.13900  0.21900  1.0000
  Ca  Ca2       1.0  0.09700  0.58000  0.21900  1.0000
  Ca  Ca3       1.0  0.87800  0.42000  0.78100  1.0000
  Ca  Ca4       1.0  0.37800  0.86100  0.78100  1.0000
  Fe  Fe1       1.0  0.99800  0.00000  0.00000  1.0000
  Fe  Fe2       1.0  0.49800  0.50000  0.00000  1.0000
  O   O1        1.0  0.26300  0.76200  0.03310  1.0000
  O   O2        1.0  0.76300  0.77100  0.03310  1.0000
  O   O3        1.0  0.17400  0.22100  0.29300  1.0000
  O   O4        1.0  0.67400  0.57100  0.29300  1.0000
  O   O5        1.0  0.87600  0.10300  0.50000  1.0000
  O   O6        1.0  0.37600  0.89700  0.50000  1.0000
  O   O7        1.0  0.38100  0.42900  0.70700  1.0000
  O   O8        1.0  0.88100  0.77900  0.70700  1.0000
  O   O9        1.0  0.73000  0.22900  0.96700  1.0000
  O   O10       1.0  0.23000  0.23800  0.96700  1.0000
