data_image0
_chemical_formula_structural       Ce10Ga6
_chemical_formula_sum              "Ce10 Ga6"
_cell_length_a       6.15247
_cell_length_b       9.22977
_cell_length_c       9.22977
_cell_angle_alpha    96.3779
_cell_angle_beta     70.5311
_cell_angle_gamma    109.469

_space_group_name_H-M_alt    "P 1"
_space_group_IT_number       1

loop_
  _space_group_symop_operation_xyz
  'x, y, z'

loop_
  _atom_site_type_symbol
  _atom_site_label
  _atom_site_symmetry_multiplicity
  _atom_site_fract_x
  _atom_site_fract_y
  _atom_site_fract_z
  _atom_site_occupancy
  Ce  Ce1       1.0  0.28400  0.69700  0.13000  1.0000
  Ce  Ce2       1.0  0.08630  0.30300  0.13000  1.0000
  Ce  Ce3       1.0  0.41400  0.13000  0.30300  1.0000
  Ce  Ce4       1.0  0.78400  0.87000  0.30300  1.0000
  Ce  Ce5       1.0  0.75000  0.50000  0.50000  1.0000
  Ce  Ce6       1.0  0.25000  0.50000  0.50000  1.0000
  Ce  Ce7       1.0  0.21600  0.13000  0.69700  1.0000
  Ce  Ce8       1.0  0.58600  0.87000  0.69700  1.0000
  Ce  Ce9       1.0  0.91400  0.69700  0.87000  1.0000
  Ce  Ce10      1.0  0.71600  0.30300  0.87000  1.0000
  Ga  Ga1       1.0  0.75000  0.00000  0.00000  1.0000
  Ga  Ga2       1.0  0.25000  0.00000  0.00000  1.0000
  Ga  Ga3       1.0  0.66000  0.50000  0.18000  1.0000
  Ga  Ga4       1.0  0.84000  0.18000  0.50000  1.0000
  Ga  Ga5       1.0  0.16000  0.82000  0.50000  1.0000
  Ga  Ga6       1.0  0.34000  0.50000  0.82000  1.0000
