data_image0
_chemical_formula_structural       Ba2Ge2O12Te2
_chemical_formula_sum              "Ba2 Ge2 O12 Te2"
_cell_length_a       5.13154
_cell_length_b       5.13145
_cell_length_c       11.4728
_cell_angle_alpha    89.9999
_cell_angle_beta     90.0002
_cell_angle_gamma    120.001

_space_group_name_H-M_alt    "P 1"
_space_group_IT_number       1

loop_
  _space_group_symop_operation_xyz
  'x, y, z'

loop_
  _atom_site_type_symbol
  _atom_site_label
  _atom_site_symmetry_multiplicity
  _atom_site_fract_x
  _atom_site_fract_y
  _atom_site_fract_z
  _atom_site_occupancy
  Ba  Ba1       1.0  0.00000  0.00000  0.25100  1.0000
  Ba  Ba2       1.0  0.00000  0.00000  0.74900  1.0000
  Ge  Ge1       1.0  0.33300  0.66700  0.00000  1.0000
  Ge  Ge2       1.0  0.33300  0.66700  0.50000  1.0000
  O   O1        1.0  0.38600  0.99600  0.09620  1.0000
  O   O2        1.0  0.61000  0.61400  0.09620  1.0000
  O   O3        1.0  0.00401  0.39000  0.09620  1.0000
  O   O4        1.0  0.00409  0.39000  0.40400  1.0000
  O   O5        1.0  0.61000  0.61400  0.40400  1.0000
  O   O6        1.0  0.38600  0.99600  0.40400  1.0000
  O   O7        1.0  0.61000  0.99600  0.59600  1.0000
  O   O8        1.0  0.00408  0.61400  0.59600  1.0000
  O   O9        1.0  0.38600  0.39000  0.59600  1.0000
  O   O10       1.0  0.38600  0.39000  0.90400  1.0000
  O   O11       1.0  0.00401  0.61400  0.90400  1.0000
  O   O12       1.0  0.61000  0.99600  0.90400  1.0000
  Te  Te1       1.0  0.66700  0.33300  0.00000  1.0000
  Te  Te2       1.0  0.66700  0.33300  0.50000  1.0000
