data_image0
_chemical_formula_structural       B3Ca4LuO10
_chemical_formula_sum              "B3 Ca4 Lu1 O10"
_cell_length_a       3.46357
_cell_length_b       8.02218
_cell_length_c       8.90515
_cell_angle_alpha    63.2291
_cell_angle_beta     94.8323
_cell_angle_gamma    100.779

_space_group_name_H-M_alt    "P 1"
_space_group_IT_number       1

loop_
  _space_group_symop_operation_xyz
  'x, y, z'

loop_
  _atom_site_type_symbol
  _atom_site_label
  _atom_site_symmetry_multiplicity
  _atom_site_fract_x
  _atom_site_fract_y
  _atom_site_fract_z
  _atom_site_occupancy
  B   B1        1.0  0.69400  0.36800  0.00000  1.0000
  B   B2        1.0  0.07200  0.74700  0.38900  1.0000
  B   B3        1.0  0.07200  0.13600  0.61100  1.0000
  Ca  Ca1       1.0  0.32100  0.52700  0.22300  1.0000
  Ca  Ca2       1.0  0.64300  0.07340  0.36300  1.0000
  Ca  Ca3       1.0  0.64300  0.43600  0.63700  1.0000
  Ca  Ca4       1.0  0.32100  0.75000  0.77700  1.0000
  Lu  Lu1       1.0  0.00060  0.00197  0.00000  1.0000
  O   O1        1.0  0.59700  0.19200  0.00000  1.0000
  O   O2        1.0  0.42500  0.83400  0.00000  1.0000
  O   O3        1.0  0.74300  0.38000  0.15000  1.0000
  O   O4        1.0  0.06750  0.93700  0.27700  1.0000
  O   O5        1.0  0.87300  0.60500  0.35100  1.0000
  O   O6        1.0  0.27200  0.23600  0.46100  1.0000
  O   O7        1.0  0.27200  0.69700  0.53900  1.0000
  O   O8        1.0  0.87300  0.95700  0.64900  1.0000
  O   O9        1.0  0.06750  0.21300  0.72300  1.0000
  O   O10       1.0  0.74300  0.53000  0.85000  1.0000
