data_image0
_chemical_formula_structural       Cu2H2KO10S2
_chemical_formula_sum              "Cu2 H2 K1 O10 S2"
_cell_length_a       5.42767
_cell_length_b       5.42767
_cell_length_c       7.43028
_cell_angle_alpha    98.0119
_cell_angle_beta     109.416
_cell_angle_gamma    110.74

_space_group_name_H-M_alt    "P 1"
_space_group_IT_number       1

loop_
  _space_group_symop_operation_xyz
  'x, y, z'

loop_
  _atom_site_type_symbol
  _atom_site_label
  _atom_site_symmetry_multiplicity
  _atom_site_fract_x
  _atom_site_fract_y
  _atom_site_fract_z
  _atom_site_occupancy
  Cu  Cu1       1.0  0.50000  0.00000  0.00000  1.0000
  Cu  Cu2       1.0  0.00000  0.50000  0.00000  1.0000
  H   H1        1.0  0.51000  0.69300  0.20300  1.0000
  H   H2        1.0  0.49000  0.30700  0.79700  1.0000
  K   K1        1.0  0.00000  0.50000  0.50000  1.0000
  O   O1        1.0  0.39600  0.66500  0.06050  1.0000
  O   O2        1.0  0.00174  0.18400  0.18500  1.0000
  O   O3        1.0  0.46200  0.17100  0.23200  1.0000
  O   O4        1.0  0.06100  0.77000  0.23200  1.0000
  O   O5        1.0  0.68100  0.81300  0.49400  1.0000
  O   O6        1.0  0.31900  0.18700  0.50600  1.0000
  O   O7        1.0  0.93900  0.23000  0.76800  1.0000
  O   O8        1.0  0.53800  0.82900  0.76800  1.0000
  O   O9        1.0  0.99800  0.81600  0.81500  1.0000
  O   O10       1.0  0.60400  0.33500  0.93900  1.0000
  S   S1        1.0  0.21000  0.07970  0.29000  1.0000
  S   S2        1.0  0.79000  0.92000  0.71000  1.0000
