data_image0
_chemical_formula_structural       B6Mg3Ni9
_chemical_formula_sum              "B6 Mg3 Ni9"
_cell_length_a       4.88377
_cell_length_b       4.88377
_cell_length_c       8.77581
_cell_angle_alpha    90
_cell_angle_beta     90
_cell_angle_gamma    120

_space_group_name_H-M_alt    "P 1"
_space_group_IT_number       1

loop_
  _space_group_symop_operation_xyz
  'x, y, z'

loop_
  _atom_site_type_symbol
  _atom_site_label
  _atom_site_symmetry_multiplicity
  _atom_site_fract_x
  _atom_site_fract_y
  _atom_site_fract_z
  _atom_site_occupancy
  B   B1        1.0  0.61100  0.22200  0.00000  1.0000
  B   B2        1.0  0.38900  0.77800  0.00000  1.0000
  B   B3        1.0  0.61100  0.38900  0.33300  1.0000
  B   B4        1.0  0.38900  0.61100  0.33300  1.0000
  B   B5        1.0  0.77800  0.38900  0.66700  1.0000
  B   B6        1.0  0.22200  0.61100  0.66700  1.0000
  Mg  Mg1       1.0  0.00000  0.00000  0.00000  1.0000
  Mg  Mg2       1.0  0.00000  0.00000  0.33300  1.0000
  Mg  Mg3       1.0  0.00000  0.00000  0.66700  1.0000
  Ni  Ni1       1.0  0.50000  0.50000  0.12400  1.0000
  Ni  Ni2       1.0  0.00000  0.50000  0.16700  1.0000
  Ni  Ni3       1.0  0.50000  0.00000  0.20900  1.0000
  Ni  Ni4       1.0  0.00000  0.50000  0.45800  1.0000
  Ni  Ni5       1.0  0.50000  0.00000  0.50000  1.0000
  Ni  Ni6       1.0  0.50000  0.50000  0.54200  1.0000
  Ni  Ni7       1.0  0.50000  0.00000  0.79100  1.0000
  Ni  Ni8       1.0  0.50000  0.50000  0.83300  1.0000
  Ni  Ni9       1.0  0.00000  0.50000  0.87600  1.0000
