data_image0
_chemical_formula_structural       Fe4Mn6Si6
_chemical_formula_sum              "Fe4 Mn6 Si6"
_cell_length_a       6.83231
_cell_length_b       6.83231
_cell_length_c       4.69253
_cell_angle_alpha    90
_cell_angle_beta     90
_cell_angle_gamma    119.975

_space_group_name_H-M_alt    "P 1"
_space_group_IT_number       1

loop_
  _space_group_symop_operation_xyz
  'x, y, z'

loop_
  _atom_site_type_symbol
  _atom_site_label
  _atom_site_symmetry_multiplicity
  _atom_site_fract_x
  _atom_site_fract_y
  _atom_site_fract_z
  _atom_site_occupancy
  Fe  Fe1       1.0  0.66700  0.33300  0.00000  1.0000
  Fe  Fe2       1.0  0.33300  0.66700  0.00000  1.0000
  Fe  Fe3       1.0  0.66700  0.33300  0.50000  1.0000
  Fe  Fe4       1.0  0.33300  0.66700  0.50000  1.0000
  Mn  Mn1       1.0  0.23700  0.00000  0.25000  1.0000
  Mn  Mn2       1.0  0.00000  0.23700  0.25000  1.0000
  Mn  Mn3       1.0  0.76300  0.76300  0.25000  1.0000
  Mn  Mn4       1.0  0.76300  0.00000  0.75000  1.0000
  Mn  Mn5       1.0  0.00000  0.76300  0.75000  1.0000
  Mn  Mn6       1.0  0.23700  0.23700  0.75000  1.0000
  Si  Si1       1.0  0.40100  0.40100  0.25000  1.0000
  Si  Si2       1.0  0.59900  0.00000  0.25000  1.0000
  Si  Si3       1.0  0.00000  0.59900  0.25000  1.0000
  Si  Si4       1.0  0.59900  0.59900  0.75000  1.0000
  Si  Si5       1.0  0.40100  0.00000  0.75000  1.0000
  Si  Si6       1.0  0.00000  0.40100  0.75000  1.0000
