data_image0
_chemical_formula_structural       IRh4Sb12
_chemical_formula_sum              "I1 Rh4 Sb12"
_cell_length_a       8.14525
_cell_length_b       8.14525
_cell_length_c       8.14525
_cell_angle_alpha    109.471
_cell_angle_beta     109.471
_cell_angle_gamma    109.471

_space_group_name_H-M_alt    "P 1"
_space_group_IT_number       1

loop_
  _space_group_symop_operation_xyz
  'x, y, z'

loop_
  _atom_site_type_symbol
  _atom_site_label
  _atom_site_symmetry_multiplicity
  _atom_site_fract_x
  _atom_site_fract_y
  _atom_site_fract_z
  _atom_site_occupancy
  I   I1        1.0  0.00000  0.00000  0.00000  1.0000
  Rh  Rh1       1.0  0.50000  0.00000  0.00000  1.0000
  Rh  Rh2       1.0  0.00000  0.50000  0.00000  1.0000
  Rh  Rh3       1.0  0.00000  0.00000  0.50000  1.0000
  Rh  Rh4       1.0  0.50000  0.50000  0.50000  1.0000
  Sb  Sb1       1.0  0.34100  0.49600  0.15500  1.0000
  Sb  Sb2       1.0  0.65900  0.81400  0.15500  1.0000
  Sb  Sb3       1.0  0.84500  0.34100  0.18600  1.0000
  Sb  Sb4       1.0  0.18600  0.84500  0.34100  1.0000
  Sb  Sb5       1.0  0.49600  0.15500  0.34100  1.0000
  Sb  Sb6       1.0  0.15500  0.34100  0.49600  1.0000
  Sb  Sb7       1.0  0.84500  0.65900  0.50400  1.0000
  Sb  Sb8       1.0  0.81400  0.15500  0.65900  1.0000
  Sb  Sb9       1.0  0.50400  0.84500  0.65900  1.0000
  Sb  Sb10      1.0  0.15500  0.65900  0.81400  1.0000
  Sb  Sb11      1.0  0.34100  0.18600  0.84500  1.0000
  Sb  Sb12      1.0  0.65900  0.50400  0.84500  1.0000
