data_image0
_chemical_formula_structural       Eu2H10Mg4
_chemical_formula_sum              "Eu2 H10 Mg4"
_cell_length_a       5.02098
_cell_length_b       5.02098
_cell_length_c       7.85313
_cell_angle_alpha    90
_cell_angle_beta     90
_cell_angle_gamma    90

_space_group_name_H-M_alt    "P 1"
_space_group_IT_number       1

loop_
  _space_group_symop_operation_xyz
  'x, y, z'

loop_
  _atom_site_type_symbol
  _atom_site_label
  _atom_site_symmetry_multiplicity
  _atom_site_fract_x
  _atom_site_fract_y
  _atom_site_fract_z
  _atom_site_occupancy
  Eu  Eu1       1.0  0.00000  0.00000  0.00000  1.0000
  Eu  Eu2       1.0  0.50000  0.50000  0.00000  1.0000
  H   H1        1.0  0.00000  0.50000  0.00026  1.0000
  H   H2        1.0  0.25000  0.25000  0.21300  1.0000
  H   H3        1.0  0.75000  0.25000  0.21300  1.0000
  H   H4        1.0  0.25000  0.75000  0.21300  1.0000
  H   H5        1.0  0.75000  0.75000  0.21300  1.0000
  H   H6        1.0  0.25000  0.25000  0.78700  1.0000
  H   H7        1.0  0.75000  0.25000  0.78700  1.0000
  H   H8        1.0  0.25000  0.75000  0.78700  1.0000
  H   H9        1.0  0.75000  0.75000  0.78700  1.0000
  H   H10       1.0  0.50000  0.00000  0.00000  1.0000
  Mg  Mg1       1.0  0.00000  0.50000  0.29200  1.0000
  Mg  Mg2       1.0  0.50000  0.00000  0.29300  1.0000
  Mg  Mg3       1.0  0.00000  0.50000  0.70700  1.0000
  Mg  Mg4       1.0  0.50000  0.00000  0.70800  1.0000
