data_image0
_chemical_formula_structural       Cu2H2NaO10Se2
_chemical_formula_sum              "Cu2 H2 Na1 O10 Se2"
_cell_length_a       5.50576
_cell_length_b       5.50576
_cell_length_c       7.35038
_cell_angle_alpha    98.8183
_cell_angle_beta     108.737
_cell_angle_gamma    111.499

_space_group_name_H-M_alt    "P 1"
_space_group_IT_number       1

loop_
  _space_group_symop_operation_xyz
  'x, y, z'

loop_
  _atom_site_type_symbol
  _atom_site_label
  _atom_site_symmetry_multiplicity
  _atom_site_fract_x
  _atom_site_fract_y
  _atom_site_fract_z
  _atom_site_occupancy
  Cu  Cu1       1.0  0.50000  0.00000  0.00000  1.0000
  Cu  Cu2       1.0  0.00000  0.50000  0.00000  1.0000
  H   H1        1.0  0.49900  0.71100  0.20900  1.0000
  H   H2        1.0  0.50100  0.28900  0.79100  1.0000
  Na  Na1       1.0  0.00000  0.50000  0.50000  1.0000
  O   O1        1.0  0.39200  0.66900  0.06090  1.0000
  O   O2        1.0  0.98600  0.18500  0.17100  1.0000
  O   O3        1.0  0.51300  0.18800  0.25400  1.0000
  O   O4        1.0  0.06580  0.74000  0.25400  1.0000
  O   O5        1.0  0.68700  0.76700  0.45400  1.0000
  O   O6        1.0  0.31300  0.23300  0.54600  1.0000
  O   O7        1.0  0.93400  0.26000  0.74600  1.0000
  O   O8        1.0  0.48700  0.81200  0.74600  1.0000
  O   O9        1.0  0.01370  0.81500  0.82900  1.0000
  O   O10       1.0  0.60800  0.33100  0.93900  1.0000
  Se  Se1       1.0  0.21900  0.08640  0.30500  1.0000
  Se  Se2       1.0  0.78100  0.91400  0.69500  1.0000
