data_image0
_chemical_formula_structural       Al2Ca4Ga2O10
_chemical_formula_sum              "Al2 Ca4 Ga2 O10"
_cell_length_a       5.24134
_cell_length_b       5.40708
_cell_length_c       8.2449
_cell_angle_alpha    109.142
_cell_angle_beta     108.533
_cell_angle_gamma    90

_space_group_name_H-M_alt    "P 1"
_space_group_IT_number       1

loop_
  _space_group_symop_operation_xyz
  'x, y, z'

loop_
  _atom_site_type_symbol
  _atom_site_label
  _atom_site_symmetry_multiplicity
  _atom_site_fract_x
  _atom_site_fract_y
  _atom_site_fract_z
  _atom_site_occupancy
  Al  Al1       1.0  0.99800  0.00000  0.00000  1.0000
  Al  Al2       1.0  0.49800  0.50000  0.00000  1.0000
  Ca  Ca1       1.0  0.61300  0.12800  0.21200  1.0000
  Ca  Ca2       1.0  0.11300  0.58300  0.21200  1.0000
  Ca  Ca3       1.0  0.90100  0.41700  0.78800  1.0000
  Ca  Ca4       1.0  0.40100  0.87200  0.78800  1.0000
  Ga  Ga1       1.0  0.29900  0.18300  0.50000  1.0000
  Ga  Ga2       1.0  0.79900  0.81700  0.50000  1.0000
  O   O1        1.0  0.76000  0.75700  0.02120  1.0000
  O   O2        1.0  0.26000  0.76400  0.02120  1.0000
  O   O3        1.0  0.11200  0.19600  0.27500  1.0000
  O   O4        1.0  0.61200  0.57900  0.27500  1.0000
  O   O5        1.0  0.66000  0.14000  0.50000  1.0000
  O   O6        1.0  0.16000  0.86000  0.50000  1.0000
  O   O7        1.0  0.33700  0.42100  0.72500  1.0000
  O   O8        1.0  0.83700  0.80400  0.72500  1.0000
  O   O9        1.0  0.23900  0.23600  0.97900  1.0000
  O   O10       1.0  0.73900  0.24300  0.97900  1.0000
