data_image0
_chemical_formula_structural       Cu2H2KO10Se2
_chemical_formula_sum              "Cu2 H2 K1 O10 Se2"
_cell_length_a       5.57396
_cell_length_b       5.57396
_cell_length_c       7.64636
_cell_angle_alpha    93.9929
_cell_angle_beta     111.542
_cell_angle_gamma    113.626

_space_group_name_H-M_alt    "P 1"
_space_group_IT_number       1

loop_
  _space_group_symop_operation_xyz
  'x, y, z'

loop_
  _atom_site_type_symbol
  _atom_site_label
  _atom_site_symmetry_multiplicity
  _atom_site_fract_x
  _atom_site_fract_y
  _atom_site_fract_z
  _atom_site_occupancy
  Cu  Cu1       1.0  0.50000  0.00000  0.00000  1.0000
  Cu  Cu2       1.0  0.00000  0.50000  0.00000  1.0000
  H   H1        1.0  0.49300  0.74000  0.23200  1.0000
  H   H2        1.0  0.50700  0.26000  0.76800  1.0000
  K   K1        1.0  0.00000  0.50000  0.50000  1.0000
  O   O1        1.0  0.40200  0.68600  0.08760  1.0000
  O   O2        1.0  0.98200  0.20400  0.18700  1.0000
  O   O3        1.0  0.01940  0.73500  0.21400  1.0000
  O   O4        1.0  0.47800  0.19400  0.21400  1.0000
  O   O5        1.0  0.65400  0.82100  0.47500  1.0000
  O   O6        1.0  0.34600  0.17900  0.52500  1.0000
  O   O7        1.0  0.98100  0.26500  0.78600  1.0000
  O   O8        1.0  0.52200  0.80600  0.78600  1.0000
  O   O9        1.0  0.01760  0.79600  0.81300  1.0000
  O   O10       1.0  0.59800  0.31400  0.91200  1.0000
  Se  Se1       1.0  0.20900  0.07660  0.28600  1.0000
  Se  Se2       1.0  0.79100  0.92300  0.71400  1.0000
