data_image0
_chemical_formula_structural       BrCuO10Sr2Ta3
_chemical_formula_sum              "Br1 Cu1 O10 Sr2 Ta3"
_cell_length_a       3.92421
_cell_length_b       3.92421
_cell_length_c       15.9211
_cell_angle_alpha    90
_cell_angle_beta     90
_cell_angle_gamma    90

_space_group_name_H-M_alt    "P 1"
_space_group_IT_number       1

loop_
  _space_group_symop_operation_xyz
  'x, y, z'

loop_
  _atom_site_type_symbol
  _atom_site_label
  _atom_site_symmetry_multiplicity
  _atom_site_fract_x
  _atom_site_fract_y
  _atom_site_fract_z
  _atom_site_occupancy
  Br  Br1       1.0  0.50000  0.50000  0.50000  1.0000
  Cu  Cu1       1.0  0.00000  0.00000  0.50000  1.0000
  O   O1        1.0  0.50000  0.00000  0.00000  1.0000
  O   O2        1.0  0.00000  0.50000  0.00000  1.0000
  O   O3        1.0  0.00000  0.00000  0.12400  1.0000
  O   O4        1.0  0.50000  0.00000  0.24700  1.0000
  O   O5        1.0  0.00000  0.50000  0.24700  1.0000
  O   O6        1.0  0.00000  0.00000  0.38500  1.0000
  O   O7        1.0  0.00000  0.00000  0.61500  1.0000
  O   O8        1.0  0.50000  0.00000  0.75300  1.0000
  O   O9        1.0  0.00000  0.50000  0.75300  1.0000
  O   O10       1.0  0.00000  0.00000  0.87600  1.0000
  Sr  Sr1       1.0  0.50000  0.50000  0.14000  1.0000
  Sr  Sr2       1.0  0.50000  0.50000  0.86000  1.0000
  Ta  Ta1       1.0  0.00000  0.00000  0.00000  1.0000
  Ta  Ta2       1.0  0.00000  0.00000  0.27300  1.0000
  Ta  Ta3       1.0  0.00000  0.00000  0.72700  1.0000
