data_image0
_chemical_formula_structural       S8Yb7
_chemical_formula_sum              "S8 Yb7"
_cell_length_a       7.98415
_cell_length_b       7.98415
_cell_length_c       7.98415
_cell_angle_alpha    120
_cell_angle_beta     90
_cell_angle_gamma    120

_space_group_name_H-M_alt    "P 1"
_space_group_IT_number       1

loop_
  _space_group_symop_operation_xyz
  'x, y, z'

loop_
  _atom_site_type_symbol
  _atom_site_label
  _atom_site_symmetry_multiplicity
  _atom_site_fract_x
  _atom_site_fract_y
  _atom_site_fract_z
  _atom_site_occupancy
  S   S1        1.0  0.00000  0.00000  0.00000  1.0000
  S   S2        1.0  0.50000  0.00000  0.50000  1.0000
  S   S3        1.0  0.00581  0.01160  0.50600  1.0000
  S   S4        1.0  0.00581  0.50000  0.50600  1.0000
  S   S5        1.0  0.49400  0.50000  0.50600  1.0000
  S   S6        1.0  0.00582  0.50000  0.99400  1.0000
  S   S7        1.0  0.49400  0.50000  0.99400  1.0000
  S   S8        1.0  0.49400  0.98800  0.99400  1.0000
  Yb  Yb1       1.0  0.25000  0.00000  0.25000  1.0000
  Yb  Yb2       1.0  0.25000  0.50000  0.25000  1.0000
  Yb  Yb3       1.0  0.75000  0.00000  0.25000  1.0000
  Yb  Yb4       1.0  0.25000  0.50000  0.75000  1.0000
  Yb  Yb5       1.0  0.25000  1.00000  0.75000  1.0000
  Yb  Yb6       1.0  0.75000  1.00000  0.75000  1.0000
  Yb  Yb7       1.0  0.75000  0.50000  0.75000  1.0000
