data_image0
_chemical_formula_structural       HgMo6S8
_chemical_formula_sum              "Hg1 Mo6 S8"
_cell_length_a       6.56438
_cell_length_b       6.56438
_cell_length_c       6.56438
_cell_angle_alpha    92.8077
_cell_angle_beta     92.8077
_cell_angle_gamma    92.8077

_space_group_name_H-M_alt    "P 1"
_space_group_IT_number       1

loop_
  _space_group_symop_operation_xyz
  'x, y, z'

loop_
  _atom_site_type_symbol
  _atom_site_label
  _atom_site_symmetry_multiplicity
  _atom_site_fract_x
  _atom_site_fract_y
  _atom_site_fract_z
  _atom_site_occupancy
  Hg  Hg1       1.0  0.00000  0.00000  0.00000  1.0000
  Mo  Mo1       1.0  0.55400  0.40900  0.22000  1.0000
  Mo  Mo2       1.0  0.22000  0.55400  0.40900  1.0000
  Mo  Mo3       1.0  0.59100  0.78000  0.44600  1.0000
  Mo  Mo4       1.0  0.40900  0.22000  0.55400  1.0000
  Mo  Mo5       1.0  0.78000  0.44600  0.59100  1.0000
  Mo  Mo6       1.0  0.44600  0.59100  0.78000  1.0000
  S   S1        1.0  0.37900  0.72400  0.13200  1.0000
  S   S2        1.0  0.22700  0.22700  0.22700  1.0000
  S   S3        1.0  0.86800  0.62100  0.27600  1.0000
  S   S4        1.0  0.72400  0.13200  0.37900  1.0000
  S   S5        1.0  0.27600  0.86800  0.62100  1.0000
  S   S6        1.0  0.13200  0.37900  0.72400  1.0000
  S   S7        1.0  0.77300  0.77300  0.77300  1.0000
  S   S8        1.0  0.62100  0.27600  0.86800  1.0000
