data_image0
_chemical_formula_structural       Ca8F4N4
_chemical_formula_sum              "Ca8 F4 N4"
_cell_length_a       6.98282
_cell_length_b       6.98282
_cell_length_c       6.98282
_cell_angle_alpha    120
_cell_angle_beta     90
_cell_angle_gamma    120

_space_group_name_H-M_alt    "P 1"
_space_group_IT_number       1

loop_
  _space_group_symop_operation_xyz
  'x, y, z'

loop_
  _atom_site_type_symbol
  _atom_site_label
  _atom_site_symmetry_multiplicity
  _atom_site_fract_x
  _atom_site_fract_y
  _atom_site_fract_z
  _atom_site_occupancy
  Ca  Ca1       1.0  0.74000  0.48000  0.22000  1.0000
  Ca  Ca2       1.0  0.26000  0.52000  0.24000  1.0000
  Ca  Ca3       1.0  0.26000  0.98000  0.24000  1.0000
  Ca  Ca4       1.0  0.72000  0.98000  0.24000  1.0000
  Ca  Ca5       1.0  0.28000  0.01990  0.76000  1.0000
  Ca  Ca6       1.0  0.74000  0.01990  0.76000  1.0000
  Ca  Ca7       1.0  0.74000  0.48000  0.76000  1.0000
  Ca  Ca8       1.0  0.26000  0.52000  0.78000  1.0000
  F   F1        1.0  0.00000  0.00000  0.00000  1.0000
  F   F2        1.0  0.00000  0.00000  0.50000  1.0000
  F   F3        1.0  0.00000  0.50000  0.50000  1.0000
  F   F4        1.0  0.50000  0.50000  0.50000  1.0000
  N   N1        1.0  0.50000  0.00000  0.00000  1.0000
  N   N2        1.0  0.00000  0.50000  0.00000  1.0000
  N   N3        1.0  0.50000  0.50000  0.00000  1.0000
  N   N4        1.0  0.50000  0.00000  0.50000  1.0000
