data_image0
_chemical_formula_structural       Ba3O9Y2Yb2
_chemical_formula_sum              "Ba3 O9 Y2 Yb2"
_cell_length_a       6.08945
_cell_length_b       6.08945
_cell_length_c       9.08574
_cell_angle_alpha    90
_cell_angle_beta     109.579
_cell_angle_gamma    60

_space_group_name_H-M_alt    "P 1"
_space_group_IT_number       1

loop_
  _space_group_symop_operation_xyz
  'x, y, z'

loop_
  _atom_site_type_symbol
  _atom_site_label
  _atom_site_symmetry_multiplicity
  _atom_site_fract_x
  _atom_site_fract_y
  _atom_site_fract_z
  _atom_site_occupancy
  Ba  Ba1       1.0  0.32400  0.83800  0.48700  1.0000
  Ba  Ba2       1.0  0.13700  0.43200  0.70500  1.0000
  Ba  Ba3       1.0  0.99500  0.00274  0.99200  1.0000
  O   O1        1.0  0.03930  0.55600  0.07760  1.0000
  O   O2        1.0  0.48300  0.96200  0.07760  1.0000
  O   O3        1.0  0.63300  0.40500  0.07760  1.0000
  O   O4        1.0  0.29200  0.41800  0.41400  1.0000
  O   O5        1.0  0.70500  0.87700  0.41400  1.0000
  O   O6        1.0  0.83200  0.29000  0.41400  1.0000
  O   O7        1.0  0.16900  0.84700  0.74400  1.0000
  O   O8        1.0  0.59100  0.98500  0.74400  1.0000
  O   O9        1.0  0.72900  0.42400  0.74400  1.0000
  Y   Y1        1.0  0.47900  0.26000  0.21900  1.0000
  Y   Y2        1.0  0.60100  0.69900  0.90200  1.0000
  Yb  Yb1       1.0  0.84500  0.57800  0.26700  1.0000
  Yb  Yb2       1.0  0.72800  0.13600  0.59200  1.0000
