data_image0
_chemical_formula_structural       F12Ga2Li2Sr2
_chemical_formula_sum              "F12 Ga2 Li2 Sr2"
_cell_length_a       5.07764
_cell_length_b       5.07784
_cell_length_c       10.1559
_cell_angle_alpha    90.0002
_cell_angle_beta     89.9999
_cell_angle_gamma    120.001

_space_group_name_H-M_alt    "P 1"
_space_group_IT_number       1

loop_
  _space_group_symop_operation_xyz
  'x, y, z'

loop_
  _atom_site_type_symbol
  _atom_site_label
  _atom_site_symmetry_multiplicity
  _atom_site_fract_x
  _atom_site_fract_y
  _atom_site_fract_z
  _atom_site_occupancy
  F   F1        1.0  0.37900  0.01050  0.14200  1.0000
  F   F2        1.0  0.63200  0.62100  0.14200  1.0000
  F   F3        1.0  0.98900  0.36800  0.14200  1.0000
  F   F4        1.0  0.98900  0.62100  0.35800  1.0000
  F   F5        1.0  0.63200  0.01060  0.35800  1.0000
  F   F6        1.0  0.37900  0.36800  0.35800  1.0000
  F   F7        1.0  0.62100  0.63200  0.64200  1.0000
  F   F8        1.0  0.36800  0.98900  0.64200  1.0000
  F   F9        1.0  0.01060  0.37900  0.64200  1.0000
  F   F10       1.0  0.01060  0.63200  0.85800  1.0000
  F   F11       1.0  0.36800  0.37900  0.85800  1.0000
  F   F12       1.0  0.62100  0.98900  0.85800  1.0000
  Ga  Ga1       1.0  0.66700  0.33300  0.25000  1.0000
  Ga  Ga2       1.0  0.33300  0.66700  0.75000  1.0000
  Li  Li1       1.0  0.33300  0.66700  0.25000  1.0000
  Li  Li2       1.0  0.66700  0.33300  0.75000  1.0000
  Sr  Sr1       1.0  0.00000  0.00000  0.00000  1.0000
  Sr  Sr2       1.0  0.00000  0.00000  0.50000  1.0000
