data_image0
_chemical_formula_structural       Fe11Ga6Ho2
_chemical_formula_sum              "Fe11 Ga6 Ho2"
_cell_length_a       6.49859
_cell_length_b       6.49859
_cell_length_c       6.49859
_cell_angle_alpha    83.7053
_cell_angle_beta     96.2947
_cell_angle_gamma    96.2947

_space_group_name_H-M_alt    "P 1"
_space_group_IT_number       1

loop_
  _space_group_symop_operation_xyz
  'x, y, z'

loop_
  _atom_site_type_symbol
  _atom_site_label
  _atom_site_symmetry_multiplicity
  _atom_site_fract_x
  _atom_site_fract_y
  _atom_site_fract_z
  _atom_site_occupancy
  Fe  Fe1       1.0  0.50000  0.00000  0.00000  1.0000
  Fe  Fe2       1.0  0.00000  0.50000  0.00000  1.0000
  Fe  Fe3       1.0  0.89600  0.10400  0.10400  1.0000
  Fe  Fe4       1.0  0.34100  0.65900  0.15700  1.0000
  Fe  Fe5       1.0  0.65900  0.84300  0.34100  1.0000
  Fe  Fe6       1.0  0.15700  0.34100  0.34100  1.0000
  Fe  Fe7       1.0  0.00000  0.00000  0.50000  1.0000
  Fe  Fe8       1.0  0.84300  0.65900  0.65900  1.0000
  Fe  Fe9       1.0  0.34100  0.15700  0.65900  1.0000
  Fe  Fe10      1.0  0.65900  0.34100  0.84300  1.0000
  Fe  Fe11      1.0  0.10400  0.89600  0.89600  1.0000
  Ga  Ga1       1.0  0.30700  0.30700  0.00000  1.0000
  Ga  Ga2       1.0  0.69300  0.69300  0.00000  1.0000
  Ga  Ga3       1.0  0.00000  0.69300  0.30700  1.0000
  Ga  Ga4       1.0  0.30700  0.00000  0.30700  1.0000
  Ga  Ga5       1.0  0.69300  0.00000  0.69300  1.0000
  Ga  Ga6       1.0  1.00000  0.30700  0.69300  1.0000
  Ho  Ho1       1.0  0.65100  0.34900  0.34900  1.0000
  Ho  Ho2       1.0  0.34900  0.65100  0.65100  1.0000
