data_image0
_chemical_formula_structural       Cu4Sc4Se8
_chemical_formula_sum              "Cu4 Sc4 Se8"
_cell_length_a       6.71392
_cell_length_b       3.90612
_cell_length_c       12.9297
_cell_angle_alpha    90
_cell_angle_beta     90.654
_cell_angle_gamma    90

_space_group_name_H-M_alt    "P 1"
_space_group_IT_number       1

loop_
  _space_group_symop_operation_xyz
  'x, y, z'

loop_
  _atom_site_type_symbol
  _atom_site_label
  _atom_site_symmetry_multiplicity
  _atom_site_fract_x
  _atom_site_fract_y
  _atom_site_fract_z
  _atom_site_occupancy
  Cu  Cu1       1.0  0.65400  0.01930  0.18700  1.0000
  Cu  Cu2       1.0  0.84500  0.51100  0.31300  1.0000
  Cu  Cu3       1.0  0.15500  0.51100  0.68700  1.0000
  Cu  Cu4       1.0  0.34600  0.01930  0.81300  1.0000
  Sc  Sc1       1.0  0.00000  0.01640  0.00000  1.0000
  Sc  Sc2       1.0  0.50000  0.51200  0.00000  1.0000
  Sc  Sc3       1.0  0.50000  0.51300  0.50000  1.0000
  Sc  Sc4       1.0  0.00000  0.02060  0.50000  1.0000
  Se  Se1       1.0  0.32400  0.01250  0.11700  1.0000
  Se  Se2       1.0  0.84400  0.51700  0.12300  1.0000
  Se  Se3       1.0  0.65500  0.01330  0.37700  1.0000
  Se  Se4       1.0  0.17500  0.52100  0.38300  1.0000
  Se  Se5       1.0  0.82500  0.52100  0.61700  1.0000
  Se  Se6       1.0  0.34500  0.01330  0.62300  1.0000
  Se  Se7       1.0  0.15600  0.51700  0.87700  1.0000
  Se  Se8       1.0  0.67600  0.01250  0.88300  1.0000
