data_image0
_chemical_formula_structural       Br2F6
_chemical_formula_sum              "Br2 F6"
_cell_length_a       4.29189
_cell_length_b       4.29189
_cell_length_c       6.11112
_cell_angle_alpha    90
_cell_angle_beta     90
_cell_angle_gamma    111.482

_space_group_name_H-M_alt    "P 1"
_space_group_IT_number       1

loop_
  _space_group_symop_operation_xyz
  'x, y, z'

loop_
  _atom_site_type_symbol
  _atom_site_label
  _atom_site_symmetry_multiplicity
  _atom_site_fract_x
  _atom_site_fract_y
  _atom_site_fract_z
  _atom_site_occupancy
  Br  Br1       1.0  0.83800  0.16200  0.23900  1.0000
  Br  Br2       1.0  0.16200  0.83800  0.73900  1.0000
  F   F1        1.0  0.26200  0.73800  0.00724  1.0000
  F   F2        1.0  0.60200  0.39800  0.12600  1.0000
  F   F3        1.0  0.09040  0.91000  0.39800  1.0000
  F   F4        1.0  0.73800  0.26200  0.50700  1.0000
  F   F5        1.0  0.39800  0.60200  0.62600  1.0000
  F   F6        1.0  0.91000  0.09040  0.89800  1.0000
