data_image0
_chemical_formula_structural       Mn2Sb4Se8
_chemical_formula_sum              "Mn2 Sb4 Se8"
_cell_length_a       4.00861
_cell_length_b       6.92588
_cell_length_c       14.2391
_cell_angle_alpha    92.4853
_cell_angle_beta     98.0918
_cell_angle_gamma    73.1784

_space_group_name_H-M_alt    "P 1"
_space_group_IT_number       1

loop_
  _space_group_symop_operation_xyz
  'x, y, z'

loop_
  _atom_site_type_symbol
  _atom_site_label
  _atom_site_symmetry_multiplicity
  _atom_site_fract_x
  _atom_site_fract_y
  _atom_site_fract_z
  _atom_site_occupancy
  Mn  Mn1       1.0  0.00000  0.00000  0.00000  1.0000
  Mn  Mn2       1.0  0.50000  0.50000  0.50000  1.0000
  Sb  Sb1       1.0  0.35200  0.41900  0.12400  1.0000
  Sb  Sb2       1.0  0.72400  0.92000  0.36900  1.0000
  Sb  Sb3       1.0  0.27600  0.07990  0.63100  1.0000
  Sb  Sb4       1.0  0.64800  0.58100  0.87600  1.0000
  Se  Se1       1.0  0.65400  0.74200  0.05070  1.0000
  Se  Se2       1.0  0.00988  0.15500  0.17500  1.0000
  Se  Se3       1.0  0.34200  0.64600  0.32900  1.0000
  Se  Se4       1.0  0.11500  0.22700  0.45600  1.0000
  Se  Se5       1.0  0.88500  0.77300  0.54400  1.0000
  Se  Se6       1.0  0.65800  0.35400  0.67100  1.0000
  Se  Se7       1.0  0.99000  0.84500  0.82500  1.0000
  Se  Se8       1.0  0.34600  0.25800  0.94900  1.0000
