data_image0
_chemical_formula_structural       Br6Nd2
_chemical_formula_sum              "Br6 Nd2"
_cell_length_a       4.12574
_cell_length_b       6.76301
_cell_length_c       9.18758
_cell_angle_alpha    90
_cell_angle_beta     90
_cell_angle_gamma    107.76

_space_group_name_H-M_alt    "P 1"
_space_group_IT_number       1

loop_
  _space_group_symop_operation_xyz
  'x, y, z'

loop_
  _atom_site_type_symbol
  _atom_site_label
  _atom_site_symmetry_multiplicity
  _atom_site_fract_x
  _atom_site_fract_y
  _atom_site_fract_z
  _atom_site_occupancy
  Br  Br1       1.0  0.64600  0.29100  0.06540  1.0000
  Br  Br2       1.0  0.91700  0.83300  0.25000  1.0000
  Br  Br3       1.0  0.64600  0.29100  0.43500  1.0000
  Br  Br4       1.0  0.35400  0.70900  0.56500  1.0000
  Br  Br5       1.0  0.08340  0.16700  0.75000  1.0000
  Br  Br6       1.0  0.35400  0.70900  0.93500  1.0000
  Nd  Nd1       1.0  0.25700  0.51300  0.25000  1.0000
  Nd  Nd2       1.0  0.74300  0.48700  0.75000  1.0000
