data_image0
_chemical_formula_structural       Ba3O9Ta2Zn
_chemical_formula_sum              "Ba3 O9 Ta2 Zn1"
_cell_length_a       5.79161
_cell_length_b       5.7917
_cell_length_c       7.13094
_cell_angle_alpha    90
_cell_angle_beta     90.0011
_cell_angle_gamma    120

_space_group_name_H-M_alt    "P 1"
_space_group_IT_number       1

loop_
  _space_group_symop_operation_xyz
  'x, y, z'

loop_
  _atom_site_type_symbol
  _atom_site_label
  _atom_site_symmetry_multiplicity
  _atom_site_fract_x
  _atom_site_fract_y
  _atom_site_fract_z
  _atom_site_occupancy
  Ba  Ba1       1.0  0.00000  0.00000  0.00000  1.0000
  Ba  Ba2       1.0  0.66700  0.33300  0.33800  1.0000
  Ba  Ba3       1.0  0.33300  0.66700  0.66200  1.0000
  O   O1        1.0  0.50000  0.00000  0.00000  1.0000
  O   O2        1.0  0.50000  0.50000  0.00000  1.0000
  O   O3        1.0  0.00000  0.50000  0.00000  1.0000
  O   O4        1.0  0.65700  0.82800  0.32400  1.0000
  O   O5        1.0  0.17200  0.34300  0.32400  1.0000
  O   O6        1.0  0.17200  0.82800  0.32400  1.0000
  O   O7        1.0  0.82800  0.65700  0.67600  1.0000
  O   O8        1.0  0.82800  0.17200  0.67600  1.0000
  O   O9        1.0  0.34300  0.17200  0.67600  1.0000
  Ta  Ta1       1.0  0.33300  0.66700  0.17500  1.0000
  Ta  Ta2       1.0  0.66700  0.33300  0.82500  1.0000
  Zn  Zn1       1.0  0.00000  0.00000  0.50000  1.0000
