data_image0
_chemical_formula_structural       F6H8N2Ti
_chemical_formula_sum              "F6 H8 N2 Ti1"
_cell_length_a       5.56218
_cell_length_b       5.55827
_cell_length_c       4.59913
_cell_angle_alpha    90
_cell_angle_beta     89.9732
_cell_angle_gamma    119.977

_space_group_name_H-M_alt    "P 1"
_space_group_IT_number       1

loop_
  _space_group_symop_operation_xyz
  'x, y, z'

loop_
  _atom_site_type_symbol
  _atom_site_label
  _atom_site_symmetry_multiplicity
  _atom_site_fract_x
  _atom_site_fract_y
  _atom_site_fract_z
  _atom_site_occupancy
  F   F1        1.0  0.83700  0.16300  0.22700  1.0000
  F   F2        1.0  0.83700  0.67400  0.22700  1.0000
  F   F3        1.0  0.32500  0.16200  0.22800  1.0000
  F   F4        1.0  0.67500  0.83800  0.77200  1.0000
  F   F5        1.0  0.16300  0.32600  0.77300  1.0000
  F   F6        1.0  0.16300  0.83700  0.77300  1.0000
  H   H1        1.0  0.13200  0.56600  0.23200  1.0000
  H   H2        1.0  0.43400  0.86900  0.23400  1.0000
  H   H3        1.0  0.43400  0.56600  0.23400  1.0000
  H   H4        1.0  0.66800  0.33400  0.47300  1.0000
  H   H5        1.0  0.33200  0.66600  0.52700  1.0000
  H   H6        1.0  0.56600  0.43400  0.76600  1.0000
  H   H7        1.0  0.56600  0.13100  0.76600  1.0000
  H   H8        1.0  0.86800  0.43400  0.76800  1.0000
  N   N1        1.0  0.33300  0.66700  0.30400  1.0000
  N   N2        1.0  0.66700  0.33300  0.69600  1.0000
  Ti  Ti1       1.0  0.00000  0.00000  0.00000  1.0000
