data_image0
_chemical_formula_structural       Br4C6O6Ru2
_chemical_formula_sum              "Br4 C6 O6 Ru2"
_cell_length_a       6.47477
_cell_length_b       6.47477
_cell_length_c       9.39497
_cell_angle_alpha    103.695
_cell_angle_beta     103.695
_cell_angle_gamma    69.3636

_space_group_name_H-M_alt    "P 1"
_space_group_IT_number       1

loop_
  _space_group_symop_operation_xyz
  'x, y, z'

loop_
  _atom_site_type_symbol
  _atom_site_label
  _atom_site_symmetry_multiplicity
  _atom_site_fract_x
  _atom_site_fract_y
  _atom_site_fract_z
  _atom_site_occupancy
  Br  Br1       1.0  0.75900  0.24100  0.00000  1.0000
  Br  Br2       1.0  0.24100  0.75900  0.00000  1.0000
  Br  Br3       1.0  0.82600  0.82600  0.22600  1.0000
  Br  Br4       1.0  0.17400  0.17400  0.77400  1.0000
  C   C1        1.0  0.23900  0.23900  0.20100  1.0000
  C   C2        1.0  0.90600  0.28100  0.35300  1.0000
  C   C3        1.0  0.28100  0.90600  0.35300  1.0000
  C   C4        1.0  0.71900  0.09380  0.64700  1.0000
  C   C5        1.0  0.09380  0.71900  0.64700  1.0000
  C   C6        1.0  0.76100  0.76100  0.79900  1.0000
  O   O1        1.0  0.34800  0.34800  0.20600  1.0000
  O   O2        1.0  0.80600  0.41400  0.43800  1.0000
  O   O3        1.0  0.41400  0.80600  0.43800  1.0000
  O   O4        1.0  0.58600  0.19400  0.56200  1.0000
  O   O5        1.0  0.19400  0.58600  0.56200  1.0000
  O   O6        1.0  0.65200  0.65200  0.79400  1.0000
  Ru  Ru1       1.0  0.06150  0.06150  0.20900  1.0000
  Ru  Ru2       1.0  0.93800  0.93800  0.79100  1.0000
