data_image0
_chemical_formula_structural       K4O10S4
_chemical_formula_sum              "K4 O10 S4"
_cell_length_a       6.92894
_cell_length_b       6.1088
_cell_length_c       7.4128
_cell_angle_alpha    90
_cell_angle_beta     103.413
_cell_angle_gamma    90

_space_group_name_H-M_alt    "P 1"
_space_group_IT_number       1

loop_
  _space_group_symop_operation_xyz
  'x, y, z'

loop_
  _atom_site_type_symbol
  _atom_site_label
  _atom_site_symmetry_multiplicity
  _atom_site_fract_x
  _atom_site_fract_y
  _atom_site_fract_z
  _atom_site_occupancy
  K   K1        1.0  0.78600  0.75000  0.06600  1.0000
  K   K2        1.0  0.36100  0.75000  0.33200  1.0000
  K   K3        1.0  0.63900  0.25000  0.66800  1.0000
  K   K4        1.0  0.21400  0.25000  0.93400  1.0000
  O   O1        1.0  0.65200  0.25000  0.03440  1.0000
  O   O2        1.0  0.07990  0.04830  0.23300  1.0000
  O   O3        1.0  0.07990  0.45200  0.23300  1.0000
  O   O4        1.0  0.63100  0.04880  0.31700  1.0000
  O   O5        1.0  0.63100  0.45100  0.31700  1.0000
  O   O6        1.0  0.36900  0.54900  0.68300  1.0000
  O   O7        1.0  0.36900  0.95100  0.68300  1.0000
  O   O8        1.0  0.92000  0.54800  0.76700  1.0000
  O   O9        1.0  0.92000  0.95200  0.76700  1.0000
  O   O10       1.0  0.34800  0.75000  0.96600  1.0000
  S   S1        1.0  0.70000  0.25000  0.24000  1.0000
  S   S2        1.0  0.03770  0.25000  0.33400  1.0000
  S   S3        1.0  0.96200  0.75000  0.66600  1.0000
  S   S4        1.0  0.30000  0.75000  0.76000  1.0000
