data_image0
_chemical_formula_structural       Bi2O6U
_chemical_formula_sum              "Bi2 O6 U1"
_cell_length_a       3.93036
_cell_length_b       3.93036
_cell_length_c       9.41997
_cell_angle_alpha    89.9679
_cell_angle_beta     89.9679
_cell_angle_gamma    59.9833

_space_group_name_H-M_alt    "P 1"
_space_group_IT_number       1

loop_
  _space_group_symop_operation_xyz
  'x, y, z'

loop_
  _atom_site_type_symbol
  _atom_site_label
  _atom_site_symmetry_multiplicity
  _atom_site_fract_x
  _atom_site_fract_y
  _atom_site_fract_z
  _atom_site_occupancy
  Bi  Bi1       1.0  0.67700  0.65600  0.34000  1.0000
  Bi  Bi2       1.0  0.34400  0.32300  0.66000  1.0000
  O   O1        1.0  0.68200  0.65100  0.05420  1.0000
  O   O2        1.0  0.01320  0.98600  0.21200  1.0000
  O   O3        1.0  0.34400  0.32200  0.41300  1.0000
  O   O4        1.0  0.67800  0.65600  0.58700  1.0000
  O   O5        1.0  0.01410  0.98700  0.78800  1.0000
  O   O6        1.0  0.34900  0.31800  0.94600  1.0000
  U   U1        1.0  0.01480  0.98500  0.00000  1.0000
