data_image0
_chemical_formula_structural       Cl4Cu4Se4Te4
_chemical_formula_sum              "Cl4 Cu4 Se4 Te4"
_cell_length_a       8.0269
_cell_length_b       4.94868
_cell_length_c       11.0489
_cell_angle_alpha    90
_cell_angle_beta     103.638
_cell_angle_gamma    90

_space_group_name_H-M_alt    "P 1"
_space_group_IT_number       1

loop_
  _space_group_symop_operation_xyz
  'x, y, z'

loop_
  _atom_site_type_symbol
  _atom_site_label
  _atom_site_symmetry_multiplicity
  _atom_site_fract_x
  _atom_site_fract_y
  _atom_site_fract_z
  _atom_site_occupancy
  Cl  Cl1       1.0  0.20000  0.35600  0.12100  1.0000
  Cl  Cl2       1.0  0.30000  0.85600  0.37900  1.0000
  Cl  Cl3       1.0  0.70000  0.14400  0.62100  1.0000
  Cl  Cl4       1.0  0.80000  0.64400  0.87900  1.0000
  Cu  Cu1       1.0  0.07010  0.63500  0.24800  1.0000
  Cu  Cu2       1.0  0.43000  0.13500  0.25200  1.0000
  Cu  Cu3       1.0  0.57000  0.86500  0.74800  1.0000
  Cu  Cu4       1.0  0.93000  0.36500  0.75200  1.0000
  Se  Se1       1.0  0.57300  0.79800  0.15500  1.0000
  Se  Se2       1.0  0.92700  0.29800  0.34500  1.0000
  Se  Se3       1.0  0.07270  0.70200  0.65500  1.0000
  Se  Se4       1.0  0.42700  0.20200  0.84500  1.0000
  Te  Te1       1.0  0.86200  0.99000  0.13900  1.0000
  Te  Te2       1.0  0.63800  0.49000  0.36100  1.0000
  Te  Te3       1.0  0.36200  0.51000  0.63900  1.0000
  Te  Te4       1.0  0.13800  0.00966  0.86100  1.0000
