data_image0
_chemical_formula_structural       Gd5O12Ru2
_chemical_formula_sum              "Gd5 O12 Ru2"
_cell_length_a       5.82215
_cell_length_b       6.85303
_cell_length_c       7.39984
_cell_angle_alpha    105.813
_cell_angle_beta     90
_cell_angle_gamma    115.137

_space_group_name_H-M_alt    "P 1"
_space_group_IT_number       1

loop_
  _space_group_symop_operation_xyz
  'x, y, z'

loop_
  _atom_site_type_symbol
  _atom_site_label
  _atom_site_symmetry_multiplicity
  _atom_site_fract_x
  _atom_site_fract_y
  _atom_site_fract_z
  _atom_site_occupancy
  Gd  Gd1       1.0  0.31100  0.62100  0.17100  1.0000
  Gd  Gd2       1.0  0.69600  0.39300  0.36000  1.0000
  Gd  Gd3       1.0  0.00000  0.00000  0.50000  1.0000
  Gd  Gd4       1.0  0.30400  0.60700  0.64000  1.0000
  Gd  Gd5       1.0  0.68900  0.37900  0.82900  1.0000
  O   O1        1.0  0.42200  0.32800  0.08210  1.0000
  O   O2        1.0  0.90600  0.32800  0.08210  1.0000
  O   O3        1.0  0.50100  0.00167  0.18400  1.0000
  O   O4        1.0  0.00076  0.00153  0.19400  1.0000
  O   O5        1.0  0.09730  0.69300  0.42500  1.0000
  O   O6        1.0  0.59600  0.69300  0.42500  1.0000
  O   O7        1.0  0.40400  0.30700  0.57500  1.0000
  O   O8        1.0  0.90300  0.30700  0.57500  1.0000
  O   O9        1.0  0.99900  0.99800  0.80600  1.0000
  O   O10       1.0  0.49900  0.99800  0.81600  1.0000
  O   O11       1.0  0.09400  0.67200  0.91800  1.0000
  O   O12       1.0  0.57800  0.67200  0.91800  1.0000
  Ru  Ru1       1.0  0.23600  0.00000  0.00000  1.0000
  Ru  Ru2       1.0  0.76400  0.00000  0.00000  1.0000
