data_image0
_chemical_formula_structural       Cs2F12LiMn3
_chemical_formula_sum              "Cs2 F12 Li1 Mn3"
_cell_length_a       6.95514
_cell_length_b       6.95514
_cell_length_c       6.95514
_cell_angle_alpha    63.1578
_cell_angle_beta     116.842
_cell_angle_gamma    116.842

_space_group_name_H-M_alt    "P 1"
_space_group_IT_number       1

loop_
  _space_group_symop_operation_xyz
  'x, y, z'

loop_
  _atom_site_type_symbol
  _atom_site_label
  _atom_site_symmetry_multiplicity
  _atom_site_fract_x
  _atom_site_fract_y
  _atom_site_fract_z
  _atom_site_occupancy
  Cs  Cs1       1.0  0.87100  0.12900  0.12900  1.0000
  Cs  Cs2       1.0  0.12900  0.87100  0.87100  1.0000
  F   F1        1.0  0.42700  0.18700  0.16100  1.0000
  F   F2        1.0  0.41600  0.55800  0.17700  1.0000
  F   F3        1.0  0.83900  0.57300  0.18700  1.0000
  F   F4        1.0  0.55800  0.82300  0.41600  1.0000
  F   F5        1.0  0.18700  0.83900  0.42700  1.0000
  F   F6        1.0  0.17700  0.41600  0.44200  1.0000
  F   F7        1.0  0.82300  0.58400  0.55800  1.0000
  F   F8        1.0  0.81300  0.16100  0.57300  1.0000
  F   F9        1.0  0.44200  0.17700  0.58400  1.0000
  F   F10       1.0  0.16100  0.42700  0.81300  1.0000
  F   F11       1.0  0.58400  0.44200  0.82300  1.0000
  F   F12       1.0  0.57300  0.81300  0.83900  1.0000
  Li  Li1       1.0  0.50000  0.50000  0.50000  1.0000
  Mn  Mn1       1.0  0.50000  0.50000  0.00000  1.0000
  Mn  Mn2       1.0  0.00000  0.50000  0.50000  1.0000
  Mn  Mn3       1.0  0.50000  0.00000  0.50000  1.0000
