data_image0
_chemical_formula_structural       ErK3O9Si3
_chemical_formula_sum              "Er1 K3 O9 Si3"
_cell_length_a       6.62022
_cell_length_b       6.65479
_cell_length_c       6.6678
_cell_angle_alpha    108.903
_cell_angle_beta     106.725
_cell_angle_gamma    107.649

_space_group_name_H-M_alt    "P 1"
_space_group_IT_number       1

loop_
  _space_group_symop_operation_xyz
  'x, y, z'

loop_
  _atom_site_type_symbol
  _atom_site_label
  _atom_site_symmetry_multiplicity
  _atom_site_fract_x
  _atom_site_fract_y
  _atom_site_fract_z
  _atom_site_occupancy
  Er  Er1       1.0  0.06170  0.37500  0.09900  1.0000
  K   K1        1.0  0.74300  0.89200  0.22700  1.0000
  K   K2        1.0  0.58700  0.81400  0.64500  1.0000
  K   K3        1.0  0.33200  0.17600  0.66500  1.0000
  O   O1        1.0  0.68900  0.24300  0.04220  1.0000
  O   O2        1.0  0.43900  0.47800  0.16300  1.0000
  O   O3        1.0  0.11200  0.74900  0.22200  1.0000
  O   O4        1.0  0.44800  0.12100  0.27500  1.0000
  O   O5        1.0  0.17000  0.42500  0.46900  1.0000
  O   O6        1.0  0.81300  0.53300  0.49800  1.0000
  O   O7        1.0  0.95400  0.28800  0.71900  1.0000
  O   O8        1.0  0.22900  0.75100  0.86200  1.0000
  O   O9        1.0  0.99900  0.99900  0.99700  1.0000
  Si  Si1       1.0  0.18300  0.90100  0.08560  1.0000
  Si  Si2       1.0  0.59500  0.34500  0.23300  1.0000
  Si  Si3       1.0  0.03860  0.48900  0.63400  1.0000
