data_image0
_chemical_formula_structural       Ce10Si6
_chemical_formula_sum              "Ce10 Si6"
_cell_length_a       7.96591
_cell_length_b       7.96591
_cell_length_c       8.99593
_cell_angle_alpha    116.28
_cell_angle_beta     116.28
_cell_angle_gamma    90

_space_group_name_H-M_alt    "P 1"
_space_group_IT_number       1

loop_
  _space_group_symop_operation_xyz
  'x, y, z'

loop_
  _atom_site_type_symbol
  _atom_site_label
  _atom_site_symmetry_multiplicity
  _atom_site_fract_x
  _atom_site_fract_y
  _atom_site_fract_z
  _atom_site_occupancy
  Ce  Ce1       1.0  0.00000  0.00000  0.00000  1.0000
  Ce  Ce2       1.0  0.50000  0.50000  0.00000  1.0000
  Ce  Ce3       1.0  0.82500  0.32500  0.29200  1.0000
  Ce  Ce4       1.0  0.32500  0.46700  0.29200  1.0000
  Ce  Ce5       1.0  0.96700  0.82500  0.29200  1.0000
  Ce  Ce6       1.0  0.46700  0.96700  0.29200  1.0000
  Ce  Ce7       1.0  0.53300  0.03270  0.70800  1.0000
  Ce  Ce8       1.0  0.03270  0.17500  0.70800  1.0000
  Ce  Ce9       1.0  0.67500  0.53300  0.70800  1.0000
  Ce  Ce10      1.0  0.17500  0.67500  0.70800  1.0000
  Si  Si1       1.0  0.38700  0.11300  0.00000  1.0000
  Si  Si2       1.0  0.88700  0.38700  0.00000  1.0000
  Si  Si3       1.0  0.11300  0.61300  0.00000  1.0000
  Si  Si4       1.0  0.61300  0.88700  0.00000  1.0000
  Si  Si5       1.0  0.25000  0.25000  0.50000  1.0000
  Si  Si6       1.0  0.75000  0.75000  0.50000  1.0000
