data_image0
_chemical_formula_structural       Ni4Pu6
_chemical_formula_sum              "Ni4 Pu6"
_cell_length_a       6.15784
_cell_length_b       6.15784
_cell_length_c       7.34613
_cell_angle_alpha    114.779
_cell_angle_beta     65.2208
_cell_angle_gamma    120

_space_group_name_H-M_alt    "P 1"
_space_group_IT_number       1

loop_
  _space_group_symop_operation_xyz
  'x, y, z'

loop_
  _atom_site_type_symbol
  _atom_site_label
  _atom_site_symmetry_multiplicity
  _atom_site_fract_x
  _atom_site_fract_y
  _atom_site_fract_z
  _atom_site_occupancy
  Ni  Ni1       1.0  0.31100  0.68900  0.06760  1.0000
  Ni  Ni2       1.0  0.18900  0.81100  0.43200  1.0000
  Ni  Ni3       1.0  0.81100  0.18900  0.56800  1.0000
  Ni  Ni4       1.0  0.68900  0.31100  0.93200  1.0000
  Pu  Pu1       1.0  0.25000  0.16700  0.25000  1.0000
  Pu  Pu2       1.0  0.83300  0.33300  0.25000  1.0000
  Pu  Pu3       1.0  0.66700  0.75000  0.25000  1.0000
  Pu  Pu4       1.0  0.33300  0.25000  0.75000  1.0000
  Pu  Pu5       1.0  0.16700  0.66700  0.75000  1.0000
  Pu  Pu6       1.0  0.75000  0.83300  0.75000  1.0000
