data_image0
_chemical_formula_structural       O8Tl2U4
_chemical_formula_sum              "O8 Tl2 U4"
_cell_length_a       7.25124
_cell_length_b       7.25124
_cell_length_c       7.25124
_cell_angle_alpha    119.706
_cell_angle_beta     90.5099
_cell_angle_gamma    119.706

_space_group_name_H-M_alt    "P 1"
_space_group_IT_number       1

loop_
  _space_group_symop_operation_xyz
  'x, y, z'

loop_
  _atom_site_type_symbol
  _atom_site_label
  _atom_site_symmetry_multiplicity
  _atom_site_fract_x
  _atom_site_fract_y
  _atom_site_fract_z
  _atom_site_occupancy
  O   O1        1.0  0.19500  0.80100  0.39500  1.0000
  O   O2        1.0  0.59400  0.19900  0.39500  1.0000
  O   O3        1.0  0.60500  0.80100  0.40600  1.0000
  O   O4        1.0  0.14500  0.30100  0.44500  1.0000
  O   O5        1.0  0.60500  0.19900  0.80500  1.0000
  O   O6        1.0  0.14500  0.69900  0.84400  1.0000
  O   O7        1.0  0.15600  0.30100  0.85500  1.0000
  O   O8        1.0  0.55500  0.69900  0.85500  1.0000
  Tl  Tl1       1.0  0.00000  0.00000  0.00000  1.0000
  Tl  Tl2       1.0  0.75000  0.50000  0.25000  1.0000
  U   U1        1.0  0.37500  0.75000  0.12500  1.0000
  U   U2        1.0  0.37500  0.75000  0.62500  1.0000
  U   U3        1.0  0.37500  0.25000  0.62500  1.0000
  U   U4        1.0  0.87500  0.25000  0.62500  1.0000
