data_image0
_chemical_formula_structural       Fe9Ga8Tb2
_chemical_formula_sum              "Fe9 Ga8 Tb2"
_cell_length_a       6.5563
_cell_length_b       6.5563
_cell_length_c       6.5563
_cell_angle_alpha    83.727
_cell_angle_beta     96.273
_cell_angle_gamma    96.273

_space_group_name_H-M_alt    "P 1"
_space_group_IT_number       1

loop_
  _space_group_symop_operation_xyz
  'x, y, z'

loop_
  _atom_site_type_symbol
  _atom_site_label
  _atom_site_symmetry_multiplicity
  _atom_site_fract_x
  _atom_site_fract_y
  _atom_site_fract_z
  _atom_site_occupancy
  Fe  Fe1       1.0  0.50000  0.00000  0.00000  1.0000
  Fe  Fe2       1.0  0.00000  0.50000  0.00000  1.0000
  Fe  Fe3       1.0  0.33600  0.66400  0.16400  1.0000
  Fe  Fe4       1.0  0.16400  0.33600  0.33600  1.0000
  Fe  Fe5       1.0  0.66400  0.83600  0.33600  1.0000
  Fe  Fe6       1.0  0.00000  0.00000  0.50000  1.0000
  Fe  Fe7       1.0  0.83600  0.66400  0.66400  1.0000
  Fe  Fe8       1.0  0.33600  0.16400  0.66400  1.0000
  Fe  Fe9       1.0  0.66400  0.33600  0.83600  1.0000
  Ga  Ga1       1.0  0.32000  0.32000  0.00000  1.0000
  Ga  Ga2       1.0  0.68000  0.68000  0.00000  1.0000
  Ga  Ga3       1.0  0.87200  0.12800  0.12800  1.0000
  Ga  Ga4       1.0  0.00000  0.68000  0.32000  1.0000
  Ga  Ga5       1.0  0.32000  0.00000  0.32000  1.0000
  Ga  Ga6       1.0  0.68000  0.00000  0.68000  1.0000
  Ga  Ga7       1.0  0.00000  0.32000  0.68000  1.0000
  Ga  Ga8       1.0  0.12800  0.87200  0.87200  1.0000
  Tb  Tb1       1.0  0.63700  0.36300  0.36300  1.0000
  Tb  Tb2       1.0  0.36300  0.63700  0.63700  1.0000
