data_image0
_chemical_formula_structural       Ag2Nb6Te8
_chemical_formula_sum              "Ag2 Nb6 Te8"
_cell_length_a       9.82231
_cell_length_b       9.8245
_cell_length_c       4.63528
_cell_angle_alpha    90
_cell_angle_beta     90
_cell_angle_gamma    119.98

_space_group_name_H-M_alt    "P 1"
_space_group_IT_number       1

loop_
  _space_group_symop_operation_xyz
  'x, y, z'

loop_
  _atom_site_type_symbol
  _atom_site_label
  _atom_site_symmetry_multiplicity
  _atom_site_fract_x
  _atom_site_fract_y
  _atom_site_fract_z
  _atom_site_occupancy
  Ag  Ag1       1.0  0.00000  0.00000  0.00000  1.0000
  Ag  Ag2       1.0  0.00000  0.00000  0.50000  1.0000
  Nb  Nb1       1.0  0.50400  0.14300  0.25000  1.0000
  Nb  Nb2       1.0  0.85700  0.36100  0.25000  1.0000
  Nb  Nb3       1.0  0.63900  0.49600  0.25000  1.0000
  Nb  Nb4       1.0  0.36100  0.50400  0.75000  1.0000
  Nb  Nb5       1.0  0.14300  0.63900  0.75000  1.0000
  Nb  Nb6       1.0  0.49600  0.85700  0.75000  1.0000
  Te  Te1       1.0  0.70300  0.01650  0.25000  1.0000
  Te  Te2       1.0  0.31300  0.29700  0.25000  1.0000
  Te  Te3       1.0  0.33300  0.66700  0.25000  1.0000
  Te  Te4       1.0  0.98300  0.68700  0.25000  1.0000
  Te  Te5       1.0  0.01650  0.31300  0.75000  1.0000
  Te  Te6       1.0  0.66700  0.33300  0.75000  1.0000
  Te  Te7       1.0  0.68700  0.70300  0.75000  1.0000
  Te  Te8       1.0  0.29700  0.98300  0.75000  1.0000
