data_image0
_chemical_formula_structural       Al8Fe9Nd2
_chemical_formula_sum              "Al8 Fe9 Nd2"
_cell_length_a       6.5772
_cell_length_b       6.5772
_cell_length_c       6.5772
_cell_angle_alpha    83.7303
_cell_angle_beta     96.2697
_cell_angle_gamma    96.2697

_space_group_name_H-M_alt    "P 1"
_space_group_IT_number       1

loop_
  _space_group_symop_operation_xyz
  'x, y, z'

loop_
  _atom_site_type_symbol
  _atom_site_label
  _atom_site_symmetry_multiplicity
  _atom_site_fract_x
  _atom_site_fract_y
  _atom_site_fract_z
  _atom_site_occupancy
  Al  Al1       1.0  0.31100  0.31100  0.00000  1.0000
  Al  Al2       1.0  0.68900  0.68900  0.00000  1.0000
  Al  Al3       1.0  0.88100  0.11900  0.11900  1.0000
  Al  Al4       1.0  0.31100  0.00000  0.31100  1.0000
  Al  Al5       1.0  0.00000  0.68900  0.31100  1.0000
  Al  Al6       1.0  0.68900  0.00000  0.68900  1.0000
  Al  Al7       1.0  0.00000  0.31100  0.68900  1.0000
  Al  Al8       1.0  0.11900  0.88100  0.88100  1.0000
  Fe  Fe1       1.0  0.50000  0.00000  0.00000  1.0000
  Fe  Fe2       1.0  0.00000  0.50000  0.00000  1.0000
  Fe  Fe3       1.0  0.33500  0.66500  0.15800  1.0000
  Fe  Fe4       1.0  0.15800  0.33500  0.33500  1.0000
  Fe  Fe5       1.0  0.66500  0.84200  0.33500  1.0000
  Fe  Fe6       1.0  0.00000  0.00000  0.50000  1.0000
  Fe  Fe7       1.0  0.33500  0.15800  0.66500  1.0000
  Fe  Fe8       1.0  0.84200  0.66500  0.66500  1.0000
  Fe  Fe9       1.0  0.66500  0.33500  0.84200  1.0000
  Nd  Nd1       1.0  0.64000  0.36000  0.36000  1.0000
  Nd  Nd2       1.0  0.36000  0.64000  0.64000  1.0000
