data_image0
_chemical_formula_structural       As3Na3Te6Zr6
_chemical_formula_sum              "As3 Na3 Te6 Zr6"
_cell_length_a       4.01449
_cell_length_b       4.0145
_cell_length_c       32.5977
_cell_angle_alpha    90
_cell_angle_beta     89.9996
_cell_angle_gamma    120

_space_group_name_H-M_alt    "P 1"
_space_group_IT_number       1

loop_
  _space_group_symop_operation_xyz
  'x, y, z'

loop_
  _atom_site_type_symbol
  _atom_site_label
  _atom_site_symmetry_multiplicity
  _atom_site_fract_x
  _atom_site_fract_y
  _atom_site_fract_z
  _atom_site_occupancy
  As  As1       1.0  0.00000  0.00000  0.00000  1.0000
  As  As2       1.0  0.66700  0.33300  0.33300  1.0000
  As  As3       1.0  0.33300  0.66700  0.66700  1.0000
  Na  Na1       1.0  0.33300  0.66700  0.16700  1.0000
  Na  Na2       1.0  0.00000  0.00000  0.50000  1.0000
  Na  Na3       1.0  0.66700  0.33300  0.83300  1.0000
  Te  Te1       1.0  0.66700  0.33300  0.10000  1.0000
  Te  Te2       1.0  0.00000  0.00000  0.23300  1.0000
  Te  Te3       1.0  0.33300  0.66700  0.43400  1.0000
  Te  Te4       1.0  0.66700  0.33300  0.56600  1.0000
  Te  Te5       1.0  0.00000  0.00000  0.76700  1.0000
  Te  Te6       1.0  0.33300  0.66700  0.90000  1.0000
  Zr  Zr1       1.0  0.33300  0.66700  0.04300  1.0000
  Zr  Zr2       1.0  0.33300  0.66700  0.29000  1.0000
  Zr  Zr3       1.0  0.00000  0.00000  0.37600  1.0000
  Zr  Zr4       1.0  0.00000  0.00000  0.62400  1.0000
  Zr  Zr5       1.0  0.66700  0.33300  0.71000  1.0000
  Zr  Zr6       1.0  0.66700  0.33300  0.95700  1.0000
