data_image0
_chemical_formula_structural       O12Ru2Tb5
_chemical_formula_sum              "O12 Ru2 Tb5"
_cell_length_a       5.79789
_cell_length_b       6.82262
_cell_length_c       7.36158
_cell_angle_alpha    105.809
_cell_angle_beta     90
_cell_angle_gamma    115.144

_space_group_name_H-M_alt    "P 1"
_space_group_IT_number       1

loop_
  _space_group_symop_operation_xyz
  'x, y, z'

loop_
  _atom_site_type_symbol
  _atom_site_label
  _atom_site_symmetry_multiplicity
  _atom_site_fract_x
  _atom_site_fract_y
  _atom_site_fract_z
  _atom_site_occupancy
  O   O1        1.0  0.42300  0.32900  0.08300  1.0000
  O   O2        1.0  0.90600  0.32900  0.08300  1.0000
  O   O3        1.0  0.50100  0.00147  0.18500  1.0000
  O   O4        1.0  0.00029  0.00058  0.19500  1.0000
  O   O5        1.0  0.09730  0.69300  0.42500  1.0000
  O   O6        1.0  0.59500  0.69300  0.42500  1.0000
  O   O7        1.0  0.40500  0.30700  0.57500  1.0000
  O   O8        1.0  0.90300  0.30700  0.57500  1.0000
  O   O9        1.0  0.00000  0.99900  0.80500  1.0000
  O   O10       1.0  0.49900  0.99900  0.81500  1.0000
  O   O11       1.0  0.09380  0.67100  0.91700  1.0000
  O   O12       1.0  0.57700  0.67100  0.91700  1.0000
  Ru  Ru1       1.0  0.23600  0.00000  0.00000  1.0000
  Ru  Ru2       1.0  0.76400  0.00000  0.00000  1.0000
  Tb  Tb1       1.0  0.31100  0.62100  0.17200  1.0000
  Tb  Tb2       1.0  0.69700  0.39400  0.36000  1.0000
  Tb  Tb3       1.0  0.00000  0.00000  0.50000  1.0000
  Tb  Tb4       1.0  0.30300  0.60600  0.64000  1.0000
  Tb  Tb5       1.0  0.68900  0.37900  0.82800  1.0000
