data_image0
_chemical_formula_structural       Ho4Ni4O12
_chemical_formula_sum              "Ho4 Ni4 O12"
_cell_length_a       5.10003
_cell_length_b       5.43561
_cell_length_c       7.33245
_cell_angle_alpha    90
_cell_angle_beta     90.1251
_cell_angle_gamma    90

_space_group_name_H-M_alt    "P 1"
_space_group_IT_number       1

loop_
  _space_group_symop_operation_xyz
  'x, y, z'

loop_
  _atom_site_type_symbol
  _atom_site_label
  _atom_site_symmetry_multiplicity
  _atom_site_fract_x
  _atom_site_fract_y
  _atom_site_fract_z
  _atom_site_occupancy
  Ho  Ho1       1.0  0.98000  0.07430  0.25000  1.0000
  Ho  Ho2       1.0  0.52000  0.57400  0.25000  1.0000
  Ho  Ho3       1.0  0.01990  0.92600  0.75000  1.0000
  Ho  Ho4       1.0  0.48000  0.42600  0.75000  1.0000
  Ni  Ni1       1.0  0.50000  0.00000  0.50000  1.0000
  Ni  Ni2       1.0  0.00000  0.50000  0.00000  1.0000
  Ni  Ni3       1.0  0.50000  0.00000  0.00000  1.0000
  Ni  Ni4       1.0  0.00000  0.50000  0.50000  1.0000
  O   O1        1.0  0.18600  0.20400  0.94900  1.0000
  O   O2        1.0  0.31400  0.70400  0.55100  1.0000
  O   O3        1.0  0.81400  0.79600  0.05120  1.0000
  O   O4        1.0  0.68600  0.29600  0.44900  1.0000
  O   O5        1.0  0.69900  0.30900  0.04910  1.0000
  O   O6        1.0  0.80100  0.80900  0.45100  1.0000
  O   O7        1.0  0.30100  0.69100  0.95100  1.0000
  O   O8        1.0  0.19900  0.19100  0.54900  1.0000
  O   O9        1.0  0.09940  0.47400  0.24400  1.0000
  O   O10       1.0  0.40100  0.97400  0.25600  1.0000
  O   O11       1.0  0.90100  0.52600  0.75600  1.0000
  O   O12       1.0  0.59900  0.02580  0.74400  1.0000
