data_image0
_chemical_formula_structural       Al10Au5Gd2Si2
_chemical_formula_sum              "Al10 Au5 Gd2 Si2"
_cell_length_a       4.28311
_cell_length_b       4.28311
_cell_length_c       19.7519
_cell_angle_alpha    96.2244
_cell_angle_beta     96.2244
_cell_angle_gamma    90

_space_group_name_H-M_alt    "P 1"
_space_group_IT_number       1

loop_
  _space_group_symop_operation_xyz
  'x, y, z'

loop_
  _atom_site_type_symbol
  _atom_site_label
  _atom_site_symmetry_multiplicity
  _atom_site_fract_x
  _atom_site_fract_y
  _atom_site_fract_z
  _atom_site_occupancy
  Al  Al1       1.0  0.53900  0.03860  0.07710  1.0000
  Al  Al2       1.0  0.03860  0.53900  0.07710  1.0000
  Al  Al3       1.0  0.67400  0.17400  0.34800  1.0000
  Al  Al4       1.0  0.17400  0.67400  0.34800  1.0000
  Al  Al5       1.0  0.75000  0.25000  0.50000  1.0000
  Al  Al6       1.0  0.25000  0.75000  0.50000  1.0000
  Al  Al7       1.0  0.82600  0.32600  0.65200  1.0000
  Al  Al8       1.0  0.32600  0.82600  0.65200  1.0000
  Al  Al9       1.0  0.96100  0.46100  0.92300  1.0000
  Al  Al10      1.0  0.46100  0.96100  0.92300  1.0000
  Au  Au1       1.0  0.00000  0.00000  0.00000  1.0000
  Au  Au2       1.0  0.57500  0.57500  0.15000  1.0000
  Au  Au3       1.0  0.21200  0.21200  0.42300  1.0000
  Au  Au4       1.0  0.78800  0.78800  0.57700  1.0000
  Au  Au5       1.0  0.42500  0.42500  0.85000  1.0000
  Gd  Gd1       1.0  0.11000  0.11000  0.22100  1.0000
  Gd  Gd2       1.0  0.89000  0.89000  0.77900  1.0000
  Si  Si1       1.0  0.63700  0.63700  0.27400  1.0000
  Si  Si2       1.0  0.36300  0.36300  0.72600  1.0000
