data_image0
_chemical_formula_structural       Bi3NaO10V2
_chemical_formula_sum              "Bi3 Na1 O10 V2"
_cell_length_a       7.01613
_cell_length_b       7.17268
_cell_length_c       5.48587
_cell_angle_alpha    114.282
_cell_angle_beta     87.9692
_cell_angle_gamma    111.134

_space_group_name_H-M_alt    "P 1"
_space_group_IT_number       1

loop_
  _space_group_symop_operation_xyz
  'x, y, z'

loop_
  _atom_site_type_symbol
  _atom_site_label
  _atom_site_symmetry_multiplicity
  _atom_site_fract_x
  _atom_site_fract_y
  _atom_site_fract_z
  _atom_site_occupancy
  Bi  Bi1       1.0  0.59400  0.65800  0.23300  1.0000
  Bi  Bi2       1.0  0.85100  0.24400  0.60000  1.0000
  Bi  Bi3       1.0  0.98500  0.96800  0.92300  1.0000
  Na  Na1       1.0  0.47400  0.95900  0.91300  1.0000
  O   O1        1.0  0.94000  0.67500  0.05510  1.0000
  O   O2        1.0  0.02460  0.33800  0.07660  1.0000
  O   O3        1.0  0.73700  0.97500  0.18300  1.0000
  O   O4        1.0  0.46500  0.29200  0.28900  1.0000
  O   O5        1.0  0.32900  0.77000  0.37200  1.0000
  O   O6        1.0  0.12700  0.12400  0.53000  1.0000
  O   O7        1.0  0.93200  0.63100  0.53400  1.0000
  O   O8        1.0  0.74200  0.93700  0.65900  1.0000
  O   O9        1.0  0.54400  0.24500  0.76000  1.0000
  O   O10       1.0  0.40900  0.57400  0.80800  1.0000
  V   V1        1.0  0.06820  0.61400  0.26300  1.0000
  V   V2        1.0  0.38500  0.30700  0.59200  1.0000
