data_image0
_chemical_formula_structural       Mg2Nd4O12Ti2
_chemical_formula_sum              "Mg2 Nd4 O12 Ti2"
_cell_length_a       5.44931
_cell_length_b       5.60242
_cell_length_c       7.76336
_cell_angle_alpha    90
_cell_angle_beta     90.0229
_cell_angle_gamma    90

_space_group_name_H-M_alt    "P 1"
_space_group_IT_number       1

loop_
  _space_group_symop_operation_xyz
  'x, y, z'

loop_
  _atom_site_type_symbol
  _atom_site_label
  _atom_site_symmetry_multiplicity
  _atom_site_fract_x
  _atom_site_fract_y
  _atom_site_fract_z
  _atom_site_occupancy
  Mg  Mg1       1.0  0.50000  0.00000  0.00000  1.0000
  Mg  Mg2       1.0  0.00000  0.50000  0.50000  1.0000
  Nd  Nd1       1.0  0.51200  0.55200  0.24900  1.0000
  Nd  Nd2       1.0  0.98800  0.05230  0.25100  1.0000
  Nd  Nd3       1.0  0.01210  0.94800  0.74900  1.0000
  Nd  Nd4       1.0  0.48800  0.44800  0.75100  1.0000
  O   O1        1.0  0.71100  0.30000  0.04630  1.0000
  O   O2        1.0  0.80100  0.78900  0.04860  1.0000
  O   O3        1.0  0.08960  0.47400  0.24500  1.0000
  O   O4        1.0  0.41000  0.97400  0.25500  1.0000
  O   O5        1.0  0.69900  0.28900  0.45100  1.0000
  O   O6        1.0  0.78900  0.80000  0.45400  1.0000
  O   O7        1.0  0.21100  0.20000  0.54600  1.0000
  O   O8        1.0  0.30100  0.71100  0.54900  1.0000
  O   O9        1.0  0.59000  0.02570  0.74500  1.0000
  O   O10       1.0  0.91000  0.52600  0.75500  1.0000
  O   O11       1.0  0.19900  0.21100  0.95100  1.0000
  O   O12       1.0  0.28900  0.70000  0.95400  1.0000
  Ti  Ti1       1.0  0.00000  0.50000  0.00000  1.0000
  Ti  Ti2       1.0  0.50000  0.00000  0.50000  1.0000
