data_image0
_chemical_formula_structural       Li4O12Te2Ti2
_chemical_formula_sum              "Li4 O12 Te2 Ti2"
_cell_length_a       5.0757
_cell_length_b       4.87033
_cell_length_c       8.41007
_cell_angle_alpha    90
_cell_angle_beta     90
_cell_angle_gamma    90

_space_group_name_H-M_alt    "P 1"
_space_group_IT_number       1

loop_
  _space_group_symop_operation_xyz
  'x, y, z'

loop_
  _atom_site_type_symbol
  _atom_site_label
  _atom_site_symmetry_multiplicity
  _atom_site_fract_x
  _atom_site_fract_y
  _atom_site_fract_z
  _atom_site_occupancy
  Li  Li1       1.0  0.50000  0.50000  0.09410  1.0000
  Li  Li2       1.0  0.50000  0.00000  0.20800  1.0000
  Li  Li3       1.0  0.00000  0.00000  0.59400  1.0000
  Li  Li4       1.0  0.00000  0.50000  0.70800  1.0000
  O   O1        1.0  0.15400  0.24200  0.15600  1.0000
  O   O2        1.0  0.84600  0.75800  0.15600  1.0000
  O   O3        1.0  0.67400  0.29100  0.32900  1.0000
  O   O4        1.0  0.32600  0.70900  0.32900  1.0000
  O   O5        1.0  0.18000  0.29400  0.48700  1.0000
  O   O6        1.0  0.82000  0.70600  0.48700  1.0000
  O   O7        1.0  0.65400  0.25800  0.65600  1.0000
  O   O8        1.0  0.34600  0.74200  0.65600  1.0000
  O   O9        1.0  0.17400  0.20900  0.82900  1.0000
  O   O10       1.0  0.82600  0.79100  0.82900  1.0000
  O   O11       1.0  0.68000  0.20600  0.98700  1.0000
  O   O12       1.0  0.32000  0.79400  0.98700  1.0000
  Te  Te1       1.0  0.50000  0.50000  0.49800  1.0000
  Te  Te2       1.0  0.00000  0.00000  0.99800  1.0000
  Ti  Ti1       1.0  0.00000  0.50000  0.30400  1.0000
  Ti  Ti2       1.0  0.50000  0.00000  0.80400  1.0000
