data_image0
_chemical_formula_structural       Au2Pb8Rb6
_chemical_formula_sum              "Au2 Pb8 Rb6"
_cell_length_a       7.08964
_cell_length_b       13.3636
_cell_length_c       6.9856
_cell_angle_alpha    90
_cell_angle_beta     90
_cell_angle_gamma    90

_space_group_name_H-M_alt    "P 1"
_space_group_IT_number       1

loop_
  _space_group_symop_operation_xyz
  'x, y, z'

loop_
  _atom_site_type_symbol
  _atom_site_label
  _atom_site_symmetry_multiplicity
  _atom_site_fract_x
  _atom_site_fract_y
  _atom_site_fract_z
  _atom_site_occupancy
  Au  Au1       1.0  0.25000  0.75000  0.30400  1.0000
  Au  Au2       1.0  0.75000  0.25000  0.69600  1.0000
  Pb  Pb1       1.0  0.51500  0.25000  0.04830  1.0000
  Pb  Pb2       1.0  0.98500  0.25000  0.04830  1.0000
  Pb  Pb3       1.0  0.75000  0.12700  0.34300  1.0000
  Pb  Pb4       1.0  0.75000  0.37300  0.34300  1.0000
  Pb  Pb5       1.0  0.25000  0.62700  0.65700  1.0000
  Pb  Pb6       1.0  0.25000  0.87300  0.65700  1.0000
  Pb  Pb7       1.0  0.01510  0.75000  0.95200  1.0000
  Pb  Pb8       1.0  0.48500  0.75000  0.95200  1.0000
  Rb  Rb1       1.0  0.25000  0.00038  0.17200  1.0000
  Rb  Rb2       1.0  0.25000  0.50000  0.17200  1.0000
  Rb  Rb3       1.0  0.75000  0.75000  0.43300  1.0000
  Rb  Rb4       1.0  0.25000  0.25000  0.56700  1.0000
  Rb  Rb5       1.0  0.75000  0.50000  0.82800  1.0000
  Rb  Rb6       1.0  0.75000  0.00000  0.82800  1.0000
