data_image0
_chemical_formula_structural       B16Ca4
_chemical_formula_sum              "B16 Ca4"
_cell_length_a       7.14003
_cell_length_b       7.14003
_cell_length_c       4.08492
_cell_angle_alpha    90
_cell_angle_beta     90
_cell_angle_gamma    90

_space_group_name_H-M_alt    "P 1"
_space_group_IT_number       1

loop_
  _space_group_symop_operation_xyz
  'x, y, z'

loop_
  _atom_site_type_symbol
  _atom_site_label
  _atom_site_symmetry_multiplicity
  _atom_site_fract_x
  _atom_site_fract_y
  _atom_site_fract_z
  _atom_site_occupancy
  B   B1        1.0  0.00000  0.00000  0.20500  1.0000
  B   B2        1.0  0.50000  0.50000  0.20500  1.0000
  B   B3        1.0  0.17500  0.03640  0.50000  1.0000
  B   B4        1.0  0.41400  0.08570  0.50000  1.0000
  B   B5        1.0  0.96400  0.17500  0.50000  1.0000
  B   B6        1.0  0.46400  0.32500  0.50000  1.0000
  B   B7        1.0  0.91400  0.41400  0.50000  1.0000
  B   B8        1.0  0.67500  0.46400  0.50000  1.0000
  B   B9        1.0  0.32500  0.53600  0.50000  1.0000
  B   B10       1.0  0.08570  0.58600  0.50000  1.0000
  B   B11       1.0  0.53600  0.67500  0.50000  1.0000
  B   B12       1.0  0.03640  0.82500  0.50000  1.0000
  B   B13       1.0  0.58600  0.91400  0.50000  1.0000
  B   B14       1.0  0.82500  0.96400  0.50000  1.0000
  B   B15       1.0  0.00000  0.00000  0.79500  1.0000
  B   B16       1.0  0.50000  0.50000  0.79500  1.0000
  Ca  Ca1       1.0  0.68500  0.18500  0.00000  1.0000
  Ca  Ca2       1.0  0.18500  0.31500  0.00000  1.0000
  Ca  Ca3       1.0  0.81500  0.68500  0.00000  1.0000
  Ca  Ca4       1.0  0.31500  0.81500  0.00000  1.0000
