data_image0
_chemical_formula_structural       Au2Cs6Sn8
_chemical_formula_sum              "Au2 Cs6 Sn8"
_cell_length_a       7.54975
_cell_length_b       13.8046
_cell_length_c       6.70119
_cell_angle_alpha    90
_cell_angle_beta     90
_cell_angle_gamma    90

_space_group_name_H-M_alt    "P 1"
_space_group_IT_number       1

loop_
  _space_group_symop_operation_xyz
  'x, y, z'

loop_
  _atom_site_type_symbol
  _atom_site_label
  _atom_site_symmetry_multiplicity
  _atom_site_fract_x
  _atom_site_fract_y
  _atom_site_fract_z
  _atom_site_occupancy
  Au  Au1       1.0  0.25000  0.75000  0.30400  1.0000
  Au  Au2       1.0  0.75000  0.25000  0.69600  1.0000
  Cs  Cs1       1.0  0.25000  0.01020  0.15900  1.0000
  Cs  Cs2       1.0  0.25000  0.49000  0.15900  1.0000
  Cs  Cs3       1.0  0.75000  0.75000  0.44200  1.0000
  Cs  Cs4       1.0  0.25000  0.25000  0.55800  1.0000
  Cs  Cs5       1.0  0.75000  0.51000  0.84100  1.0000
  Cs  Cs6       1.0  0.75000  0.99000  0.84100  1.0000
  Sn  Sn1       1.0  0.54200  0.25000  0.05000  1.0000
  Sn  Sn2       1.0  0.95800  0.25000  0.05000  1.0000
  Sn  Sn3       1.0  0.75000  0.13700  0.34300  1.0000
  Sn  Sn4       1.0  0.75000  0.36300  0.34300  1.0000
  Sn  Sn5       1.0  0.25000  0.63700  0.65700  1.0000
  Sn  Sn6       1.0  0.25000  0.86300  0.65700  1.0000
  Sn  Sn7       1.0  0.04220  0.75000  0.95000  1.0000
  Sn  Sn8       1.0  0.45800  0.75000  0.95000  1.0000
