data_image0
_chemical_formula_structural       La4Ni2O12Ti2
_chemical_formula_sum              "La4 Ni2 O12 Ti2"
_cell_length_a       5.53229
_cell_length_b       5.55699
_cell_length_c       7.82256
_cell_angle_alpha    90
_cell_angle_beta     89.9818
_cell_angle_gamma    90

_space_group_name_H-M_alt    "P 1"
_space_group_IT_number       1

loop_
  _space_group_symop_operation_xyz
  'x, y, z'

loop_
  _atom_site_type_symbol
  _atom_site_label
  _atom_site_symmetry_multiplicity
  _atom_site_fract_x
  _atom_site_fract_y
  _atom_site_fract_z
  _atom_site_occupancy
  La  La1       1.0  0.99300  0.03670  0.24900  1.0000
  La  La2       1.0  0.50700  0.53700  0.25100  1.0000
  La  La3       1.0  0.49300  0.46300  0.74900  1.0000
  La  La4       1.0  0.00679  0.96300  0.75100  1.0000
  Ni  Ni1       1.0  0.00000  0.50000  0.00000  1.0000
  Ni  Ni2       1.0  0.50000  0.00000  0.50000  1.0000
  O   O1        1.0  0.78100  0.79300  0.04130  1.0000
  O   O2        1.0  0.70600  0.28300  0.04260  1.0000
  O   O3        1.0  0.42100  0.98200  0.24500  1.0000
  O   O4        1.0  0.07900  0.48200  0.25500  1.0000
  O   O5        1.0  0.79400  0.78300  0.45700  1.0000
  O   O6        1.0  0.71900  0.29300  0.45900  1.0000
  O   O7        1.0  0.28100  0.70700  0.54100  1.0000
  O   O8        1.0  0.20600  0.21700  0.54300  1.0000
  O   O9        1.0  0.92100  0.51800  0.74500  1.0000
  O   O10       1.0  0.57900  0.01750  0.75500  1.0000
  O   O11       1.0  0.29400  0.71700  0.95700  1.0000
  O   O12       1.0  0.21900  0.20700  0.95900  1.0000
  Ti  Ti1       1.0  0.50000  0.00000  0.00000  1.0000
  Ti  Ti2       1.0  0.00000  0.50000  0.50000  1.0000
