data_image0
_chemical_formula_structural       Lu8Se12
_chemical_formula_sum              "Lu8 Se12"
_cell_length_a       6.91907
_cell_length_b       6.91907
_cell_length_c       12.6246
_cell_angle_alpha    100.608
_cell_angle_beta     100.608
_cell_angle_gamma    109.159

_space_group_name_H-M_alt    "P 1"
_space_group_IT_number       1

loop_
  _space_group_symop_operation_xyz
  'x, y, z'

loop_
  _atom_site_type_symbol
  _atom_site_label
  _atom_site_symmetry_multiplicity
  _atom_site_fract_x
  _atom_site_fract_y
  _atom_site_fract_z
  _atom_site_occupancy
  Lu  Lu1       1.0  0.04150  0.79100  0.08300  1.0000
  Lu  Lu2       1.0  0.62300  0.87300  0.24600  1.0000
  Lu  Lu3       1.0  0.12700  0.37700  0.25400  1.0000
  Lu  Lu4       1.0  0.20900  0.95900  0.41700  1.0000
  Lu  Lu5       1.0  0.79100  0.04150  0.58300  1.0000
  Lu  Lu6       1.0  0.87300  0.62300  0.74600  1.0000
  Lu  Lu7       1.0  0.37700  0.12700  0.75400  1.0000
  Lu  Lu8       1.0  0.95900  0.20900  0.91700  1.0000
  Se  Se1       1.0  0.80100  0.04670  0.08670  1.0000
  Se  Se2       1.0  0.28600  0.54000  0.08670  1.0000
  Se  Se3       1.0  0.37000  0.12000  0.25000  1.0000
  Se  Se4       1.0  0.88000  0.63000  0.25000  1.0000
  Se  Se5       1.0  0.95300  0.19900  0.41300  1.0000
  Se  Se6       1.0  0.46000  0.71400  0.41300  1.0000
  Se  Se7       1.0  0.54000  0.28600  0.58700  1.0000
  Se  Se8       1.0  0.04670  0.80100  0.58700  1.0000
  Se  Se9       1.0  0.12000  0.37000  0.75000  1.0000
  Se  Se10      1.0  0.63000  0.88000  0.75000  1.0000
  Se  Se11      1.0  0.71400  0.46000  0.91300  1.0000
  Se  Se12      1.0  0.19900  0.95300  0.91300  1.0000
