data_image0
_chemical_formula_structural       Cl2CrH12IN4
_chemical_formula_sum              "Cl2 Cr1 H12 I1 N4"
_cell_length_a       6.05038
_cell_length_b       6.39319
_cell_length_c       6.39319
_cell_angle_alpha    98.2526
_cell_angle_beta     104.328
_cell_angle_gamma    75.6721

_space_group_name_H-M_alt    "P 1"
_space_group_IT_number       1

loop_
  _space_group_symop_operation_xyz
  'x, y, z'

loop_
  _atom_site_type_symbol
  _atom_site_label
  _atom_site_symmetry_multiplicity
  _atom_site_fract_x
  _atom_site_fract_y
  _atom_site_fract_z
  _atom_site_occupancy
  Cl  Cl1       1.0  0.29100  0.83600  0.16400  1.0000
  Cl  Cl2       1.0  0.70900  0.16400  0.83600  1.0000
  Cr  Cr1       1.0  0.50000  0.00000  0.00000  1.0000
  H   H1        1.0  0.80900  0.63600  0.09240  1.0000
  H   H2        1.0  0.37600  0.42000  0.13100  1.0000
  H   H3        1.0  0.16900  0.29900  0.14400  1.0000
  H   H4        1.0  0.83100  0.14400  0.29900  1.0000
  H   H5        1.0  0.80900  0.90800  0.36400  1.0000
  H   H6        1.0  0.62400  0.13100  0.42000  1.0000
  H   H7        1.0  0.37600  0.86900  0.58000  1.0000
  H   H8        1.0  0.19100  0.09240  0.63600  1.0000
  H   H9        1.0  0.16900  0.85600  0.70100  1.0000
  H   H10       1.0  0.83100  0.70100  0.85600  1.0000
  H   H11       1.0  0.62400  0.58000  0.86900  1.0000
  H   H12       1.0  0.19100  0.36400  0.90800  1.0000
  I   I1        1.0  0.00000  0.50000  0.50000  1.0000
  N   N1        1.0  0.28600  0.30300  0.05220  1.0000
  N   N2        1.0  0.71400  0.05220  0.30300  1.0000
  N   N3        1.0  0.28600  0.94800  0.69700  1.0000
  N   N4        1.0  0.71400  0.69700  0.94800  1.0000
