data_image0
_chemical_formula_structural       Ho4Mn2Ni2O12
_chemical_formula_sum              "Ho4 Mn2 Ni2 O12"
_cell_length_a       5.19887
_cell_length_b       5.54069
_cell_length_c       7.46381
_cell_angle_alpha    90
_cell_angle_beta     90.4356
_cell_angle_gamma    90

_space_group_name_H-M_alt    "P 1"
_space_group_IT_number       1

loop_
  _space_group_symop_operation_xyz
  'x, y, z'

loop_
  _atom_site_type_symbol
  _atom_site_label
  _atom_site_symmetry_multiplicity
  _atom_site_fract_x
  _atom_site_fract_y
  _atom_site_fract_z
  _atom_site_occupancy
  Ho  Ho1       1.0  0.52000  0.07310  0.24900  1.0000
  Ho  Ho2       1.0  0.98000  0.57300  0.25100  1.0000
  Ho  Ho3       1.0  0.01990  0.42700  0.74900  1.0000
  Ho  Ho4       1.0  0.48000  0.92700  0.75100  1.0000
  Mn  Mn1       1.0  0.00000  0.00000  0.00000  1.0000
  Mn  Mn2       1.0  0.50000  0.50000  0.50000  1.0000
  Ni  Ni1       1.0  0.50000  0.50000  0.00000  1.0000
  Ni  Ni2       1.0  0.00000  0.00000  0.50000  1.0000
  O   O1        1.0  0.69900  0.81200  0.05300  1.0000
  O   O2        1.0  0.81700  0.29500  0.05670  1.0000
  O   O3        1.0  0.10900  0.96500  0.24400  1.0000
  O   O4        1.0  0.39100  0.46500  0.25600  1.0000
  O   O5        1.0  0.68300  0.79500  0.44300  1.0000
  O   O6        1.0  0.80100  0.31200  0.44700  1.0000
  O   O7        1.0  0.19900  0.68800  0.55300  1.0000
  O   O8        1.0  0.31700  0.20500  0.55700  1.0000
  O   O9        1.0  0.60900  0.53500  0.74400  1.0000
  O   O10       1.0  0.89100  0.03510  0.75600  1.0000
  O   O11       1.0  0.18300  0.70500  0.94300  1.0000
  O   O12       1.0  0.30100  0.18800  0.94700  1.0000
