data_image0
_chemical_formula_structural       Ca4Ho2Nb2O12
_chemical_formula_sum              "Ca4 Ho2 Nb2 O12"
_cell_length_a       5.56722
_cell_length_b       5.81854
_cell_length_c       8.0291
_cell_angle_alpha    90
_cell_angle_beta     90.0102
_cell_angle_gamma    90

_space_group_name_H-M_alt    "P 1"
_space_group_IT_number       1

loop_
  _space_group_symop_operation_xyz
  'x, y, z'

loop_
  _atom_site_type_symbol
  _atom_site_label
  _atom_site_symmetry_multiplicity
  _atom_site_fract_x
  _atom_site_fract_y
  _atom_site_fract_z
  _atom_site_occupancy
  Ca  Ca1       1.0  0.51500  0.94400  0.24600  1.0000
  Ca  Ca2       1.0  0.98500  0.44400  0.25400  1.0000
  Ca  Ca3       1.0  0.01470  0.55600  0.74600  1.0000
  Ca  Ca4       1.0  0.48500  0.05580  0.75400  1.0000
  Ho  Ho1       1.0  0.50000  0.50000  0.00000  1.0000
  Ho  Ho2       1.0  0.00000  0.00000  0.50000  1.0000
  Nb  Nb1       1.0  0.00000  0.00000  0.00000  1.0000
  Nb  Nb2       1.0  0.50000  0.50000  0.50000  1.0000
  O   O1        1.0  0.70500  0.18300  0.05550  1.0000
  O   O2        1.0  0.82200  0.71100  0.06740  1.0000
  O   O3        1.0  0.11600  0.05030  0.23600  1.0000
  O   O4        1.0  0.38400  0.55000  0.26400  1.0000
  O   O5        1.0  0.67800  0.21100  0.43300  1.0000
  O   O6        1.0  0.79500  0.68300  0.44500  1.0000
  O   O7        1.0  0.20500  0.31700  0.55500  1.0000
  O   O8        1.0  0.32200  0.78900  0.56700  1.0000
  O   O9        1.0  0.61600  0.45000  0.73600  1.0000
  O   O10       1.0  0.88400  0.95000  0.76400  1.0000
  O   O11       1.0  0.17800  0.28900  0.93300  1.0000
  O   O12       1.0  0.29500  0.81700  0.94500  1.0000
