data_image0
_chemical_formula_structural       K2O6Sb2
_chemical_formula_sum              "K2 O6 Sb2"
_cell_length_a       6.77736
_cell_length_b       6.77736
_cell_length_c       6.77736
_cell_angle_alpha    47.0347
_cell_angle_beta     47.0347
_cell_angle_gamma    47.0347

_space_group_name_H-M_alt    "P 1"
_space_group_IT_number       1

loop_
  _space_group_symop_operation_xyz
  'x, y, z'

loop_
  _atom_site_type_symbol
  _atom_site_label
  _atom_site_symmetry_multiplicity
  _atom_site_fract_x
  _atom_site_fract_y
  _atom_site_fract_z
  _atom_site_occupancy
  K   K1        1.0  0.35800  0.35800  0.35800  1.0000
  K   K2        1.0  0.64200  0.64200  0.64200  1.0000
  O   O1        1.0  0.83100  0.44200  0.03540  1.0000
  O   O2        1.0  0.55800  0.96500  0.16900  1.0000
  O   O3        1.0  0.03540  0.83100  0.44200  1.0000
  O   O4        1.0  0.96500  0.16900  0.55800  1.0000
  O   O5        1.0  0.44200  0.03540  0.83100  1.0000
  O   O6        1.0  0.16900  0.55800  0.96500  1.0000
  Sb  Sb1       1.0  0.16400  0.16400  0.16400  1.0000
  Sb  Sb2       1.0  0.83600  0.83600  0.83600  1.0000
