data_image0
_chemical_formula_structural       La2Na2Nb2O12Sc2
_chemical_formula_sum              "La2 Na2 Nb2 O12 Sc2"
_cell_length_a       5.63989
_cell_length_b       5.63989
_cell_length_c       8.01587
_cell_angle_alpha    90.1487
_cell_angle_beta     89.8513
_cell_angle_gamma    89.3881

_space_group_name_H-M_alt    "P 1"
_space_group_IT_number       1

loop_
  _space_group_symop_operation_xyz
  'x, y, z'

loop_
  _atom_site_type_symbol
  _atom_site_label
  _atom_site_symmetry_multiplicity
  _atom_site_fract_x
  _atom_site_fract_y
  _atom_site_fract_z
  _atom_site_occupancy
  La  La1       1.0  0.25400  0.25400  0.50000  1.0000
  La  La2       1.0  0.74600  0.74600  0.50000  1.0000
  Na  Na1       1.0  0.25600  0.25600  0.00000  1.0000
  Na  Na2       1.0  0.74400  0.74400  0.00000  1.0000
  Nb  Nb1       1.0  0.25200  0.74800  0.23500  1.0000
  Nb  Nb2       1.0  0.74800  0.25200  0.76500  1.0000
  O   O1        1.0  0.18700  0.81300  0.00688  1.0000
  O   O2        1.0  0.49500  0.50500  0.19600  1.0000
  O   O3        1.0  0.00611  0.50500  0.27800  1.0000
  O   O4        1.0  0.49500  0.99400  0.27800  1.0000
  O   O5        1.0  0.00601  0.99400  0.31900  1.0000
  O   O6        1.0  0.31600  0.68400  0.49900  1.0000
  O   O7        1.0  0.68400  0.31600  0.50100  1.0000
  O   O8        1.0  0.99400  0.00601  0.68100  1.0000
  O   O9        1.0  0.50500  0.00611  0.72200  1.0000
  O   O10       1.0  0.99400  0.49500  0.72200  1.0000
  O   O11       1.0  0.50500  0.49500  0.80400  1.0000
  O   O12       1.0  0.81300  0.18700  0.99300  1.0000
  Sc  Sc1       1.0  0.75300  0.24700  0.24500  1.0000
  Sc  Sc2       1.0  0.24700  0.75300  0.75500  1.0000
