data_image0
_chemical_formula_structural       Ca4Lu2Nb2O12
_chemical_formula_sum              "Ca4 Lu2 Nb2 O12"
_cell_length_a       5.54686
_cell_length_b       5.76397
_cell_length_c       7.97464
_cell_angle_alpha    90
_cell_angle_beta     90.0038
_cell_angle_gamma    90

_space_group_name_H-M_alt    "P 1"
_space_group_IT_number       1

loop_
  _space_group_symop_operation_xyz
  'x, y, z'

loop_
  _atom_site_type_symbol
  _atom_site_label
  _atom_site_symmetry_multiplicity
  _atom_site_fract_x
  _atom_site_fract_y
  _atom_site_fract_z
  _atom_site_occupancy
  Ca  Ca1       1.0  0.48600  0.94600  0.24700  1.0000
  Ca  Ca2       1.0  0.01380  0.44600  0.25300  1.0000
  Ca  Ca3       1.0  0.98600  0.55400  0.74700  1.0000
  Ca  Ca4       1.0  0.51400  0.05420  0.75300  1.0000
  Lu  Lu1       1.0  0.50000  0.50000  0.00000  1.0000
  Lu  Lu2       1.0  0.00000  0.00000  0.50000  1.0000
  Nb  Nb1       1.0  0.00000  0.00000  0.00000  1.0000
  Nb  Nb2       1.0  0.50000  0.50000  0.50000  1.0000
  O   O1        1.0  0.29500  0.18700  0.05410  1.0000
  O   O2        1.0  0.18300  0.70900  0.06240  1.0000
  O   O3        1.0  0.88900  0.04450  0.23900  1.0000
  O   O4        1.0  0.61100  0.54400  0.26100  1.0000
  O   O5        1.0  0.31700  0.20900  0.43800  1.0000
  O   O6        1.0  0.20500  0.68700  0.44600  1.0000
  O   O7        1.0  0.79500  0.31300  0.55400  1.0000
  O   O8        1.0  0.68300  0.79100  0.56200  1.0000
  O   O9        1.0  0.38900  0.45600  0.73900  1.0000
  O   O10       1.0  0.11100  0.95600  0.76100  1.0000
  O   O11       1.0  0.81700  0.29100  0.93800  1.0000
  O   O12       1.0  0.70500  0.81300  0.94600  1.0000
