data_image0
_chemical_formula_structural       La4O12Pt2Zn2
_chemical_formula_sum              "La4 O12 Pt2 Zn2"
_cell_length_a       5.57815
_cell_length_b       5.72804
_cell_length_c       7.92008
_cell_angle_alpha    90
_cell_angle_beta     89.9756
_cell_angle_gamma    90

_space_group_name_H-M_alt    "P 1"
_space_group_IT_number       1

loop_
  _space_group_symop_operation_xyz
  'x, y, z'

loop_
  _atom_site_type_symbol
  _atom_site_label
  _atom_site_symmetry_multiplicity
  _atom_site_fract_x
  _atom_site_fract_y
  _atom_site_fract_z
  _atom_site_occupancy
  La  La1       1.0  0.51300  0.55500  0.24900  1.0000
  La  La2       1.0  0.98700  0.05480  0.25100  1.0000
  La  La3       1.0  0.01310  0.94500  0.74900  1.0000
  La  La4       1.0  0.48700  0.44500  0.75100  1.0000
  O   O1        1.0  0.70400  0.29900  0.04870  1.0000
  O   O2        1.0  0.80300  0.79300  0.05040  1.0000
  O   O3        1.0  0.09430  0.47500  0.24800  1.0000
  O   O4        1.0  0.40600  0.97500  0.25200  1.0000
  O   O5        1.0  0.69700  0.29300  0.45000  1.0000
  O   O6        1.0  0.79600  0.79900  0.45100  1.0000
  O   O7        1.0  0.20400  0.20100  0.54900  1.0000
  O   O8        1.0  0.30300  0.70700  0.55000  1.0000
  O   O9        1.0  0.59400  0.02540  0.74800  1.0000
  O   O10       1.0  0.90600  0.52500  0.75200  1.0000
  O   O11       1.0  0.19700  0.20700  0.95000  1.0000
  O   O12       1.0  0.29600  0.70100  0.95100  1.0000
  Pt  Pt1       1.0  0.00000  0.50000  0.00000  1.0000
  Pt  Pt2       1.0  0.50000  0.00000  0.50000  1.0000
  Zn  Zn1       1.0  0.50000  0.00000  0.00000  1.0000
  Zn  Zn2       1.0  0.00000  0.50000  0.50000  1.0000
