data_image0
_chemical_formula_structural       Ba2Mn4O12Sr2
_chemical_formula_sum              "Ba2 Mn4 O12 Sr2"
_cell_length_a       5.57265
_cell_length_b       5.57262
_cell_length_c       9.17057
_cell_angle_alpha    90
_cell_angle_beta     90
_cell_angle_gamma    120

_space_group_name_H-M_alt    "P 1"
_space_group_IT_number       1

loop_
  _space_group_symop_operation_xyz
  'x, y, z'

loop_
  _atom_site_type_symbol
  _atom_site_label
  _atom_site_symmetry_multiplicity
  _atom_site_fract_x
  _atom_site_fract_y
  _atom_site_fract_z
  _atom_site_occupancy
  Ba  Ba1       1.0  0.00000  0.00000  0.00000  1.0000
  Ba  Ba2       1.0  0.00000  0.00000  0.50000  1.0000
  Mn  Mn1       1.0  0.66700  0.33300  0.11200  1.0000
  Mn  Mn2       1.0  0.66700  0.33300  0.38800  1.0000
  Mn  Mn3       1.0  0.33300  0.66700  0.61200  1.0000
  Mn  Mn4       1.0  0.33300  0.66700  0.88800  1.0000
  O   O1        1.0  0.50000  0.00000  0.00000  1.0000
  O   O2        1.0  0.00000  0.50000  0.00000  1.0000
  O   O3        1.0  0.50000  0.50000  0.00000  1.0000
  O   O4        1.0  0.36600  0.18300  0.25000  1.0000
  O   O5        1.0  0.81700  0.18300  0.25000  1.0000
  O   O6        1.0  0.81700  0.63400  0.25000  1.0000
  O   O7        1.0  0.50000  0.00000  0.50000  1.0000
  O   O8        1.0  0.00000  0.50000  0.50000  1.0000
  O   O9        1.0  0.50000  0.50000  0.50000  1.0000
  O   O10       1.0  0.18300  0.36600  0.75000  1.0000
  O   O11       1.0  0.18300  0.81700  0.75000  1.0000
  O   O12       1.0  0.63400  0.81700  0.75000  1.0000
  Sr  Sr1       1.0  0.33300  0.66700  0.25000  1.0000
  Sr  Sr2       1.0  0.66700  0.33300  0.75000  1.0000
