data_image0
_chemical_formula_structural       Ca4Cr2O12Sb2
_chemical_formula_sum              "Ca4 Cr2 O12 Sb2"
_cell_length_a       5.42288
_cell_length_b       5.51401
_cell_length_c       7.70995
_cell_angle_alpha    90
_cell_angle_beta     90.2363
_cell_angle_gamma    90

_space_group_name_H-M_alt    "P 1"
_space_group_IT_number       1

loop_
  _space_group_symop_operation_xyz
  'x, y, z'

loop_
  _atom_site_type_symbol
  _atom_site_label
  _atom_site_symmetry_multiplicity
  _atom_site_fract_x
  _atom_site_fract_y
  _atom_site_fract_z
  _atom_site_occupancy
  Ca  Ca1       1.0  0.51200  0.55100  0.24900  1.0000
  Ca  Ca2       1.0  0.98800  0.05060  0.25100  1.0000
  Ca  Ca3       1.0  0.01160  0.94900  0.74900  1.0000
  Ca  Ca4       1.0  0.48800  0.44900  0.75100  1.0000
  Cr  Cr1       1.0  0.50000  0.00000  0.00000  1.0000
  Cr  Cr2       1.0  0.00000  0.50000  0.50000  1.0000
  O   O1        1.0  0.70200  0.29800  0.04830  1.0000
  O   O2        1.0  0.80100  0.79600  0.04970  1.0000
  O   O3        1.0  0.09440  0.47100  0.24900  1.0000
  O   O4        1.0  0.40600  0.97100  0.25100  1.0000
  O   O5        1.0  0.69900  0.29600  0.45000  1.0000
  O   O6        1.0  0.79800  0.79800  0.45200  1.0000
  O   O7        1.0  0.20200  0.20200  0.54800  1.0000
  O   O8        1.0  0.30100  0.70400  0.55000  1.0000
  O   O9        1.0  0.59400  0.02850  0.74900  1.0000
  O   O10       1.0  0.90600  0.52900  0.75100  1.0000
  O   O11       1.0  0.19900  0.20400  0.95000  1.0000
  O   O12       1.0  0.29800  0.70200  0.95200  1.0000
  Sb  Sb1       1.0  0.00000  0.50000  0.00000  1.0000
  Sb  Sb2       1.0  0.50000  0.00000  0.50000  1.0000
