data_image0
_chemical_formula_structural       Ca4Cr2O12Ta2
_chemical_formula_sum              "Ca4 Cr2 O12 Ta2"
_cell_length_a       5.40975
_cell_length_b       5.52808
_cell_length_c       7.70861
_cell_angle_alpha    90
_cell_angle_beta     89.8198
_cell_angle_gamma    90

_space_group_name_H-M_alt    "P 1"
_space_group_IT_number       1

loop_
  _space_group_symop_operation_xyz
  'x, y, z'

loop_
  _atom_site_type_symbol
  _atom_site_label
  _atom_site_symmetry_multiplicity
  _atom_site_fract_x
  _atom_site_fract_y
  _atom_site_fract_z
  _atom_site_occupancy
  Ca  Ca1       1.0  0.98900  0.95200  0.24800  1.0000
  Ca  Ca2       1.0  0.51100  0.45200  0.25200  1.0000
  Ca  Ca3       1.0  0.48900  0.54800  0.74800  1.0000
  Ca  Ca4       1.0  0.01100  0.04780  0.75200  1.0000
  Cr  Cr1       1.0  0.00000  0.50000  0.00000  1.0000
  Cr  Cr2       1.0  0.50000  0.00000  0.50000  1.0000
  O   O1        1.0  0.79500  0.20500  0.04530  1.0000
  O   O2        1.0  0.70300  0.70700  0.04820  1.0000
  O   O3        1.0  0.41100  0.02600  0.24900  1.0000
  O   O4        1.0  0.08950  0.52600  0.25100  1.0000
  O   O5        1.0  0.79700  0.20700  0.45200  1.0000
  O   O6        1.0  0.70500  0.70500  0.45500  1.0000
  O   O7        1.0  0.29500  0.29500  0.54500  1.0000
  O   O8        1.0  0.20300  0.79300  0.54800  1.0000
  O   O9        1.0  0.91100  0.47400  0.74900  1.0000
  O   O10       1.0  0.58900  0.97400  0.75100  1.0000
  O   O11       1.0  0.29700  0.29300  0.95200  1.0000
  O   O12       1.0  0.20500  0.79500  0.95500  1.0000
  Ta  Ta1       1.0  0.50000  0.00000  0.00000  1.0000
  Ta  Ta2       1.0  0.00000  0.50000  0.50000  1.0000
