data_image0
_chemical_formula_structural       Cu2In2P4S12
_chemical_formula_sum              "Cu2 In2 P4 S12"
_cell_length_a       6.12866
_cell_length_b       6.12904
_cell_length_c       13.567
_cell_angle_alpha    94.3776
_cell_angle_beta     98.7815
_cell_angle_gamma    60.002

_space_group_name_H-M_alt    "P 1"
_space_group_IT_number       1

loop_
  _space_group_symop_operation_xyz
  'x, y, z'

loop_
  _atom_site_type_symbol
  _atom_site_label
  _atom_site_symmetry_multiplicity
  _atom_site_fract_x
  _atom_site_fract_y
  _atom_site_fract_z
  _atom_site_occupancy
  Cu  Cu1       1.0  0.87500  0.67100  0.11700  1.0000
  Cu  Cu2       1.0  0.04560  0.32900  0.61700  1.0000
  In  In1       1.0  0.24800  0.00438  0.25200  1.0000
  In  In2       1.0  0.75200  0.99600  0.75200  1.0000
  P   P1        1.0  0.55100  0.33700  0.15200  1.0000
  P   P2        1.0  0.60400  0.33600  0.32000  1.0000
  P   P3        1.0  0.38800  0.66300  0.65200  1.0000
  P   P4        1.0  0.44000  0.66400  0.82000  1.0000
  S   S1        1.0  0.23200  0.30500  0.10600  1.0000
  S   S2        1.0  0.87200  0.03360  0.10600  1.0000
  S   S3        1.0  0.50600  0.67300  0.10800  1.0000
  S   S4        1.0  0.28800  0.64600  0.35800  1.0000
  S   S5        1.0  0.63300  0.00903  0.35900  1.0000
  S   S6        1.0  0.92900  0.35000  0.36200  1.0000
  S   S7        1.0  0.03670  0.69500  0.60600  1.0000
  S   S8        1.0  0.40600  0.96600  0.60600  1.0000
  S   S9        1.0  0.68000  0.32700  0.60800  1.0000
  S   S10       1.0  0.43500  0.35400  0.85800  1.0000
  S   S11       1.0  0.14200  0.99100  0.85900  1.0000
  S   S12       1.0  0.77900  0.65000  0.86200  1.0000
