data_image0
_chemical_formula_structural       Ce4Sb12V4
_chemical_formula_sum              "Ce4 Sb12 V4"
_cell_length_a       13.3839
_cell_length_b       6.33226
_cell_length_c       6.04349
_cell_angle_alpha    90
_cell_angle_beta     90
_cell_angle_gamma    90

_space_group_name_H-M_alt    "P 1"
_space_group_IT_number       1

loop_
  _space_group_symop_operation_xyz
  'x, y, z'

loop_
  _atom_site_type_symbol
  _atom_site_label
  _atom_site_symmetry_multiplicity
  _atom_site_fract_x
  _atom_site_fract_y
  _atom_site_fract_z
  _atom_site_occupancy
  Ce  Ce1       1.0  0.30900  0.00199  0.25000  1.0000
  Ce  Ce2       1.0  0.69100  0.50200  0.25000  1.0000
  Ce  Ce3       1.0  0.30900  0.49800  0.75000  1.0000
  Ce  Ce4       1.0  0.69100  0.99800  0.75000  1.0000
  Sb  Sb1       1.0  0.50100  0.25000  0.00000  1.0000
  Sb  Sb2       1.0  0.49900  0.75000  0.00000  1.0000
  Sb  Sb3       1.0  0.06410  0.10300  0.25000  1.0000
  Sb  Sb4       1.0  0.21400  0.49900  0.25000  1.0000
  Sb  Sb5       1.0  0.93600  0.60300  0.25000  1.0000
  Sb  Sb6       1.0  0.78600  0.99900  0.25000  1.0000
  Sb  Sb7       1.0  0.50100  0.25000  0.50000  1.0000
  Sb  Sb8       1.0  0.49900  0.75000  0.50000  1.0000
  Sb  Sb9       1.0  0.21400  0.00126  0.75000  1.0000
  Sb  Sb10      1.0  0.06410  0.39700  0.75000  1.0000
  Sb  Sb11      1.0  0.78600  0.50100  0.75000  1.0000
  Sb  Sb12      1.0  0.93600  0.89700  0.75000  1.0000
  V   V1        1.0  0.90800  0.25000  0.00000  1.0000
  V   V2        1.0  0.09220  0.75000  0.00000  1.0000
  V   V3        1.0  0.90800  0.25000  0.50000  1.0000
  V   V4        1.0  0.09220  0.75000  0.50000  1.0000
