data_image0
_chemical_formula_structural       Dy4Sb12V4
_chemical_formula_sum              "Dy4 Sb12 V4"
_cell_length_a       12.7419
_cell_length_b       6.29571
_cell_length_c       5.93721
_cell_angle_alpha    90
_cell_angle_beta     90
_cell_angle_gamma    90

_space_group_name_H-M_alt    "P 1"
_space_group_IT_number       1

loop_
  _space_group_symop_operation_xyz
  'x, y, z'

loop_
  _atom_site_type_symbol
  _atom_site_label
  _atom_site_symmetry_multiplicity
  _atom_site_fract_x
  _atom_site_fract_y
  _atom_site_fract_z
  _atom_site_occupancy
  Dy  Dy1       1.0  0.31200  0.00350  0.25000  1.0000
  Dy  Dy2       1.0  0.68800  0.50400  0.25000  1.0000
  Dy  Dy3       1.0  0.31200  0.49600  0.75000  1.0000
  Dy  Dy4       1.0  0.68800  0.99600  0.75000  1.0000
  Sb  Sb1       1.0  0.50200  0.25000  0.00000  1.0000
  Sb  Sb2       1.0  0.49800  0.75000  0.00000  1.0000
  Sb  Sb3       1.0  0.06620  0.10400  0.25000  1.0000
  Sb  Sb4       1.0  0.22700  0.49500  0.25000  1.0000
  Sb  Sb5       1.0  0.93400  0.60400  0.25000  1.0000
  Sb  Sb6       1.0  0.77300  0.99500  0.25000  1.0000
  Sb  Sb7       1.0  0.50200  0.25000  0.50000  1.0000
  Sb  Sb8       1.0  0.49800  0.75000  0.50000  1.0000
  Sb  Sb9       1.0  0.22700  0.00527  0.75000  1.0000
  Sb  Sb10      1.0  0.06620  0.39600  0.75000  1.0000
  Sb  Sb11      1.0  0.77300  0.50500  0.75000  1.0000
  Sb  Sb12      1.0  0.93400  0.89600  0.75000  1.0000
  V   V1        1.0  0.90000  0.25000  0.00000  1.0000
  V   V2        1.0  0.10000  0.75000  0.00000  1.0000
  V   V3        1.0  0.90000  0.25000  0.50000  1.0000
  V   V4        1.0  0.10000  0.75000  0.50000  1.0000
