data_image0
_chemical_formula_structural       Ca4Er2Nb2O12
_chemical_formula_sum              "Ca4 Er2 Nb2 O12"
_cell_length_a       5.5621
_cell_length_b       5.79392
_cell_length_c       8.01366
_cell_angle_alpha    90
_cell_angle_beta     90.0037
_cell_angle_gamma    90

_space_group_name_H-M_alt    "P 1"
_space_group_IT_number       1

loop_
  _space_group_symop_operation_xyz
  'x, y, z'

loop_
  _atom_site_type_symbol
  _atom_site_label
  _atom_site_symmetry_multiplicity
  _atom_site_fract_x
  _atom_site_fract_y
  _atom_site_fract_z
  _atom_site_occupancy
  Ca  Ca1       1.0  0.48500  0.94500  0.24600  1.0000
  Ca  Ca2       1.0  0.01470  0.44500  0.25400  1.0000
  Ca  Ca3       1.0  0.98500  0.55500  0.74600  1.0000
  Ca  Ca4       1.0  0.51500  0.05540  0.75400  1.0000
  Er  Er1       1.0  0.50000  0.50000  0.00000  1.0000
  Er  Er2       1.0  0.00000  0.00000  0.50000  1.0000
  Nb  Nb1       1.0  0.00000  0.00000  0.00000  1.0000
  Nb  Nb2       1.0  0.50000  0.50000  0.50000  1.0000
  O   O1        1.0  0.29400  0.18400  0.05560  1.0000
  O   O2        1.0  0.17900  0.71000  0.06620  1.0000
  O   O3        1.0  0.88500  0.04870  0.23700  1.0000
  O   O4        1.0  0.61500  0.54900  0.26300  1.0000
  O   O5        1.0  0.32100  0.21000  0.43400  1.0000
  O   O6        1.0  0.20600  0.68400  0.44400  1.0000
  O   O7        1.0  0.79400  0.31600  0.55600  1.0000
  O   O8        1.0  0.67900  0.79000  0.56600  1.0000
  O   O9        1.0  0.38500  0.45100  0.73700  1.0000
  O   O10       1.0  0.11500  0.95100  0.76300  1.0000
  O   O11       1.0  0.82100  0.29000  0.93400  1.0000
  O   O12       1.0  0.70600  0.81600  0.94400  1.0000
