data_image0
_chemical_formula_structural       Br4C4Cl4H8
_chemical_formula_sum              "Br4 C4 Cl4 H8"
_cell_length_a       4.49083
_cell_length_b       6.41944
_cell_length_c       14.189
_cell_angle_alpha    93.2215
_cell_angle_beta     99.1054
_cell_angle_gamma    69.5259

_space_group_name_H-M_alt    "P 1"
_space_group_IT_number       1

loop_
  _space_group_symop_operation_xyz
  'x, y, z'

loop_
  _atom_site_type_symbol
  _atom_site_label
  _atom_site_symmetry_multiplicity
  _atom_site_fract_x
  _atom_site_fract_y
  _atom_site_fract_z
  _atom_site_occupancy
  Br  Br1       1.0  0.41500  0.96100  0.13300  1.0000
  Br  Br2       1.0  0.24300  0.53900  0.36700  1.0000
  Br  Br3       1.0  0.75700  0.46100  0.63300  1.0000
  Br  Br4       1.0  0.58500  0.03890  0.86700  1.0000
  C   C1        1.0  0.77000  0.69400  0.10700  1.0000
  C   C2        1.0  0.35700  0.80600  0.39300  1.0000
  C   C3        1.0  0.64300  0.19400  0.60700  1.0000
  C   C4        1.0  0.23000  0.30600  0.89300  1.0000
  Cl  Cl1       1.0  0.71000  0.44600  0.13100  1.0000
  Cl  Cl2       1.0  0.02430  0.05420  0.36900  1.0000
  Cl  Cl3       1.0  0.97600  0.94600  0.63100  1.0000
  Cl  Cl4       1.0  0.29000  0.55400  0.86900  1.0000
  H   H1        1.0  0.78700  0.69900  0.03130  1.0000
  H   H2        1.0  0.98600  0.70100  0.15300  1.0000
  H   H3        1.0  0.53400  0.79900  0.34700  1.0000
  H   H4        1.0  0.45500  0.80100  0.46900  1.0000
  H   H5        1.0  0.54500  0.19900  0.53100  1.0000
  H   H6        1.0  0.46600  0.20100  0.65300  1.0000
  H   H7        1.0  0.01440  0.29900  0.84700  1.0000
  H   H8        1.0  0.21300  0.30100  0.96900  1.0000
