data_image0
_chemical_formula_structural       Be2Na4O8
_chemical_formula_sum              "Be2 Na4 O8"
_cell_length_a       6.03473
_cell_length_b       6.03473
_cell_length_c       6.03473
_cell_angle_alpha    119.993
_cell_angle_beta     90.0119
_cell_angle_gamma    119.993

_space_group_name_H-M_alt    "P 1"
_space_group_IT_number       1

loop_
  _space_group_symop_operation_xyz
  'x, y, z'

loop_
  _atom_site_type_symbol
  _atom_site_label
  _atom_site_symmetry_multiplicity
  _atom_site_fract_x
  _atom_site_fract_y
  _atom_site_fract_z
  _atom_site_occupancy
  Be  Be1       1.0  0.00000  0.00000  0.00000  1.0000
  Be  Be2       1.0  0.75000  0.50000  0.25000  1.0000
  Na  Na1       1.0  0.37500  0.75000  0.12500  1.0000
  Na  Na2       1.0  0.87500  0.25000  0.62500  1.0000
  Na  Na3       1.0  0.37500  0.75000  0.62500  1.0000
  Na  Na4       1.0  0.37500  0.25000  0.62500  1.0000
  O   O1        1.0  0.10700  0.21400  0.32100  1.0000
  O   O2        1.0  0.07120  0.71400  0.35700  1.0000
  O   O3        1.0  0.64300  0.28600  0.35700  1.0000
  O   O4        1.0  0.64300  0.71400  0.35700  1.0000
  O   O5        1.0  0.10700  0.78600  0.89300  1.0000
  O   O6        1.0  0.10700  0.21400  0.89300  1.0000
  O   O7        1.0  0.67900  0.78600  0.89300  1.0000
  O   O8        1.0  0.64300  0.28600  0.92900  1.0000
