data_image0
_chemical_formula_structural       Ca2Cu2Er4K2S10
_chemical_formula_sum              "Ca2 Cu2 Er4 K2 S10"
_cell_length_a       3.93587
_cell_length_b       7.0654
_cell_length_c       17.0795
_cell_angle_alpha    90
_cell_angle_beta     90
_cell_angle_gamma    73.8274

_space_group_name_H-M_alt    "P 1"
_space_group_IT_number       1

loop_
  _space_group_symop_operation_xyz
  'x, y, z'

loop_
  _atom_site_type_symbol
  _atom_site_label
  _atom_site_symmetry_multiplicity
  _atom_site_fract_x
  _atom_site_fract_y
  _atom_site_fract_z
  _atom_site_occupancy
  Ca  Ca1       1.0  0.00000  0.00000  0.00000  1.0000
  Ca  Ca2       1.0  0.00000  0.00000  0.50000  1.0000
  Cu  Cu1       1.0  0.79700  0.40600  0.25000  1.0000
  Cu  Cu2       1.0  0.20300  0.59400  0.75000  1.0000
  Er  Er1       1.0  0.27100  0.45900  0.10300  1.0000
  Er  Er2       1.0  0.27100  0.45900  0.39700  1.0000
  Er  Er3       1.0  0.72900  0.54100  0.60300  1.0000
  Er  Er4       1.0  0.72900  0.54100  0.89700  1.0000
  K   K1        1.0  0.52300  0.95400  0.25000  1.0000
  K   K2        1.0  0.47700  0.04590  0.75000  1.0000
  S   S1        1.0  0.64400  0.71300  0.04700  1.0000
  S   S2        1.0  0.89600  0.20800  0.13900  1.0000
  S   S3        1.0  0.20100  0.59900  0.25000  1.0000
  S   S4        1.0  0.89600  0.20800  0.36100  1.0000
  S   S5        1.0  0.64400  0.71300  0.45300  1.0000
  S   S6        1.0  0.35600  0.28700  0.54700  1.0000
  S   S7        1.0  0.10400  0.79200  0.63900  1.0000
  S   S8        1.0  0.79900  0.40100  0.75000  1.0000
  S   S9        1.0  0.10400  0.79200  0.86100  1.0000
  S   S10       1.0  0.35600  0.28700  0.95300  1.0000
