data_image0
_chemical_formula_structural       CuLa2O12Sr2Ti3
_chemical_formula_sum              "Cu1 La2 O12 Sr2 Ti3"
_cell_length_a       3.87316
_cell_length_b       3.87316
_cell_length_c       16.399
_cell_angle_alpha    90
_cell_angle_beta     90
_cell_angle_gamma    90

_space_group_name_H-M_alt    "P 1"
_space_group_IT_number       1

loop_
  _space_group_symop_operation_xyz
  'x, y, z'

loop_
  _atom_site_type_symbol
  _atom_site_label
  _atom_site_symmetry_multiplicity
  _atom_site_fract_x
  _atom_site_fract_y
  _atom_site_fract_z
  _atom_site_occupancy
  Cu  Cu1       1.0  0.00000  0.00000  0.00000  1.0000
  La  La1       1.0  0.50000  0.50000  0.37200  1.0000
  La  La2       1.0  0.50000  0.50000  0.62800  1.0000
  O   O1        1.0  0.50000  0.00000  0.00000  1.0000
  O   O2        1.0  0.00000  0.50000  0.00000  1.0000
  O   O3        1.0  0.00000  0.00000  0.14100  1.0000
  O   O4        1.0  0.50000  0.00000  0.27200  1.0000
  O   O5        1.0  0.00000  0.50000  0.27200  1.0000
  O   O6        1.0  0.00000  0.00000  0.38300  1.0000
  O   O7        1.0  0.50000  0.00000  0.50000  1.0000
  O   O8        1.0  0.00000  0.50000  0.50000  1.0000
  O   O9        1.0  0.00000  0.00000  0.61700  1.0000
  O   O10       1.0  0.50000  0.00000  0.72800  1.0000
  O   O11       1.0  0.00000  0.50000  0.72800  1.0000
  O   O12       1.0  0.00000  0.00000  0.85900  1.0000
  Sr  Sr1       1.0  0.50000  0.50000  0.10200  1.0000
  Sr  Sr2       1.0  0.50000  0.50000  0.89800  1.0000
  Ti  Ti1       1.0  0.00000  0.00000  0.25000  1.0000
  Ti  Ti2       1.0  0.00000  0.00000  0.50000  1.0000
  Ti  Ti3       1.0  0.00000  0.00000  0.75000  1.0000
