data_image0
_chemical_formula_structural       Ir2La4O12Zn2
_chemical_formula_sum              "Ir2 La4 O12 Zn2"
_cell_length_a       5.57476
_cell_length_b       5.71373
_cell_length_c       7.90168
_cell_angle_alpha    90
_cell_angle_beta     90.0559
_cell_angle_gamma    90

_space_group_name_H-M_alt    "P 1"
_space_group_IT_number       1

loop_
  _space_group_symop_operation_xyz
  'x, y, z'

loop_
  _atom_site_type_symbol
  _atom_site_label
  _atom_site_symmetry_multiplicity
  _atom_site_fract_x
  _atom_site_fract_y
  _atom_site_fract_z
  _atom_site_occupancy
  Ir  Ir1       1.0  0.00000  0.50000  0.00000  1.0000
  Ir  Ir2       1.0  0.50000  0.00000  0.50000  1.0000
  La  La1       1.0  0.51300  0.55500  0.24900  1.0000
  La  La2       1.0  0.98700  0.05470  0.25100  1.0000
  La  La3       1.0  0.01350  0.94500  0.74900  1.0000
  La  La4       1.0  0.48700  0.44500  0.75100  1.0000
  O   O1        1.0  0.80500  0.79100  0.05020  1.0000
  O   O2        1.0  0.70500  0.29900  0.05030  1.0000
  O   O3        1.0  0.09440  0.47600  0.24700  1.0000
  O   O4        1.0  0.40600  0.97600  0.25300  1.0000
  O   O5        1.0  0.79500  0.79900  0.45000  1.0000
  O   O6        1.0  0.69500  0.29100  0.45000  1.0000
  O   O7        1.0  0.30500  0.70900  0.55000  1.0000
  O   O8        1.0  0.20500  0.20100  0.55000  1.0000
  O   O9        1.0  0.59400  0.02370  0.74700  1.0000
  O   O10       1.0  0.90600  0.52400  0.75300  1.0000
  O   O11       1.0  0.29500  0.70100  0.95000  1.0000
  O   O12       1.0  0.19500  0.20900  0.95000  1.0000
  Zn  Zn1       1.0  0.50000  0.00000  1.00000  1.0000
  Zn  Zn2       1.0  0.00000  0.50000  0.50000  1.0000
