data_image0
_chemical_formula_structural       Mg2Nd4O12Sn2
_chemical_formula_sum              "Mg2 Nd4 O12 Sn2"
_cell_length_a       5.5263
_cell_length_b       5.74041
_cell_length_c       7.93997
_cell_angle_alpha    90
_cell_angle_beta     90.3108
_cell_angle_gamma    90

_space_group_name_H-M_alt    "P 1"
_space_group_IT_number       1

loop_
  _space_group_symop_operation_xyz
  'x, y, z'

loop_
  _atom_site_type_symbol
  _atom_site_label
  _atom_site_symmetry_multiplicity
  _atom_site_fract_x
  _atom_site_fract_y
  _atom_site_fract_z
  _atom_site_occupancy
  Mg  Mg1       1.0  0.00000  0.50000  0.00000  1.0000
  Mg  Mg2       1.0  0.50000  0.00000  0.50000  1.0000
  Nd  Nd1       1.0  0.01630  0.05640  0.25000  1.0000
  Nd  Nd2       1.0  0.48400  0.55600  0.25000  1.0000
  Nd  Nd3       1.0  0.51600  0.44400  0.75000  1.0000
  Nd  Nd4       1.0  0.98400  0.94400  0.75000  1.0000
  O   O1        1.0  0.20000  0.79900  0.05420  1.0000
  O   O2        1.0  0.30100  0.29800  0.05500  1.0000
  O   O3        1.0  0.89600  0.46500  0.25000  1.0000
  O   O4        1.0  0.60400  0.96500  0.25000  1.0000
  O   O5        1.0  0.19900  0.79800  0.44500  1.0000
  O   O6        1.0  0.30000  0.29900  0.44600  1.0000
  O   O7        1.0  0.70000  0.70100  0.55400  1.0000
  O   O8        1.0  0.80100  0.20200  0.55500  1.0000
  O   O9        1.0  0.39600  0.03520  0.75000  1.0000
  O   O10       1.0  0.10400  0.53500  0.75000  1.0000
  O   O11       1.0  0.69900  0.70200  0.94500  1.0000
  O   O12       1.0  0.80000  0.20100  0.94600  1.0000
  Sn  Sn1       1.0  0.50000  0.00000  0.00000  1.0000
  Sn  Sn2       1.0  0.00000  0.50000  0.50000  1.0000
