data_image0
_chemical_formula_structural       Ca4Mn2O12Re2
_chemical_formula_sum              "Ca4 Mn2 O12 Re2"
_cell_length_a       5.41553
_cell_length_b       5.654
_cell_length_c       7.75804
_cell_angle_alpha    90
_cell_angle_beta     90.2844
_cell_angle_gamma    90

_space_group_name_H-M_alt    "P 1"
_space_group_IT_number       1

loop_
  _space_group_symop_operation_xyz
  'x, y, z'

loop_
  _atom_site_type_symbol
  _atom_site_label
  _atom_site_symmetry_multiplicity
  _atom_site_fract_x
  _atom_site_fract_y
  _atom_site_fract_z
  _atom_site_occupancy
  Ca  Ca1       1.0  0.01650  0.06210  0.24800  1.0000
  Ca  Ca2       1.0  0.48400  0.56200  0.25200  1.0000
  Ca  Ca3       1.0  0.51600  0.43800  0.74800  1.0000
  Ca  Ca4       1.0  0.98400  0.93800  0.75200  1.0000
  Mn  Mn1       1.0  0.00000  0.50000  0.00000  1.0000
  Mn  Mn2       1.0  0.50000  0.00000  0.50000  1.0000
  O   O1        1.0  0.20800  0.81300  0.05070  1.0000
  O   O2        1.0  0.32000  0.28500  0.05970  1.0000
  O   O3        1.0  0.60600  0.96300  0.23800  1.0000
  O   O4        1.0  0.89400  0.46300  0.26200  1.0000
  O   O5        1.0  0.18000  0.78500  0.44000  1.0000
  O   O6        1.0  0.29200  0.31300  0.44900  1.0000
  O   O7        1.0  0.70800  0.68700  0.55100  1.0000
  O   O8        1.0  0.82000  0.21500  0.56000  1.0000
  O   O9        1.0  0.10600  0.53700  0.73800  1.0000
  O   O10       1.0  0.39400  0.03690  0.76200  1.0000
  O   O11       1.0  0.68000  0.71500  0.94000  1.0000
  O   O12       1.0  0.79200  0.18700  0.94900  1.0000
  Re  Re1       1.0  0.50000  0.00000  0.00000  1.0000
  Re  Re2       1.0  0.00000  0.50000  0.50000  1.0000
