data_image0
_chemical_formula_structural       La4Mg2O12Sn2
_chemical_formula_sum              "La4 Mg2 O12 Sn2"
_cell_length_a       5.6205
_cell_length_b       5.7337
_cell_length_c       8.01227
_cell_angle_alpha    90
_cell_angle_beta     90.1358
_cell_angle_gamma    90

_space_group_name_H-M_alt    "P 1"
_space_group_IT_number       1

loop_
  _space_group_symop_operation_xyz
  'x, y, z'

loop_
  _atom_site_type_symbol
  _atom_site_label
  _atom_site_symmetry_multiplicity
  _atom_site_fract_x
  _atom_site_fract_y
  _atom_site_fract_z
  _atom_site_occupancy
  La  La1       1.0  0.01150  0.04560  0.25000  1.0000
  La  La2       1.0  0.48800  0.54600  0.25000  1.0000
  La  La3       1.0  0.51200  0.45400  0.75000  1.0000
  La  La4       1.0  0.98800  0.95400  0.75000  1.0000
  Mg  Mg1       1.0  0.00000  0.50000  0.00000  1.0000
  Mg  Mg2       1.0  0.50000  0.00000  0.50000  1.0000
  O   O1        1.0  0.20400  0.79700  0.04940  1.0000
  O   O2        1.0  0.29700  0.29500  0.05020  1.0000
  O   O3        1.0  0.90600  0.47100  0.25000  1.0000
  O   O4        1.0  0.59400  0.97100  0.25000  1.0000
  O   O5        1.0  0.20300  0.79500  0.45000  1.0000
  O   O6        1.0  0.29600  0.29700  0.45100  1.0000
  O   O7        1.0  0.70400  0.70300  0.54900  1.0000
  O   O8        1.0  0.79700  0.20500  0.55000  1.0000
  O   O9        1.0  0.40600  0.02880  0.75000  1.0000
  O   O10       1.0  0.09390  0.52900  0.75000  1.0000
  O   O11       1.0  0.70300  0.70500  0.95000  1.0000
  O   O12       1.0  0.79600  0.20300  0.95100  1.0000
  Sn  Sn1       1.0  0.50000  0.00000  0.00000  1.0000
  Sn  Sn2       1.0  0.00000  0.50000  0.50000  1.0000
