data_image0
_chemical_formula_structural       Ca4Lu2O12Ru2
_chemical_formula_sum              "Ca4 Lu2 O12 Ru2"
_cell_length_a       5.50504
_cell_length_b       5.68124
_cell_length_c       7.903
_cell_angle_alpha    90
_cell_angle_beta     90.4625
_cell_angle_gamma    90

_space_group_name_H-M_alt    "P 1"
_space_group_IT_number       1

loop_
  _space_group_symop_operation_xyz
  'x, y, z'

loop_
  _atom_site_type_symbol
  _atom_site_label
  _atom_site_symmetry_multiplicity
  _atom_site_fract_x
  _atom_site_fract_y
  _atom_site_fract_z
  _atom_site_occupancy
  Ca  Ca1       1.0  0.51600  0.55600  0.25000  1.0000
  Ca  Ca2       1.0  0.98400  0.05590  0.25000  1.0000
  Ca  Ca3       1.0  0.01620  0.94400  0.75000  1.0000
  Ca  Ca4       1.0  0.48400  0.44400  0.75000  1.0000
  Lu  Lu1       1.0  0.00000  0.50000  0.00000  1.0000
  Lu  Lu2       1.0  0.50000  0.00000  0.50000  1.0000
  O   O1        1.0  0.78800  0.80900  0.05460  1.0000
  O   O2        1.0  0.68500  0.28700  0.05900  1.0000
  O   O3        1.0  0.39200  0.96100  0.23600  1.0000
  O   O4        1.0  0.10800  0.46100  0.26400  1.0000
  O   O5        1.0  0.81500  0.78700  0.44100  1.0000
  O   O6        1.0  0.71200  0.30900  0.44500  1.0000
  O   O7        1.0  0.28800  0.69100  0.55500  1.0000
  O   O8        1.0  0.18500  0.21300  0.55900  1.0000
  O   O9        1.0  0.89200  0.53900  0.73600  1.0000
  O   O10       1.0  0.60800  0.03870  0.76400  1.0000
  O   O11       1.0  0.31500  0.71300  0.94100  1.0000
  O   O12       1.0  0.21200  0.19100  0.94500  1.0000
  Ru  Ru1       1.0  0.50000  0.00000  0.00000  1.0000
  Ru  Ru2       1.0  0.00000  0.50000  0.50000  1.0000
