data_image0
_chemical_formula_structural       Mn7O12Pr
_chemical_formula_sum              "Mn7 O12 Pr1"
_cell_length_a       6.47701
_cell_length_b       6.47701
_cell_length_c       6.48271
_cell_angle_alpha    109.437
_cell_angle_beta     109.239
_cell_angle_gamma    109.702

_space_group_name_H-M_alt    "P 1"
_space_group_IT_number       1

loop_
  _space_group_symop_operation_xyz
  'x, y, z'

loop_
  _atom_site_type_symbol
  _atom_site_label
  _atom_site_symmetry_multiplicity
  _atom_site_fract_x
  _atom_site_fract_y
  _atom_site_fract_z
  _atom_site_occupancy
  Mn  Mn1       1.0  0.50000  1.00000  1.00000  1.0000
  Mn  Mn2       1.0  0.50000  0.50000  0.00000  1.0000
  Mn  Mn3       1.0  0.00000  0.50000  0.00000  1.0000
  Mn  Mn4       1.0  0.00000  0.50000  0.50000  1.0000
  Mn  Mn5       1.0  0.50000  0.00000  0.50000  1.0000
  Mn  Mn6       1.0  0.00000  0.00000  0.50000  1.0000
  Mn  Mn7       1.0  0.50000  0.50000  0.50000  1.0000
  O   O1        1.0  0.82200  0.30800  0.13000  1.0000
  O   O2        1.0  0.31200  0.48300  0.18100  1.0000
  O   O3        1.0  0.69800  0.86900  0.18100  1.0000
  O   O4        1.0  0.13100  0.82100  0.30400  1.0000
  O   O5        1.0  0.48300  0.17300  0.30400  1.0000
  O   O6        1.0  0.17300  0.30500  0.47700  1.0000
  O   O7        1.0  0.82700  0.69500  0.52300  1.0000
  O   O8        1.0  0.86900  0.17900  0.69600  1.0000
  O   O9        1.0  0.51700  0.82700  0.69600  1.0000
  O   O10       1.0  0.30200  0.13100  0.81900  1.0000
  O   O11       1.0  0.68800  0.51700  0.81900  1.0000
  O   O12       1.0  0.17800  0.69200  0.87000  1.0000
  Pr  Pr1       1.0  0.00000  0.00000  0.00000  1.0000
