data_image0
_chemical_formula_structural       As8Eu4Ga8
_chemical_formula_sum              "As8 Eu4 Ga8"
_cell_length_a       9.48907
_cell_length_b       4.06312
_cell_length_c       12.4526
_cell_angle_alpha    90
_cell_angle_beta     94.7257
_cell_angle_gamma    90

_space_group_name_H-M_alt    "P 1"
_space_group_IT_number       1

loop_
  _space_group_symop_operation_xyz
  'x, y, z'

loop_
  _atom_site_type_symbol
  _atom_site_label
  _atom_site_symmetry_multiplicity
  _atom_site_fract_x
  _atom_site_fract_y
  _atom_site_fract_z
  _atom_site_occupancy
  As  As1       1.0  0.23700  0.00000  0.02740  1.0000
  As  As2       1.0  0.95500  0.50000  0.24100  1.0000
  As  As3       1.0  0.44300  0.50000  0.25800  1.0000
  As  As4       1.0  0.73600  0.00000  0.47100  1.0000
  As  As5       1.0  0.26400  0.00000  0.52900  1.0000
  As  As6       1.0  0.55700  0.50000  0.74200  1.0000
  As  As7       1.0  0.04510  0.50000  0.75900  1.0000
  As  As8       1.0  0.76300  0.00000  0.97300  1.0000
  Eu  Eu1       1.0  0.00000  0.50000  0.00000  1.0000
  Eu  Eu2       1.0  0.20100  0.00000  0.27500  1.0000
  Eu  Eu3       1.0  0.50000  0.50000  0.50000  1.0000
  Eu  Eu4       1.0  0.79900  0.00000  0.72500  1.0000
  Ga  Ga1       1.0  0.39700  0.50000  0.05490  1.0000
  Ga  Ga2       1.0  0.80800  0.00000  0.17500  1.0000
  Ga  Ga3       1.0  0.60400  0.00000  0.28300  1.0000
  Ga  Ga4       1.0  0.89100  0.50000  0.43700  1.0000
  Ga  Ga5       1.0  0.10900  0.50000  0.56300  1.0000
  Ga  Ga6       1.0  0.39600  0.00000  0.71700  1.0000
  Ga  Ga7       1.0  0.19200  0.00000  0.82500  1.0000
  Ga  Ga8       1.0  0.60300  0.50000  0.94500  1.0000
