data_image0
_chemical_formula_structural       Lu4S6
_chemical_formula_sum              "Lu4 S6"
_cell_length_a       7.17826
_cell_length_b       7.17826
_cell_length_c       7.17825
_cell_angle_alpha    56.0308
_cell_angle_beta     56.0308
_cell_angle_gamma    56.0308

_space_group_name_H-M_alt    "P 1"
_space_group_IT_number       1

loop_
  _space_group_symop_operation_xyz
  'x, y, z'

loop_
  _atom_site_type_symbol
  _atom_site_label
  _atom_site_symmetry_multiplicity
  _atom_site_fract_x
  _atom_site_fract_y
  _atom_site_fract_z
  _atom_site_occupancy
  Lu  Lu1       1.0  0.15000  0.15000  0.15000  1.0000
  Lu  Lu2       1.0  0.35000  0.35000  0.35000  1.0000
  Lu  Lu3       1.0  0.65000  0.65000  0.65000  1.0000
  Lu  Lu4       1.0  0.85000  0.85000  0.85000  1.0000
  S   S1        1.0  0.75000  0.44700  0.05310  1.0000
  S   S2        1.0  0.55300  0.94700  0.25000  1.0000
  S   S3        1.0  0.05300  0.75000  0.44700  1.0000
  S   S4        1.0  0.94700  0.25000  0.55300  1.0000
  S   S5        1.0  0.44700  0.05300  0.75000  1.0000
  S   S6        1.0  0.25000  0.55300  0.94700  1.0000
