data_image0
_chemical_formula_structural       Ca4In2O12Sb2
_chemical_formula_sum              "Ca4 In2 O12 Sb2"
_cell_length_a       5.51711
_cell_length_b       5.72275
_cell_length_c       7.91478
_cell_angle_alpha    90
_cell_angle_beta     89.8552
_cell_angle_gamma    90

_space_group_name_H-M_alt    "P 1"
_space_group_IT_number       1

loop_
  _space_group_symop_operation_xyz
  'x, y, z'

loop_
  _atom_site_type_symbol
  _atom_site_label
  _atom_site_symmetry_multiplicity
  _atom_site_fract_x
  _atom_site_fract_y
  _atom_site_fract_z
  _atom_site_occupancy
  Ca  Ca1       1.0  0.48400  0.55700  0.24900  1.0000
  Ca  Ca2       1.0  0.01610  0.05700  0.25100  1.0000
  Ca  Ca3       1.0  0.98400  0.94300  0.74900  1.0000
  Ca  Ca4       1.0  0.51600  0.44300  0.75100  1.0000
  In  In1       1.0  0.50000  0.00000  0.00000  1.0000
  In  In2       1.0  0.00000  0.50000  0.50000  1.0000
  O   O1        1.0  0.29400  0.31100  0.05550  1.0000
  O   O2        1.0  0.18300  0.79000  0.06140  1.0000
  O   O3        1.0  0.88800  0.45500  0.23900  1.0000
  O   O4        1.0  0.61200  0.95500  0.26100  1.0000
  O   O5        1.0  0.31700  0.29000  0.43900  1.0000
  O   O6        1.0  0.20600  0.81100  0.44400  1.0000
  O   O7        1.0  0.79400  0.18900  0.55600  1.0000
  O   O8        1.0  0.68300  0.71000  0.56100  1.0000
  O   O9        1.0  0.38800  0.04460  0.73900  1.0000
  O   O10       1.0  0.11200  0.54500  0.76100  1.0000
  O   O11       1.0  0.81700  0.21000  0.93900  1.0000
  O   O12       1.0  0.70600  0.68900  0.94400  1.0000
  Sb  Sb1       1.0  0.00000  0.50000  0.00000  1.0000
  Sb  Sb2       1.0  0.50000  0.00000  0.50000  1.0000
