data_image0
_chemical_formula_structural       FeI12La6Na
_chemical_formula_sum              "Fe1 I12 La6 Na1"
_cell_length_a       10.1183
_cell_length_b       10.1183
_cell_length_c       10.1183
_cell_angle_alpha    107.118
_cell_angle_beta     107.118
_cell_angle_gamma    107.118

_space_group_name_H-M_alt    "P 1"
_space_group_IT_number       1

loop_
  _space_group_symop_operation_xyz
  'x, y, z'

loop_
  _atom_site_type_symbol
  _atom_site_label
  _atom_site_symmetry_multiplicity
  _atom_site_fract_x
  _atom_site_fract_y
  _atom_site_fract_z
  _atom_site_occupancy
  Fe  Fe1       1.0  0.00000  0.00000  0.00000  1.0000
  I   I1        1.0  0.68300  0.22700  0.07530  1.0000
  I   I2        1.0  0.38000  0.45900  0.15100  1.0000
  I   I3        1.0  0.07530  0.68300  0.22700  1.0000
  I   I4        1.0  0.77300  0.92500  0.31700  1.0000
  I   I5        1.0  0.45900  0.15100  0.38000  1.0000
  I   I6        1.0  0.15100  0.38000  0.45900  1.0000
  I   I7        1.0  0.84900  0.62000  0.54100  1.0000
  I   I8        1.0  0.54100  0.84900  0.62000  1.0000
  I   I9        1.0  0.22700  0.07530  0.68300  1.0000
  I   I10       1.0  0.92500  0.31700  0.77300  1.0000
  I   I11       1.0  0.62000  0.54100  0.84900  1.0000
  I   I12       1.0  0.31700  0.77300  0.92500  1.0000
  La  La1       1.0  0.30500  0.10300  0.03040  1.0000
  La  La2       1.0  0.03040  0.30500  0.10300  1.0000
  La  La3       1.0  0.10300  0.03040  0.30500  1.0000
  La  La4       1.0  0.89700  0.97000  0.69500  1.0000
  La  La5       1.0  0.97000  0.69500  0.89700  1.0000
  La  La6       1.0  0.69500  0.89700  0.97000  1.0000
  Na  Na1       1.0  0.50000  0.50000  0.50000  1.0000
