data_image0
_chemical_formula_structural       Bi4Br4Mn4Se8
_chemical_formula_sum              "Bi4 Br4 Mn4 Se8"
_cell_length_a       10.022
_cell_length_b       4.0479
_cell_length_c       13.0141
_cell_angle_alpha    90
_cell_angle_beta     90
_cell_angle_gamma    90

_space_group_name_H-M_alt    "P 1"
_space_group_IT_number       1

loop_
  _space_group_symop_operation_xyz
  'x, y, z'

loop_
  _atom_site_type_symbol
  _atom_site_label
  _atom_site_symmetry_multiplicity
  _atom_site_fract_x
  _atom_site_fract_y
  _atom_site_fract_z
  _atom_site_occupancy
  Bi  Bi1       1.0  0.30600  0.75000  0.03280  1.0000
  Bi  Bi2       1.0  0.80600  0.75000  0.46700  1.0000
  Bi  Bi3       1.0  0.19400  0.25000  0.53300  1.0000
  Bi  Bi4       1.0  0.69400  0.25000  0.96700  1.0000
  Br  Br1       1.0  0.93100  0.75000  0.11200  1.0000
  Br  Br2       1.0  0.43100  0.75000  0.38800  1.0000
  Br  Br3       1.0  0.56900  0.25000  0.61200  1.0000
  Br  Br4       1.0  0.06870  0.25000  0.88800  1.0000
  Mn  Mn1       1.0  0.99100  0.25000  0.24000  1.0000
  Mn  Mn2       1.0  0.49100  0.25000  0.26000  1.0000
  Mn  Mn3       1.0  0.50900  0.75000  0.74000  1.0000
  Mn  Mn4       1.0  0.00888  0.75000  0.76000  1.0000
  Se  Se1       1.0  0.55500  0.75000  0.12100  1.0000
  Se  Se2       1.0  0.24700  0.25000  0.17900  1.0000
  Se  Se3       1.0  0.74700  0.25000  0.32100  1.0000
  Se  Se4       1.0  0.05470  0.75000  0.37900  1.0000
  Se  Se5       1.0  0.94500  0.25000  0.62100  1.0000
  Se  Se6       1.0  0.25300  0.75000  0.67900  1.0000
  Se  Se7       1.0  0.75300  0.75000  0.82100  1.0000
  Se  Se8       1.0  0.44500  0.25000  0.87900  1.0000
