data_image0
_chemical_formula_structural       Nb6Ni2S12
_chemical_formula_sum              "Nb6 Ni2 S12"
_cell_length_a       5.80447
_cell_length_b       5.80447
_cell_length_c       11.8622
_cell_angle_alpha    90
_cell_angle_beta     90
_cell_angle_gamma    120

_space_group_name_H-M_alt    "P 1"
_space_group_IT_number       1

loop_
  _space_group_symop_operation_xyz
  'x, y, z'

loop_
  _atom_site_type_symbol
  _atom_site_label
  _atom_site_symmetry_multiplicity
  _atom_site_fract_x
  _atom_site_fract_y
  _atom_site_fract_z
  _atom_site_occupancy
  Nb  Nb1       1.0  0.00000  0.00000  0.00000  1.0000
  Nb  Nb2       1.0  0.66700  0.33300  0.00205  1.0000
  Nb  Nb3       1.0  0.66700  0.33300  0.49800  1.0000
  Nb  Nb4       1.0  0.00000  0.00000  0.50000  1.0000
  Nb  Nb5       1.0  0.33300  0.66700  0.50200  1.0000
  Nb  Nb6       1.0  0.33300  0.66700  0.99800  1.0000
  Ni  Ni1       1.0  0.33300  0.66700  0.25000  1.0000
  Ni  Ni2       1.0  0.66700  0.33300  0.75000  1.0000
  S   S1        1.0  0.33200  0.33200  0.13300  1.0000
  S   S2        1.0  0.00000  0.66800  0.13300  1.0000
  S   S3        1.0  0.66800  0.00039  0.13300  1.0000
  S   S4        1.0  0.33200  0.00037  0.36700  1.0000
  S   S5        1.0  0.66800  0.66800  0.36700  1.0000
  S   S6        1.0  0.00000  0.33200  0.36700  1.0000
  S   S7        1.0  0.33200  1.00000  0.63300  1.0000
  S   S8        1.0  0.66800  0.66800  0.63300  1.0000
  S   S9        1.0  0.00037  0.33200  0.63300  1.0000
  S   S10       1.0  0.00040  0.66800  0.86700  1.0000
  S   S11       1.0  0.66800  1.00000  0.86700  1.0000
  S   S12       1.0  0.33200  0.33200  0.86700  1.0000
