data_image0
_chemical_formula_structural       Cs4F12GaNa2Sc
_chemical_formula_sum              "Cs4 F12 Ga1 Na2 Sc1"
_cell_length_a       6.13409
_cell_length_b       6.13409
_cell_length_c       10.6121
_cell_angle_alpha    73.2011
_cell_angle_beta     106.799
_cell_angle_gamma    120

_space_group_name_H-M_alt    "P 1"
_space_group_IT_number       1

loop_
  _space_group_symop_operation_xyz
  'x, y, z'

loop_
  _atom_site_type_symbol
  _atom_site_label
  _atom_site_symmetry_multiplicity
  _atom_site_fract_x
  _atom_site_fract_y
  _atom_site_fract_z
  _atom_site_occupancy
  Cs  Cs1       1.0  0.71900  0.28100  0.15600  1.0000
  Cs  Cs2       1.0  0.12800  0.87200  0.38400  1.0000
  Cs  Cs3       1.0  0.87200  0.12800  0.61600  1.0000
  Cs  Cs4       1.0  0.28100  0.71900  0.84400  1.0000
  F   F1        1.0  0.19300  0.27100  0.11500  1.0000
  F   F2        1.0  0.72900  0.80700  0.11500  1.0000
  F   F3        1.0  0.19300  0.80700  0.11500  1.0000
  F   F4        1.0  0.17000  0.39200  0.38700  1.0000
  F   F5        1.0  0.60800  0.39200  0.38700  1.0000
  F   F6        1.0  0.60800  0.83000  0.38700  1.0000
  F   F7        1.0  0.39200  0.17000  0.61300  1.0000
  F   F8        1.0  0.83000  0.60800  0.61300  1.0000
  F   F9        1.0  0.39200  0.60800  0.61300  1.0000
  F   F10       1.0  0.27100  0.19300  0.88500  1.0000
  F   F11       1.0  0.80700  0.19300  0.88500  1.0000
  F   F12       1.0  0.80700  0.72900  0.88500  1.0000
  Ga  Ga1       1.0  0.50000  0.50000  0.50000  1.0000
  Na  Na1       1.0  0.40500  0.59500  0.21600  1.0000
  Na  Na2       1.0  0.59500  0.40500  0.78400  1.0000
  Sc  Sc1       1.0  0.00000  0.00000  0.00000  1.0000
