data_image0
_chemical_formula_structural       La4Mg2O12Pt2
_chemical_formula_sum              "La4 Mg2 O12 Pt2"
_cell_length_a       5.57957
_cell_length_b       5.63911
_cell_length_c       7.9026
_cell_angle_alpha    90
_cell_angle_beta     89.995
_cell_angle_gamma    90

_space_group_name_H-M_alt    "P 1"
_space_group_IT_number       1

loop_
  _space_group_symop_operation_xyz
  'x, y, z'

loop_
  _atom_site_type_symbol
  _atom_site_label
  _atom_site_symmetry_multiplicity
  _atom_site_fract_x
  _atom_site_fract_y
  _atom_site_fract_z
  _atom_site_occupancy
  La  La1       1.0  0.51000  0.54400  0.25000  1.0000
  La  La2       1.0  0.99000  0.04370  0.25000  1.0000
  La  La3       1.0  0.01020  0.95600  0.75000  1.0000
  La  La4       1.0  0.49000  0.45600  0.75000  1.0000
  Mg  Mg1       1.0  0.50000  0.00000  0.00000  1.0000
  Mg  Mg2       1.0  0.00000  0.50000  0.50000  1.0000
  O   O1        1.0  0.71000  0.29100  0.04660  1.0000
  O   O2        1.0  0.79200  0.78900  0.04690  1.0000
  O   O3        1.0  0.08660  0.47900  0.25000  1.0000
  O   O4        1.0  0.41300  0.97900  0.25000  1.0000
  O   O5        1.0  0.70800  0.28900  0.45300  1.0000
  O   O6        1.0  0.79000  0.79100  0.45300  1.0000
  O   O7        1.0  0.21000  0.20900  0.54700  1.0000
  O   O8        1.0  0.29200  0.71100  0.54700  1.0000
  O   O9        1.0  0.58700  0.02100  0.75000  1.0000
  O   O10       1.0  0.91300  0.52100  0.75000  1.0000
  O   O11       1.0  0.20800  0.21100  0.95300  1.0000
  O   O12       1.0  0.29000  0.70900  0.95300  1.0000
  Pt  Pt1       1.0  0.00000  0.50000  0.00000  1.0000
  Pt  Pt2       1.0  0.50000  0.00000  0.50000  1.0000
