data_image0
_chemical_formula_structural       CaCu3Fe4O12
_chemical_formula_sum              "Ca1 Cu3 Fe4 O12"
_cell_length_a       6.33253
_cell_length_b       6.33253
_cell_length_c       6.33253
_cell_angle_alpha    109.471
_cell_angle_beta     109.471
_cell_angle_gamma    109.471

_space_group_name_H-M_alt    "P 1"
_space_group_IT_number       1

loop_
  _space_group_symop_operation_xyz
  'x, y, z'

loop_
  _atom_site_type_symbol
  _atom_site_label
  _atom_site_symmetry_multiplicity
  _atom_site_fract_x
  _atom_site_fract_y
  _atom_site_fract_z
  _atom_site_occupancy
  Ca  Ca1       1.0  0.00000  0.00000  0.00000  1.0000
  Cu  Cu1       1.0  0.50000  0.50000  0.00000  1.0000
  Cu  Cu2       1.0  0.50000  0.00000  0.50000  1.0000
  Cu  Cu3       1.0  0.00000  0.50000  0.50000  1.0000
  Fe  Fe1       1.0  0.50000  0.00000  0.00000  1.0000
  Fe  Fe2       1.0  0.00000  0.50000  0.00000  1.0000
  Fe  Fe3       1.0  0.00000  0.00000  0.50000  1.0000
  Fe  Fe4       1.0  0.50000  0.50000  0.50000  1.0000
  O   O1        1.0  0.31100  0.82900  0.14100  1.0000
  O   O2        1.0  0.48200  0.31100  0.17100  1.0000
  O   O3        1.0  0.85900  0.68900  0.17100  1.0000
  O   O4        1.0  0.17100  0.48200  0.31100  1.0000
  O   O5        1.0  0.82900  0.14100  0.31100  1.0000
  O   O6        1.0  0.31100  0.17100  0.48200  1.0000
  O   O7        1.0  0.68900  0.82900  0.51800  1.0000
  O   O8        1.0  0.82900  0.51800  0.68900  1.0000
  O   O9        1.0  0.17100  0.85900  0.68900  1.0000
  O   O10       1.0  0.14100  0.31100  0.82900  1.0000
  O   O11       1.0  0.51800  0.68900  0.82900  1.0000
  O   O12       1.0  0.68900  0.17100  0.85900  1.0000
