data_image0
_chemical_formula_structural       Al2F12K2Li2Rb2
_chemical_formula_sum              "Al2 F12 K2 Li2 Rb2"
_cell_length_a       5.56337
_cell_length_b       5.56337
_cell_length_c       9.60474
_cell_angle_alpha    90
_cell_angle_beta     73.165
_cell_angle_gamma    120

_space_group_name_H-M_alt    "P 1"
_space_group_IT_number       1

loop_
  _space_group_symop_operation_xyz
  'x, y, z'

loop_
  _atom_site_type_symbol
  _atom_site_label
  _atom_site_symmetry_multiplicity
  _atom_site_fract_x
  _atom_site_fract_y
  _atom_site_fract_z
  _atom_site_occupancy
  Al  Al1       1.0  0.00000  0.00000  0.00000  1.0000
  Al  Al2       1.0  0.00000  0.50000  0.50000  1.0000
  F   F1        1.0  0.07740  0.27100  0.11600  1.0000
  F   F2        1.0  0.61300  0.80700  0.11600  1.0000
  F   F3        1.0  0.07740  0.80700  0.11600  1.0000
  F   F4        1.0  0.77700  0.38900  0.38200  1.0000
  F   F5        1.0  0.23000  0.38900  0.38200  1.0000
  F   F6        1.0  0.23000  0.84100  0.38200  1.0000
  F   F7        1.0  0.77000  0.15900  0.61800  1.0000
  F   F8        1.0  0.77000  0.61100  0.61800  1.0000
  F   F9        1.0  0.22300  0.61100  0.61800  1.0000
  F   F10       1.0  0.92300  0.19300  0.88400  1.0000
  F   F11       1.0  0.38700  0.19300  0.88400  1.0000
  F   F12       1.0  0.92300  0.72900  0.88400  1.0000
  K   K1        1.0  0.74500  0.87200  0.38300  1.0000
  K   K2        1.0  0.25500  0.12800  0.61700  1.0000
  Li  Li1       1.0  0.19300  0.59700  0.21000  1.0000
  Li  Li2       1.0  0.80700  0.40300  0.79000  1.0000
  Rb  Rb1       1.0  0.56600  0.28300  0.15100  1.0000
  Rb  Rb2       1.0  0.43400  0.71700  0.84900  1.0000
