data_image0
_chemical_formula_structural       Eu5O12Ru2
_chemical_formula_sum              "Eu5 O12 Ru2"
_cell_length_a       5.62232
_cell_length_b       6.99224
_cell_length_c       7.70756
_cell_angle_alpha    106.371
_cell_angle_beta     90
_cell_angle_gamma    113.706

_space_group_name_H-M_alt    "P 1"
_space_group_IT_number       1

loop_
  _space_group_symop_operation_xyz
  'x, y, z'

loop_
  _atom_site_type_symbol
  _atom_site_label
  _atom_site_symmetry_multiplicity
  _atom_site_fract_x
  _atom_site_fract_y
  _atom_site_fract_z
  _atom_site_occupancy
  Eu  Eu1       1.0  0.31600  0.63300  0.16900  1.0000
  Eu  Eu2       1.0  0.69400  0.38800  0.35300  1.0000
  Eu  Eu3       1.0  0.00000  0.00000  0.50000  1.0000
  Eu  Eu4       1.0  0.30600  0.61200  0.64700  1.0000
  Eu  Eu5       1.0  0.68400  0.36700  0.83100  1.0000
  O   O1        1.0  0.39000  0.30600  0.07230  1.0000
  O   O2        1.0  0.91600  0.30600  0.07230  1.0000
  O   O3        1.0  0.50300  0.00576  0.16500  1.0000
  O   O4        1.0  0.00316  0.00632  0.19600  1.0000
  O   O5        1.0  0.10800  0.69500  0.42500  1.0000
  O   O6        1.0  0.58700  0.69500  0.42500  1.0000
  O   O7        1.0  0.41300  0.30500  0.57500  1.0000
  O   O8        1.0  0.89200  0.30500  0.57500  1.0000
  O   O9        1.0  0.99700  0.99400  0.80400  1.0000
  O   O10       1.0  0.49700  0.99400  0.83500  1.0000
  O   O11       1.0  0.08410  0.69400  0.92800  1.0000
  O   O12       1.0  0.61000  0.69400  0.92800  1.0000
  Ru  Ru1       1.0  0.22400  0.00000  0.00000  1.0000
  Ru  Ru2       1.0  0.77600  0.00000  0.00000  1.0000
