data_image0
_chemical_formula_structural       Ag2S12Ti6
_chemical_formula_sum              "Ag2 S12 Ti6"
_cell_length_a       5.91508
_cell_length_b       5.91505
_cell_length_c       12.9137
_cell_angle_alpha    90.0006
_cell_angle_beta     89.9997
_cell_angle_gamma    120

_space_group_name_H-M_alt    "P 1"
_space_group_IT_number       1

loop_
  _space_group_symop_operation_xyz
  'x, y, z'

loop_
  _atom_site_type_symbol
  _atom_site_label
  _atom_site_symmetry_multiplicity
  _atom_site_fract_x
  _atom_site_fract_y
  _atom_site_fract_z
  _atom_site_occupancy
  Ag  Ag1       1.0  0.66700  0.33300  0.25000  1.0000
  Ag  Ag2       1.0  0.33300  0.66700  0.75000  1.0000
  S   S1        1.0  0.32900  0.99500  0.11100  1.0000
  S   S2        1.0  0.66600  0.67100  0.11100  1.0000
  S   S3        1.0  0.00521  0.33400  0.11100  1.0000
  S   S4        1.0  0.00521  0.67100  0.38900  1.0000
  S   S5        1.0  0.66600  0.99500  0.38900  1.0000
  S   S6        1.0  0.32900  0.33400  0.38900  1.0000
  S   S7        1.0  0.67100  0.66600  0.61100  1.0000
  S   S8        1.0  0.33400  0.00522  0.61100  1.0000
  S   S9        1.0  0.99500  0.32900  0.61100  1.0000
  S   S10       1.0  0.99500  0.66600  0.88900  1.0000
  S   S11       1.0  0.33400  0.32900  0.88900  1.0000
  S   S12       1.0  0.67100  0.00521  0.88900  1.0000
  Ti  Ti1       1.0  0.00000  0.00000  0.00000  1.0000
  Ti  Ti2       1.0  0.66700  0.33300  0.00000  1.0000
  Ti  Ti3       1.0  0.33300  0.66700  0.00000  1.0000
  Ti  Ti4       1.0  0.66700  0.33300  0.50000  1.0000
  Ti  Ti5       1.0  0.00000  0.00000  0.50000  1.0000
  Ti  Ti6       1.0  0.33300  0.66700  0.50000  1.0000
