data_image0
_chemical_formula_structural       B5H2O11Sr2
_chemical_formula_sum              "B5 H2 O11 Sr2"
_cell_length_a       6.3305
_cell_length_b       6.44609
_cell_length_c       6.44609
_cell_angle_alpha    103.169
_cell_angle_beta     118.619
_cell_angle_gamma    61.3809

_space_group_name_H-M_alt    "P 1"
_space_group_IT_number       1

loop_
  _space_group_symop_operation_xyz
  'x, y, z'

loop_
  _atom_site_type_symbol
  _atom_site_label
  _atom_site_symmetry_multiplicity
  _atom_site_fract_x
  _atom_site_fract_y
  _atom_site_fract_z
  _atom_site_occupancy
  B   B1        1.0  0.74400  0.24900  0.10200  1.0000
  B   B2        1.0  0.50400  0.66400  0.18900  1.0000
  B   B3        1.0  0.25600  0.10200  0.24900  1.0000
  B   B4        1.0  0.50000  0.34900  0.34900  1.0000
  B   B5        1.0  0.49600  0.18900  0.66400  1.0000
  H   H1        1.0  0.74500  0.70000  0.62600  1.0000
  H   H2        1.0  0.25500  0.62600  0.70000  1.0000
  O   O1        1.0  0.66600  0.50200  0.08530  1.0000
  O   O2        1.0  0.00000  0.09740  0.09740  1.0000
  O   O3        1.0  0.45100  0.89400  0.17100  1.0000
  O   O4        1.0  0.26000  0.31000  0.20000  1.0000
  O   O5        1.0  0.74000  0.20000  0.31000  1.0000
  O   O6        1.0  0.41700  0.60200  0.31300  1.0000
  O   O7        1.0  0.33400  0.08530  0.50200  1.0000
  O   O8        1.0  0.58300  0.31300  0.60200  1.0000
  O   O9        1.0  0.08300  0.75700  0.61500  1.0000
  O   O10       1.0  0.91700  0.61500  0.75700  1.0000
  O   O11       1.0  0.54900  0.17100  0.89400  1.0000
  Sr  Sr1       1.0  0.91500  0.75500  0.16200  1.0000
  Sr  Sr2       1.0  0.08540  0.16200  0.75500  1.0000
