data_image0
_chemical_formula_structural       Al2Ca4O12Ta2
_chemical_formula_sum              "Al2 Ca4 O12 Ta2"
_cell_length_a       5.36302
_cell_length_b       5.42241
_cell_length_c       7.61226
_cell_angle_alpha    90
_cell_angle_beta     89.8274
_cell_angle_gamma    90

_space_group_name_H-M_alt    "P 1"
_space_group_IT_number       1

loop_
  _space_group_symop_operation_xyz
  'x, y, z'

loop_
  _atom_site_type_symbol
  _atom_site_label
  _atom_site_symmetry_multiplicity
  _atom_site_fract_x
  _atom_site_fract_y
  _atom_site_fract_z
  _atom_site_occupancy
  Al  Al1       1.0  0.00000  0.50000  0.00000  1.0000
  Al  Al2       1.0  0.50000  0.00000  0.50000  1.0000
  Ca  Ca1       1.0  0.99200  0.96300  0.24900  1.0000
  Ca  Ca2       1.0  0.50800  0.46300  0.25100  1.0000
  Ca  Ca3       1.0  0.49200  0.53700  0.74900  1.0000
  Ca  Ca4       1.0  0.00845  0.03680  0.75100  1.0000
  O   O1        1.0  0.79300  0.21800  0.03930  1.0000
  O   O2        1.0  0.71800  0.70900  0.04010  1.0000
  O   O3        1.0  0.07580  0.51700  0.24500  1.0000
  O   O4        1.0  0.42400  0.01730  0.25500  1.0000
  O   O5        1.0  0.78200  0.20900  0.46000  1.0000
  O   O6        1.0  0.70700  0.71800  0.46100  1.0000
  O   O7        1.0  0.29300  0.28200  0.53900  1.0000
  O   O8        1.0  0.21800  0.79100  0.54000  1.0000
  O   O9        1.0  0.57600  0.98300  0.74500  1.0000
  O   O10       1.0  0.92400  0.48300  0.75500  1.0000
  O   O11       1.0  0.28200  0.29100  0.96000  1.0000
  O   O12       1.0  0.20700  0.78200  0.96100  1.0000
  Ta  Ta1       1.0  0.50000  0.00000  0.00000  1.0000
  Ta  Ta2       1.0  0.00000  0.50000  0.50000  1.0000
