data_image0
_chemical_formula_structural       La4Ni2O12Pt2
_chemical_formula_sum              "La4 Ni2 O12 Pt2"
_cell_length_a       5.56092
_cell_length_b       5.65294
_cell_length_c       7.87843
_cell_angle_alpha    90
_cell_angle_beta     90.133
_cell_angle_gamma    90

_space_group_name_H-M_alt    "P 1"
_space_group_IT_number       1

loop_
  _space_group_symop_operation_xyz
  'x, y, z'

loop_
  _atom_site_type_symbol
  _atom_site_label
  _atom_site_symmetry_multiplicity
  _atom_site_fract_x
  _atom_site_fract_y
  _atom_site_fract_z
  _atom_site_occupancy
  La  La1       1.0  0.51100  0.55000  0.24900  1.0000
  La  La2       1.0  0.98900  0.04980  0.25100  1.0000
  La  La3       1.0  0.01100  0.95000  0.74900  1.0000
  La  La4       1.0  0.48900  0.45000  0.75100  1.0000
  Ni  Ni1       1.0  0.50000  0.00000  0.00000  1.0000
  Ni  Ni2       1.0  0.00000  0.50000  0.50000  1.0000
  O   O1        1.0  0.70500  0.29400  0.04830  1.0000
  O   O2        1.0  0.79600  0.79300  0.04860  1.0000
  O   O3        1.0  0.40900  0.97900  0.25000  1.0000
  O   O4        1.0  0.09080  0.47900  0.25000  1.0000
  O   O5        1.0  0.70400  0.29300  0.45100  1.0000
  O   O6        1.0  0.79500  0.79400  0.45200  1.0000
  O   O7        1.0  0.20500  0.20600  0.54800  1.0000
  O   O8        1.0  0.29600  0.70700  0.54900  1.0000
  O   O9        1.0  0.90900  0.52100  0.75000  1.0000
  O   O10       1.0  0.59100  0.02130  0.75000  1.0000
  O   O11       1.0  0.20400  0.20700  0.95100  1.0000
  O   O12       1.0  0.29500  0.70600  0.95200  1.0000
  Pt  Pt1       1.0  0.00000  0.50000  0.00000  1.0000
  Pt  Pt2       1.0  0.50000  0.00000  0.50000  1.0000
