data_image0
_chemical_formula_structural       Mo4O16Pr2Rb2
_chemical_formula_sum              "Mo4 O16 Pr2 Rb2"
_cell_length_a       6.26676
_cell_length_b       6.28067
_cell_length_c       9.55999
_cell_angle_alpha    90
_cell_angle_beta     90
_cell_angle_gamma    90

_space_group_name_H-M_alt    "P 1"
_space_group_IT_number       1

loop_
  _space_group_symop_operation_xyz
  'x, y, z'

loop_
  _atom_site_type_symbol
  _atom_site_label
  _atom_site_symmetry_multiplicity
  _atom_site_fract_x
  _atom_site_fract_y
  _atom_site_fract_z
  _atom_site_occupancy
  Mo  Mo1       1.0  0.75000  0.25000  0.00100  1.0000
  Mo  Mo2       1.0  0.75000  0.25000  0.49900  1.0000
  Mo  Mo3       1.0  0.25000  0.75000  0.50100  1.0000
  Mo  Mo4       1.0  0.25000  0.75000  0.99900  1.0000
  O   O1        1.0  0.44300  0.62800  0.11100  1.0000
  O   O2        1.0  0.05740  0.87200  0.11100  1.0000
  O   O3        1.0  0.62600  0.05810  0.11300  1.0000
  O   O4        1.0  0.87400  0.44200  0.11300  1.0000
  O   O5        1.0  0.87400  0.05810  0.38700  1.0000
  O   O6        1.0  0.62600  0.44200  0.38700  1.0000
  O   O7        1.0  0.05740  0.62800  0.38900  1.0000
  O   O8        1.0  0.44300  0.87200  0.38900  1.0000
  O   O9        1.0  0.55700  0.12800  0.61100  1.0000
  O   O10       1.0  0.94300  0.37200  0.61100  1.0000
  O   O11       1.0  0.37400  0.55800  0.61300  1.0000
  O   O12       1.0  0.12600  0.94200  0.61300  1.0000
  O   O13       1.0  0.12600  0.55800  0.88700  1.0000
  O   O14       1.0  0.37400  0.94200  0.88700  1.0000
  O   O15       1.0  0.94300  0.12800  0.88900  1.0000
  O   O16       1.0  0.55700  0.37200  0.88900  1.0000
  Pr  Pr1       1.0  0.75000  0.75000  0.25000  1.0000
  Pr  Pr2       1.0  0.25000  0.25000  0.75000  1.0000
  Rb  Rb1       1.0  0.25000  0.25000  0.25000  1.0000
  Rb  Rb2       1.0  0.75000  0.75000  0.75000  1.0000
