data_image0
_chemical_formula_structural       AgO14P4Ru2
_chemical_formula_sum              "Ag1 O14 P4 Ru2"
_cell_length_a       4.77174
_cell_length_b       6.87989
_cell_length_c       8.00666
_cell_angle_alpha    90.2069
_cell_angle_beta     92.2758
_cell_angle_gamma    105.217

_space_group_name_H-M_alt    "P 1"
_space_group_IT_number       1

loop_
  _space_group_symop_operation_xyz
  'x, y, z'

loop_
  _atom_site_type_symbol
  _atom_site_label
  _atom_site_symmetry_multiplicity
  _atom_site_fract_x
  _atom_site_fract_y
  _atom_site_fract_z
  _atom_site_occupancy
  Ag  Ag1       1.0  0.50000  0.00000  0.00000  1.0000
  O   O1        1.0  0.64500  0.31700  0.10000  1.0000
  O   O2        1.0  0.96700  0.75800  0.11800  1.0000
  O   O3        1.0  0.23900  0.47100  0.19800  1.0000
  O   O4        1.0  0.69100  0.90900  0.30600  1.0000
  O   O5        1.0  0.35500  0.19200  0.35400  1.0000
  O   O6        1.0  0.71000  0.54000  0.35800  1.0000
  O   O7        1.0  0.13500  0.79800  0.43400  1.0000
  O   O8        1.0  0.86500  0.20200  0.56600  1.0000
  O   O9        1.0  0.29000  0.46000  0.64200  1.0000
  O   O10       1.0  0.64500  0.80800  0.64600  1.0000
  O   O11       1.0  0.30900  0.09130  0.69400  1.0000
  O   O12       1.0  0.76100  0.52900  0.80200  1.0000
  O   O13       1.0  0.03300  0.24200  0.88200  1.0000
  O   O14       1.0  0.35500  0.68300  0.90000  1.0000
  P   P1        1.0  0.48000  0.37400  0.24900  1.0000
  P   P2        1.0  0.88800  0.76400  0.30200  1.0000
  P   P3        1.0  0.11200  0.23600  0.69800  1.0000
  P   P4        1.0  0.52000  0.62600  0.75100  1.0000
  Ru  Ru1       1.0  0.00000  0.50000  0.00000  1.0000
  Ru  Ru2       1.0  0.50000  0.00000  0.50000  1.0000
