data_image0
_chemical_formula_structural       Eu4Ga8P8
_chemical_formula_sum              "Eu4 Ga8 P8"
_cell_length_a       9.25256
_cell_length_b       3.90644
_cell_length_c       12.0726
_cell_angle_alpha    90
_cell_angle_beta     95.1368
_cell_angle_gamma    90

_space_group_name_H-M_alt    "P 1"
_space_group_IT_number       1

loop_
  _space_group_symop_operation_xyz
  'x, y, z'

loop_
  _atom_site_type_symbol
  _atom_site_label
  _atom_site_symmetry_multiplicity
  _atom_site_fract_x
  _atom_site_fract_y
  _atom_site_fract_z
  _atom_site_occupancy
  Eu  Eu1       1.0  0.00000  0.50000  0.00000  1.0000
  Eu  Eu2       1.0  0.19500  0.00000  0.27900  1.0000
  Eu  Eu3       1.0  0.50000  0.50000  0.50000  1.0000
  Eu  Eu4       1.0  0.80500  0.00000  0.72100  1.0000
  Ga  Ga1       1.0  0.39400  0.50000  0.05660  1.0000
  Ga  Ga2       1.0  0.80400  0.00000  0.17200  1.0000
  Ga  Ga3       1.0  0.59600  0.00000  0.28100  1.0000
  Ga  Ga4       1.0  0.88700  0.50000  0.43400  1.0000
  Ga  Ga5       1.0  0.11300  0.50000  0.56600  1.0000
  Ga  Ga6       1.0  0.40400  0.00000  0.71900  1.0000
  Ga  Ga7       1.0  0.19600  0.00000  0.82800  1.0000
  Ga  Ga8       1.0  0.60600  0.50000  0.94300  1.0000
  P   P1        1.0  0.23700  0.00000  0.02880  1.0000
  P   P2        1.0  0.94800  0.50000  0.23900  1.0000
  P   P3        1.0  0.43900  0.50000  0.25800  1.0000
  P   P4        1.0  0.73400  0.00000  0.46500  1.0000
  P   P5        1.0  0.26600  0.00000  0.53500  1.0000
  P   P6        1.0  0.56100  0.50000  0.74200  1.0000
  P   P7        1.0  0.05240  0.50000  0.76100  1.0000
  P   P8        1.0  0.76300  0.00000  0.97100  1.0000
