data_image0
_chemical_formula_structural       Ba7BrClF12
_chemical_formula_sum              "Ba7 Br1 Cl1 F12"
_cell_length_a       10.58
_cell_length_b       10.58
_cell_length_c       4.14563
_cell_angle_alpha    90
_cell_angle_beta     90
_cell_angle_gamma    120

_space_group_name_H-M_alt    "P 1"
_space_group_IT_number       1

loop_
  _space_group_symop_operation_xyz
  'x, y, z'

loop_
  _atom_site_type_symbol
  _atom_site_label
  _atom_site_symmetry_multiplicity
  _atom_site_fract_x
  _atom_site_fract_y
  _atom_site_fract_z
  _atom_site_occupancy
  Ba  Ba1       1.0  0.00000  0.00000  0.00000  1.0000
  Ba  Ba2       1.0  0.41000  0.11000  0.00000  1.0000
  Ba  Ba3       1.0  0.89000  0.30000  0.00000  1.0000
  Ba  Ba4       1.0  0.70000  0.59000  0.00000  1.0000
  Ba  Ba5       1.0  0.28800  0.39800  0.50000  1.0000
  Ba  Ba6       1.0  0.11000  0.71200  0.50000  1.0000
  Ba  Ba7       1.0  0.60200  0.89000  0.50000  1.0000
  Br  Br1       1.0  0.33300  0.66700  0.00000  1.0000
  Cl  Cl1       1.0  0.66700  0.33300  0.50000  1.0000
  F   F1        1.0  0.63300  0.06490  0.00000  1.0000
  F   F2        1.0  0.12200  0.27600  0.00000  1.0000
  F   F3        1.0  0.43200  0.36700  0.00000  1.0000
  F   F4        1.0  0.93500  0.56800  0.00000  1.0000
  F   F5        1.0  0.72400  0.84600  0.00000  1.0000
  F   F6        1.0  0.15400  0.87800  0.00000  1.0000
  F   F7        1.0  0.88500  0.10200  0.50000  1.0000
  F   F8        1.0  0.21700  0.11500  0.50000  1.0000
  F   F9        1.0  0.05020  0.43700  0.50000  1.0000
  F   F10       1.0  0.56300  0.61300  0.50000  1.0000
  F   F11       1.0  0.89800  0.78300  0.50000  1.0000
  F   F12       1.0  0.38700  0.95000  0.50000  1.0000
