data_image0
_chemical_formula_structural       Ni4O12Tl4
_chemical_formula_sum              "Ni4 O12 Tl4"
_cell_length_a       5.23972
_cell_length_b       5.33411
_cell_length_c       7.50023
_cell_angle_alpha    90
_cell_angle_beta     90
_cell_angle_gamma    90

_space_group_name_H-M_alt    "P 1"
_space_group_IT_number       1

loop_
  _space_group_symop_operation_xyz
  'x, y, z'

loop_
  _atom_site_type_symbol
  _atom_site_label
  _atom_site_symmetry_multiplicity
  _atom_site_fract_x
  _atom_site_fract_y
  _atom_site_fract_z
  _atom_site_occupancy
  Ni  Ni1       1.0  0.50000  0.00000  0.00000  1.0000
  Ni  Ni2       1.0  0.00000  0.50000  0.00000  1.0000
  Ni  Ni3       1.0  0.00000  0.50000  0.50000  1.0000
  Ni  Ni4       1.0  0.50000  0.00000  0.50000  1.0000
  O   O1        1.0  0.70000  0.29700  0.05390  1.0000
  O   O2        1.0  0.20000  0.20300  0.94600  1.0000
  O   O3        1.0  0.80000  0.79700  0.44600  1.0000
  O   O4        1.0  0.30000  0.70300  0.55400  1.0000
  O   O5        1.0  0.30000  0.70300  0.94600  1.0000
  O   O6        1.0  0.80000  0.79700  0.05390  1.0000
  O   O7        1.0  0.20000  0.20300  0.55400  1.0000
  O   O8        1.0  0.70000  0.29700  0.44600  1.0000
  O   O9        1.0  0.10100  0.46100  0.25000  1.0000
  O   O10       1.0  0.60100  0.03900  0.75000  1.0000
  O   O11       1.0  0.39900  0.96100  0.25000  1.0000
  O   O12       1.0  0.89900  0.53900  0.75000  1.0000
  Tl  Tl1       1.0  0.98700  0.05020  0.25000  1.0000
  Tl  Tl2       1.0  0.48700  0.45000  0.75000  1.0000
  Tl  Tl3       1.0  0.51300  0.55000  0.25000  1.0000
  Tl  Tl4       1.0  0.01280  0.95000  0.75000  1.0000
