data_image0
_chemical_formula_structural       Eu6S14Sn4
_chemical_formula_sum              "Eu6 S14 Sn4"
_cell_length_a       11.3334
_cell_length_b       12.5826
_cell_length_c       3.93696
_cell_angle_alpha    90
_cell_angle_beta     90
_cell_angle_gamma    90

_space_group_name_H-M_alt    "P 1"
_space_group_IT_number       1

loop_
  _space_group_symop_operation_xyz
  'x, y, z'

loop_
  _atom_site_type_symbol
  _atom_site_label
  _atom_site_symmetry_multiplicity
  _atom_site_fract_x
  _atom_site_fract_y
  _atom_site_fract_z
  _atom_site_occupancy
  Eu  Eu1       1.0  0.50000  0.00000  0.00000  1.0000
  Eu  Eu2       1.0  0.11500  0.15000  0.00000  1.0000
  Eu  Eu3       1.0  0.61500  0.35000  0.00000  1.0000
  Eu  Eu4       1.0  0.00000  0.50000  0.00000  1.0000
  Eu  Eu5       1.0  0.38500  0.65000  0.00000  1.0000
  Eu  Eu6       1.0  0.88500  0.85000  0.00000  1.0000
  S   S1        1.0  0.85500  0.21000  0.00000  1.0000
  S   S2        1.0  0.35500  0.29000  0.00000  1.0000
  S   S3        1.0  0.64500  0.71000  0.00000  1.0000
  S   S4        1.0  0.14500  0.79000  0.00000  1.0000
  S   S5        1.0  0.00000  0.00000  0.50000  1.0000
  S   S6        1.0  0.29800  0.06980  0.50000  1.0000
  S   S7        1.0  0.57800  0.17900  0.50000  1.0000
  S   S8        1.0  0.07810  0.32100  0.50000  1.0000
  S   S9        1.0  0.79800  0.43000  0.50000  1.0000
  S   S10       1.0  0.50000  0.50000  0.50000  1.0000
  S   S11       1.0  0.20200  0.57000  0.50000  1.0000
  S   S12       1.0  0.92200  0.67900  0.50000  1.0000
  S   S13       1.0  0.42200  0.82100  0.50000  1.0000
  S   S14       1.0  0.70200  0.93000  0.50000  1.0000
  Sn  Sn1       1.0  0.78200  0.10800  0.50000  1.0000
  Sn  Sn2       1.0  0.28200  0.39200  0.50000  1.0000
  Sn  Sn3       1.0  0.71800  0.60800  0.50000  1.0000
  Sn  Sn4       1.0  0.21800  0.89200  0.50000  1.0000
