data_image0
_chemical_formula_structural       Li2Mn4O12Te2
_chemical_formula_sum              "Li2 Mn4 O12 Te2"
_cell_length_a       5.13074
_cell_length_b       8.5653
_cell_length_c       5.05108
_cell_angle_alpha    92.2999
_cell_angle_beta     92.1818
_cell_angle_gamma    89.7789

_space_group_name_H-M_alt    "P 1"
_space_group_IT_number       1

loop_
  _space_group_symop_operation_xyz
  'x, y, z'

loop_
  _atom_site_type_symbol
  _atom_site_label
  _atom_site_symmetry_multiplicity
  _atom_site_fract_x
  _atom_site_fract_y
  _atom_site_fract_z
  _atom_site_occupancy
  Li  Li1       1.0  0.62900  0.31300  0.93100  1.0000
  Li  Li2       1.0  0.04590  0.59500  0.96400  1.0000
  Mn  Mn1       1.0  0.03100  0.73900  0.47500  1.0000
  Mn  Mn2       1.0  0.49600  0.10600  0.47700  1.0000
  Mn  Mn3       1.0  0.00271  0.32000  0.48400  1.0000
  Mn  Mn4       1.0  0.52500  0.81400  0.98900  1.0000
  O   O1        1.0  0.21000  0.85300  0.18600  1.0000
  O   O2        1.0  0.71400  0.97900  0.20300  1.0000
  O   O3        1.0  0.15900  0.16900  0.22600  1.0000
  O   O4        1.0  0.68100  0.65400  0.28300  1.0000
  O   O5        1.0  0.18900  0.51400  0.28400  1.0000
  O   O6        1.0  0.67200  0.32700  0.29400  1.0000
  O   O7        1.0  0.33700  0.33700  0.67600  1.0000
  O   O8        1.0  0.81700  0.47700  0.72000  1.0000
  O   O9        1.0  0.35200  0.65700  0.73900  1.0000
  O   O10       1.0  0.29700  0.98600  0.75200  1.0000
  O   O11       1.0  0.83000  0.15200  0.75400  1.0000
  O   O12       1.0  0.84100  0.82400  0.79800  1.0000
  Te  Te1       1.0  0.50800  0.50700  0.48900  1.0000
  Te  Te2       1.0  0.01280  0.01160  0.98100  1.0000
