data_image0
_chemical_formula_structural       F4O12P4Sn4
_chemical_formula_sum              "F4 O12 P4 Sn4"
_cell_length_a       4.60114
_cell_length_b       12.3761
_cell_length_c       6.03129
_cell_angle_alpha    90
_cell_angle_beta     98.4387
_cell_angle_gamma    90

_space_group_name_H-M_alt    "P 1"
_space_group_IT_number       1

loop_
  _space_group_symop_operation_xyz
  'x, y, z'

loop_
  _atom_site_type_symbol
  _atom_site_label
  _atom_site_symmetry_multiplicity
  _atom_site_fract_x
  _atom_site_fract_y
  _atom_site_fract_z
  _atom_site_occupancy
  F   F1        1.0  0.48900  0.43200  0.15100  1.0000
  F   F2        1.0  0.51100  0.93200  0.34900  1.0000
  F   F3        1.0  0.48900  0.06830  0.65100  1.0000
  F   F4        1.0  0.51100  0.56800  0.84900  1.0000
  O   O1        1.0  0.76400  0.92700  0.01770  1.0000
  O   O2        1.0  0.32500  0.80200  0.04930  1.0000
  O   O3        1.0  0.19100  0.27400  0.19200  1.0000
  O   O4        1.0  0.80900  0.77400  0.30800  1.0000
  O   O5        1.0  0.67500  0.30200  0.45100  1.0000
  O   O6        1.0  0.23600  0.42700  0.48200  1.0000
  O   O7        1.0  0.76400  0.57300  0.51800  1.0000
  O   O8        1.0  0.32500  0.69800  0.54900  1.0000
  O   O9        1.0  0.19100  0.22600  0.69200  1.0000
  O   O10       1.0  0.80900  0.72600  0.80800  1.0000
  O   O11       1.0  0.67500  0.19800  0.95100  1.0000
  O   O12       1.0  0.23600  0.07260  0.98200  1.0000
  P   P1        1.0  0.61000  0.85300  0.16600  1.0000
  P   P2        1.0  0.39000  0.35300  0.33400  1.0000
  P   P3        1.0  0.61000  0.64700  0.66600  1.0000
  P   P4        1.0  0.39000  0.14700  0.83400  1.0000
  Sn  Sn1       1.0  0.95400  0.12500  0.23900  1.0000
  Sn  Sn2       1.0  0.04560  0.62500  0.26100  1.0000
  Sn  Sn3       1.0  0.95400  0.37500  0.73900  1.0000
  Sn  Sn4       1.0  0.04560  0.87500  0.76100  1.0000
