data_image0
_chemical_formula_structural       Ag3Bi7S12
_chemical_formula_sum              "Ag3 Bi7 S12"
_cell_length_a       4.06689
_cell_length_b       7.01999
_cell_length_c       20.2475
_cell_angle_alpha    95.0478
_cell_angle_beta     95.7639
_cell_angle_gamma    106.838

_space_group_name_H-M_alt    "P 1"
_space_group_IT_number       1

loop_
  _space_group_symop_operation_xyz
  'x, y, z'

loop_
  _atom_site_type_symbol
  _atom_site_label
  _atom_site_symmetry_multiplicity
  _atom_site_fract_x
  _atom_site_fract_y
  _atom_site_fract_z
  _atom_site_occupancy
  Ag  Ag1       1.0  0.00000  0.00000  0.00000  1.0000
  Ag  Ag2       1.0  0.71000  0.00634  0.41400  1.0000
  Ag  Ag3       1.0  0.29000  0.99400  0.58600  1.0000
  Bi  Bi1       1.0  0.32600  0.56300  0.08870  1.0000
  Bi  Bi2       1.0  0.15000  0.06760  0.23300  1.0000
  Bi  Bi3       1.0  0.94200  0.55600  0.32900  1.0000
  Bi  Bi4       1.0  0.50000  0.50000  0.50000  1.0000
  Bi  Bi5       1.0  0.05750  0.44400  0.67100  1.0000
  Bi  Bi6       1.0  0.85000  0.93200  0.76700  1.0000
  Bi  Bi7       1.0  0.67400  0.43700  0.91100  1.0000
  S   S1        1.0  0.66600  0.30400  0.02840  1.0000
  S   S2        1.0  0.98400  0.85700  0.11100  1.0000
  S   S3        1.0  0.76700  0.32900  0.20400  1.0000
  S   S4        1.0  0.56100  0.82900  0.29200  1.0000
  S   S5        1.0  0.33800  0.30800  0.36800  1.0000
  S   S6        1.0  0.11900  0.77000  0.46800  1.0000
  S   S7        1.0  0.88100  0.23000  0.53200  1.0000
  S   S8        1.0  0.66200  0.69200  0.63200  1.0000
  S   S9        1.0  0.43900  0.17100  0.70800  1.0000
  S   S10       1.0  0.23300  0.67100  0.79600  1.0000
  S   S11       1.0  0.01560  0.14300  0.88900  1.0000
  S   S12       1.0  0.33400  0.69600  0.97200  1.0000
