data_image0
_chemical_formula_structural       Li2Nb4O13Sr2
_chemical_formula_sum              "Li2 Nb4 O13 Sr2"
_cell_length_a       17.1738
_cell_length_b       3.97253
_cell_length_c       3.97253
_cell_angle_alpha    90
_cell_angle_beta     96.6415
_cell_angle_gamma    96.6415

_space_group_name_H-M_alt    "P 1"
_space_group_IT_number       1

loop_
  _space_group_symop_operation_xyz
  'x, y, z'

loop_
  _atom_site_type_symbol
  _atom_site_label
  _atom_site_symmetry_multiplicity
  _atom_site_fract_x
  _atom_site_fract_y
  _atom_site_fract_z
  _atom_site_occupancy
  Li  Li1       1.0  0.50000  0.75000  0.25000  1.0000
  Li  Li2       1.0  0.50000  0.25000  0.75000  1.0000
  Nb  Nb1       1.0  0.11300  0.05670  0.05670  1.0000
  Nb  Nb2       1.0  0.36000  0.18000  0.18000  1.0000
  Nb  Nb3       1.0  0.64000  0.82000  0.82000  1.0000
  Nb  Nb4       1.0  0.88700  0.94300  0.94300  1.0000
  O   O1        1.0  0.00000  0.00000  0.00000  1.0000
  O   O2        1.0  0.12600  0.56300  0.06310  1.0000
  O   O3        1.0  0.23600  0.11800  0.11800  1.0000
  O   O4        1.0  0.34800  0.67400  0.17400  1.0000
  O   O5        1.0  0.47200  0.23600  0.23600  1.0000
  O   O6        1.0  0.65200  0.82600  0.32600  1.0000
  O   O7        1.0  0.87400  0.93700  0.43700  1.0000
  O   O8        1.0  0.12600  0.06310  0.56300  1.0000
  O   O9        1.0  0.34800  0.17400  0.67400  1.0000
  O   O10       1.0  0.52800  0.76400  0.76400  1.0000
  O   O11       1.0  0.65200  0.32600  0.82600  1.0000
  O   O12       1.0  0.76400  0.88200  0.88200  1.0000
  O   O13       1.0  0.87400  0.43700  0.93700  1.0000
  Sr  Sr1       1.0  0.76500  0.38200  0.38200  1.0000
  Sr  Sr2       1.0  0.23500  0.61800  0.61800  1.0000
