data_image0
_chemical_formula_structural       K2Mg2Nb4O13
_chemical_formula_sum              "K2 Mg2 Nb4 O13"
_cell_length_a       3.90744
_cell_length_b       8.13051
_cell_length_c       9.49341
_cell_angle_alpha    98.8412
_cell_angle_beta     90
_cell_angle_gamma    103.904

_space_group_name_H-M_alt    "P 1"
_space_group_IT_number       1

loop_
  _space_group_symop_operation_xyz
  'x, y, z'

loop_
  _atom_site_type_symbol
  _atom_site_label
  _atom_site_symmetry_multiplicity
  _atom_site_fract_x
  _atom_site_fract_y
  _atom_site_fract_z
  _atom_site_occupancy
  K   K1        1.0  0.44600  0.89300  0.24900  1.0000
  K   K2        1.0  0.55400  0.10700  0.75100  1.0000
  Mg  Mg1       1.0  0.76300  0.52700  0.24000  1.0000
  Mg  Mg2       1.0  0.23700  0.47300  0.76000  1.0000
  Nb  Nb1       1.0  0.12200  0.24400  0.08030  1.0000
  Nb  Nb2       1.0  0.16100  0.32300  0.43100  1.0000
  Nb  Nb3       1.0  0.83900  0.67700  0.56900  1.0000
  Nb  Nb4       1.0  0.87800  0.75600  0.92000  1.0000
  O   O1        1.0  0.00000  0.00000  0.00000  1.0000
  O   O2        1.0  0.83400  0.66800  0.08530  1.0000
  O   O3        1.0  0.63100  0.26200  0.11500  1.0000
  O   O4        1.0  0.22900  0.45800  0.24200  1.0000
  O   O5        1.0  0.06360  0.12700  0.29800  1.0000
  O   O6        1.0  0.87200  0.74400  0.39200  1.0000
  O   O7        1.0  0.70000  0.40000  0.43200  1.0000
  O   O8        1.0  0.30000  0.60000  0.56800  1.0000
  O   O9        1.0  0.12800  0.25600  0.60800  1.0000
  O   O10       1.0  0.93600  0.87300  0.70200  1.0000
  O   O11       1.0  0.77100  0.54200  0.75800  1.0000
  O   O12       1.0  0.36900  0.73800  0.88500  1.0000
  O   O13       1.0  0.16600  0.33200  0.91500  1.0000
