data_image0
_chemical_formula_structural       Mn6Si4Te12
_chemical_formula_sum              "Mn6 Si4 Te12"
_cell_length_a       7.03143
_cell_length_b       7.03144
_cell_length_c       14.2182
_cell_angle_alpha    89.9996
_cell_angle_beta     90.0002
_cell_angle_gamma    120

_space_group_name_H-M_alt    "P 1"
_space_group_IT_number       1

loop_
  _space_group_symop_operation_xyz
  'x, y, z'

loop_
  _atom_site_type_symbol
  _atom_site_label
  _atom_site_symmetry_multiplicity
  _atom_site_fract_x
  _atom_site_fract_y
  _atom_site_fract_z
  _atom_site_occupancy
  Mn  Mn1       1.0  0.33300  0.66700  0.00145  1.0000
  Mn  Mn2       1.0  0.33300  0.66700  0.25000  1.0000
  Mn  Mn3       1.0  0.33300  0.66700  0.49900  1.0000
  Mn  Mn4       1.0  0.66700  0.33300  0.50100  1.0000
  Mn  Mn5       1.0  0.66700  0.33300  0.75000  1.0000
  Mn  Mn6       1.0  0.66700  0.33300  0.99900  1.0000
  Si  Si1       1.0  0.00000  0.00000  0.08220  1.0000
  Si  Si2       1.0  0.00000  0.00000  0.41800  1.0000
  Si  Si3       1.0  0.00000  0.00000  0.58200  1.0000
  Si  Si4       1.0  0.00000  0.00000  0.91800  1.0000
  Te  Te1       1.0  0.99900  0.64900  0.12700  1.0000
  Te  Te2       1.0  0.65100  0.00148  0.12700  1.0000
  Te  Te3       1.0  0.35100  0.34900  0.12700  1.0000
  Te  Te4       1.0  0.65100  0.64900  0.37300  1.0000
  Te  Te5       1.0  0.35100  0.00148  0.37300  1.0000
  Te  Te6       1.0  0.99900  0.34900  0.37300  1.0000
  Te  Te7       1.0  0.00146  0.65100  0.62700  1.0000
  Te  Te8       1.0  0.64900  0.99900  0.62700  1.0000
  Te  Te9       1.0  0.34900  0.35100  0.62700  1.0000
  Te  Te10      1.0  0.34900  0.99900  0.87300  1.0000
  Te  Te11      1.0  0.64900  0.65100  0.87300  1.0000
  Te  Te12      1.0  0.00146  0.35100  0.87300  1.0000
