data_image0
_chemical_formula_structural       La2Na2Ni2O12W2
_chemical_formula_sum              "La2 Na2 Ni2 O12 W2"
_cell_length_a       5.51384
_cell_length_b       5.48297
_cell_length_c       7.81404
_cell_angle_alpha    90
_cell_angle_beta     90.2603
_cell_angle_gamma    90

_space_group_name_H-M_alt    "P 1"
_space_group_IT_number       1

loop_
  _space_group_symop_operation_xyz
  'x, y, z'

loop_
  _atom_site_type_symbol
  _atom_site_label
  _atom_site_symmetry_multiplicity
  _atom_site_fract_x
  _atom_site_fract_y
  _atom_site_fract_z
  _atom_site_occupancy
  La  La1       1.0  0.74800  0.75000  0.50000  1.0000
  La  La2       1.0  0.25200  0.25000  0.50000  1.0000
  Na  Na1       1.0  0.76400  0.75000  0.00032  1.0000
  Na  Na2       1.0  0.23600  0.25000  1.00000  1.0000
  Ni  Ni1       1.0  0.74600  0.25000  0.24700  1.0000
  Ni  Ni2       1.0  0.25400  0.75000  0.75300  1.0000
  O   O1        1.0  0.33400  0.75000  0.00480  1.0000
  O   O2        1.0  0.00919  0.50400  0.21800  1.0000
  O   O3        1.0  0.00919  0.99600  0.21800  1.0000
  O   O4        1.0  0.49100  0.50700  0.30000  1.0000
  O   O5        1.0  0.49100  0.99300  0.30000  1.0000
  O   O6        1.0  0.17500  0.75000  0.49400  1.0000
  O   O7        1.0  0.82500  0.25000  0.50600  1.0000
  O   O8        1.0  0.50900  0.00748  0.70000  1.0000
  O   O9        1.0  0.50900  0.49300  0.70000  1.0000
  O   O10       1.0  0.99100  0.00406  0.78200  1.0000
  O   O11       1.0  0.99100  0.49600  0.78200  1.0000
  O   O12       1.0  0.66600  0.25000  0.99500  1.0000
  W   W1        1.0  0.24700  0.75000  0.23000  1.0000
  W   W2        1.0  0.75300  0.25000  0.77000  1.0000
