data_image0
_chemical_formula_structural       Cl16Cs4Ga4
_chemical_formula_sum              "Cl16 Cs4 Ga4"
_cell_length_a       11.7689
_cell_length_b       7.16131
_cell_length_c       9.46534
_cell_angle_alpha    90
_cell_angle_beta     90
_cell_angle_gamma    90

_space_group_name_H-M_alt    "P 1"
_space_group_IT_number       1

loop_
  _space_group_symop_operation_xyz
  'x, y, z'

loop_
  _atom_site_type_symbol
  _atom_site_label
  _atom_site_symmetry_multiplicity
  _atom_site_fract_x
  _atom_site_fract_y
  _atom_site_fract_z
  _atom_site_occupancy
  Cl  Cl1       1.0  0.28400  0.75000  0.04930  1.0000
  Cl  Cl2       1.0  0.59400  0.75000  0.08230  1.0000
  Cl  Cl3       1.0  0.91700  0.50200  0.17000  1.0000
  Cl  Cl4       1.0  0.91700  0.99800  0.17000  1.0000
  Cl  Cl5       1.0  0.41700  0.50200  0.33000  1.0000
  Cl  Cl6       1.0  0.41700  0.99800  0.33000  1.0000
  Cl  Cl7       1.0  0.09410  0.75000  0.41800  1.0000
  Cl  Cl8       1.0  0.78400  0.75000  0.45100  1.0000
  Cl  Cl9       1.0  0.21600  0.25000  0.54900  1.0000
  Cl  Cl10      1.0  0.90600  0.25000  0.58200  1.0000
  Cl  Cl11      1.0  0.58300  0.00246  0.67000  1.0000
  Cl  Cl12      1.0  0.58300  0.49800  0.67000  1.0000
  Cl  Cl13      1.0  0.08250  0.00246  0.83000  1.0000
  Cl  Cl14      1.0  0.08250  0.49800  0.83000  1.0000
  Cl  Cl15      1.0  0.40600  0.25000  0.91800  1.0000
  Cl  Cl16      1.0  0.71600  0.25000  0.95100  1.0000
  Cs  Cs1       1.0  0.18100  0.25000  0.16700  1.0000
  Cs  Cs2       1.0  0.68100  0.25000  0.33300  1.0000
  Cs  Cs3       1.0  0.31900  0.75000  0.66700  1.0000
  Cs  Cs4       1.0  0.81900  0.75000  0.83300  1.0000
  Ga  Ga1       1.0  0.43100  0.75000  0.19200  1.0000
  Ga  Ga2       1.0  0.93100  0.75000  0.30800  1.0000
  Ga  Ga3       1.0  0.06910  0.25000  0.69200  1.0000
  Ga  Ga4       1.0  0.56900  0.25000  0.80800  1.0000
