data_image0
_chemical_formula_structural       Be2O8Rb4
_chemical_formula_sum              "Be2 O8 Rb4"
_cell_length_a       6.95211
_cell_length_b       6.95211
_cell_length_c       6.95211
_cell_angle_alpha    120
_cell_angle_beta     90.0007
_cell_angle_gamma    120

_space_group_name_H-M_alt    "P 1"
_space_group_IT_number       1

loop_
  _space_group_symop_operation_xyz
  'x, y, z'

loop_
  _atom_site_type_symbol
  _atom_site_label
  _atom_site_symmetry_multiplicity
  _atom_site_fract_x
  _atom_site_fract_y
  _atom_site_fract_z
  _atom_site_occupancy
  Be  Be1       1.0  0.00000  0.00000  0.00000  1.0000
  Be  Be2       1.0  0.75000  0.50000  0.25000  1.0000
  O   O1        1.0  0.09250  0.18500  0.27700  1.0000
  O   O2        1.0  0.02740  0.68500  0.34200  1.0000
  O   O3        1.0  0.65800  0.31500  0.34200  1.0000
  O   O4        1.0  0.65800  0.68500  0.34200  1.0000
  O   O5        1.0  0.09250  0.81500  0.90800  1.0000
  O   O6        1.0  0.09250  0.18500  0.90800  1.0000
  O   O7        1.0  0.72300  0.81500  0.90800  1.0000
  O   O8        1.0  0.65800  0.31500  0.97300  1.0000
  Rb  Rb1       1.0  0.37500  0.75000  0.12500  1.0000
  Rb  Rb2       1.0  0.37500  0.75000  0.62500  1.0000
  Rb  Rb3       1.0  0.37500  0.25000  0.62500  1.0000
  Rb  Rb4       1.0  0.87500  0.25000  0.62500  1.0000
