data_image0
_chemical_formula_structural       Br4K4O16
_chemical_formula_sum              "Br4 K4 O16"
_cell_length_a       8.81652
_cell_length_b       5.80175
_cell_length_c       7.36679
_cell_angle_alpha    90
_cell_angle_beta     90
_cell_angle_gamma    90

_space_group_name_H-M_alt    "P 1"
_space_group_IT_number       1

loop_
  _space_group_symop_operation_xyz
  'x, y, z'

loop_
  _atom_site_type_symbol
  _atom_site_label
  _atom_site_symmetry_multiplicity
  _atom_site_fract_x
  _atom_site_fract_y
  _atom_site_fract_z
  _atom_site_occupancy
  Br  Br1       1.0  0.42900  0.75000  0.18500  1.0000
  Br  Br2       1.0  0.92900  0.75000  0.31500  1.0000
  Br  Br3       1.0  0.07070  0.25000  0.68500  1.0000
  Br  Br4       1.0  0.57100  0.25000  0.81500  1.0000
  K   K1        1.0  0.17700  0.25000  0.16300  1.0000
  K   K2        1.0  0.67700  0.25000  0.33700  1.0000
  K   K3        1.0  0.32300  0.75000  0.66300  1.0000
  K   K4        1.0  0.82300  0.75000  0.83700  1.0000
  O   O1        1.0  0.28500  0.75000  0.04290  1.0000
  O   O2        1.0  0.59100  0.75000  0.07510  1.0000
  O   O3        1.0  0.91900  0.52000  0.18400  1.0000
  O   O4        1.0  0.91900  0.98000  0.18400  1.0000
  O   O5        1.0  0.41900  0.52000  0.31600  1.0000
  O   O6        1.0  0.41900  0.98000  0.31600  1.0000
  O   O7        1.0  0.09120  0.75000  0.42500  1.0000
  O   O8        1.0  0.78500  0.75000  0.45700  1.0000
  O   O9        1.0  0.21500  0.25000  0.54300  1.0000
  O   O10       1.0  0.90900  0.25000  0.57500  1.0000
  O   O11       1.0  0.58100  0.01960  0.68400  1.0000
  O   O12       1.0  0.58100  0.48000  0.68400  1.0000
  O   O13       1.0  0.08140  0.01960  0.81600  1.0000
  O   O14       1.0  0.08140  0.48000  0.81600  1.0000
  O   O15       1.0  0.40900  0.25000  0.92500  1.0000
  O   O16       1.0  0.71500  0.25000  0.95700  1.0000
