data_image0
_chemical_formula_structural       B6K6O12
_chemical_formula_sum              "B6 K6 O12"
_cell_length_a       7.17265
_cell_length_b       7.71817
_cell_length_c       7.71817
_cell_angle_alpha    110.858
_cell_angle_beta     108.046
_cell_angle_gamma    108.046

_space_group_name_H-M_alt    "P 1"
_space_group_IT_number       1

loop_
  _space_group_symop_operation_xyz
  'x, y, z'

loop_
  _atom_site_type_symbol
  _atom_site_label
  _atom_site_symmetry_multiplicity
  _atom_site_fract_x
  _atom_site_fract_y
  _atom_site_fract_z
  _atom_site_occupancy
  B   B1        1.0  0.75000  0.88600  0.11400  1.0000
  B   B2        1.0  0.86400  0.22800  0.11400  1.0000
  B   B3        1.0  0.36400  0.11400  0.22800  1.0000
  B   B4        1.0  0.63600  0.88600  0.77200  1.0000
  B   B5        1.0  0.13600  0.77200  0.88600  1.0000
  B   B6        1.0  0.25000  0.11400  0.88600  1.0000
  K   K1        1.0  0.31100  0.56100  0.12200  1.0000
  K   K2        1.0  0.75000  0.56100  0.43900  1.0000
  K   K3        1.0  0.18900  0.87800  0.43900  1.0000
  K   K4        1.0  0.25000  0.43900  0.56100  1.0000
  K   K5        1.0  0.81100  0.12200  0.56100  1.0000
  K   K6        1.0  0.68900  0.43900  0.87800  1.0000
  O   O1        1.0  0.25000  0.89100  0.10900  1.0000
  O   O2        1.0  0.35900  0.21900  0.10900  1.0000
  O   O3        1.0  0.75000  0.78200  0.21800  1.0000
  O   O4        1.0  0.96800  0.43600  0.21800  1.0000
  O   O5        1.0  0.85900  0.10900  0.21900  1.0000
  O   O6        1.0  0.46800  0.21800  0.43600  1.0000
  O   O7        1.0  0.53200  0.78200  0.56400  1.0000
  O   O8        1.0  0.14100  0.89100  0.78100  1.0000
  O   O9        1.0  0.03210  0.56400  0.78200  1.0000
  O   O10       1.0  0.25000  0.21800  0.78200  1.0000
  O   O11       1.0  0.75000  0.10900  0.89100  1.0000
  O   O12       1.0  0.64100  0.78100  0.89100  1.0000
