data_image0
_chemical_formula_structural       Cu4O16Te4
_chemical_formula_sum              "Cu4 O16 Te4"
_cell_length_a       5.50514
_cell_length_b       10.3203
_cell_length_c       4.68205
_cell_angle_alpha    90
_cell_angle_beta     90.4343
_cell_angle_gamma    90

_space_group_name_H-M_alt    "P 1"
_space_group_IT_number       1

loop_
  _space_group_symop_operation_xyz
  'x, y, z'

loop_
  _atom_site_type_symbol
  _atom_site_label
  _atom_site_symmetry_multiplicity
  _atom_site_fract_x
  _atom_site_fract_y
  _atom_site_fract_z
  _atom_site_occupancy
  Cu  Cu1       1.0  0.00000  0.00000  0.00000  1.0000
  Cu  Cu2       1.0  0.00000  0.50000  0.00000  1.0000
  Cu  Cu3       1.0  0.50000  0.00000  0.50000  1.0000
  Cu  Cu4       1.0  0.50000  0.50000  0.50000  1.0000
  O   O1        1.0  0.73600  0.91000  0.17300  1.0000
  O   O2        1.0  0.27300  0.41700  0.20600  1.0000
  O   O3        1.0  0.95900  0.66900  0.22300  1.0000
  O   O4        1.0  0.45900  0.67800  0.23400  1.0000
  O   O5        1.0  0.04050  0.17800  0.26600  1.0000
  O   O6        1.0  0.54100  0.16900  0.27700  1.0000
  O   O7        1.0  0.22700  0.91700  0.29400  1.0000
  O   O8        1.0  0.76400  0.41000  0.32700  1.0000
  O   O9        1.0  0.23600  0.59000  0.67300  1.0000
  O   O10       1.0  0.77300  0.08270  0.70600  1.0000
  O   O11       1.0  0.45900  0.83100  0.72300  1.0000
  O   O12       1.0  0.95900  0.82200  0.73400  1.0000
  O   O13       1.0  0.54100  0.32200  0.76600  1.0000
  O   O14       1.0  0.04130  0.33100  0.77700  1.0000
  O   O15       1.0  0.72700  0.58300  0.79400  1.0000
  O   O16       1.0  0.26400  0.09040  0.82700  1.0000
  Te  Te1       1.0  0.30000  0.25100  0.02370  1.0000
  Te  Te2       1.0  0.20000  0.75100  0.47600  1.0000
  Te  Te3       1.0  0.80000  0.24900  0.52400  1.0000
  Te  Te4       1.0  0.70000  0.74900  0.97600  1.0000
