data_image0
_chemical_formula_structural       Ba2Fe2O13Ti4
_chemical_formula_sum              "Ba2 Fe2 O13 Ti4"
_cell_length_a       3.91018
_cell_length_b       7.81193
_cell_length_c       9.13343
_cell_angle_alpha    98.2429
_cell_angle_beta     90
_cell_angle_gamma    104.493

_space_group_name_H-M_alt    "P 1"
_space_group_IT_number       1

loop_
  _space_group_symop_operation_xyz
  'x, y, z'

loop_
  _atom_site_type_symbol
  _atom_site_label
  _atom_site_symmetry_multiplicity
  _atom_site_fract_x
  _atom_site_fract_y
  _atom_site_fract_z
  _atom_site_occupancy
  Ba  Ba1       1.0  0.44900  0.89900  0.22900  1.0000
  Ba  Ba2       1.0  0.55100  0.10100  0.77100  1.0000
  Fe  Fe1       1.0  0.75900  0.51800  0.23500  1.0000
  Fe  Fe2       1.0  0.24100  0.48200  0.76500  1.0000
  O   O1        1.0  0.00000  0.00000  0.00000  1.0000
  O   O2        1.0  0.83300  0.66700  0.08410  1.0000
  O   O3        1.0  0.63100  0.26100  0.11400  1.0000
  O   O4        1.0  0.23700  0.47400  0.24300  1.0000
  O   O5        1.0  0.06850  0.13700  0.29900  1.0000
  O   O6        1.0  0.87300  0.74700  0.38400  1.0000
  O   O7        1.0  0.70000  0.40000  0.43100  1.0000
  O   O8        1.0  0.30000  0.60000  0.56900  1.0000
  O   O9        1.0  0.12700  0.25300  0.61600  1.0000
  O   O10       1.0  0.93100  0.86300  0.70100  1.0000
  O   O11       1.0  0.76300  0.52600  0.75700  1.0000
  O   O12       1.0  0.36900  0.73900  0.88600  1.0000
  O   O13       1.0  0.16700  0.33300  0.91600  1.0000
  Ti  Ti1       1.0  0.12200  0.24400  0.09220  1.0000
  Ti  Ti2       1.0  0.16800  0.33600  0.43800  1.0000
  Ti  Ti3       1.0  0.83200  0.66400  0.56200  1.0000
  Ti  Ti4       1.0  0.87800  0.75600  0.90800  1.0000
