data_image0
_chemical_formula_structural       Ba3Cu6Ge3S12
_chemical_formula_sum              "Ba3 Cu6 Ge3 S12"
_cell_length_a       6.26973
_cell_length_b       6.26973
_cell_length_c       15.5879
_cell_angle_alpha    90
_cell_angle_beta     90
_cell_angle_gamma    120

_space_group_name_H-M_alt    "P 1"
_space_group_IT_number       1

loop_
  _space_group_symop_operation_xyz
  'x, y, z'

loop_
  _atom_site_type_symbol
  _atom_site_label
  _atom_site_symmetry_multiplicity
  _atom_site_fract_x
  _atom_site_fract_y
  _atom_site_fract_z
  _atom_site_occupancy
  Ba  Ba1       1.0  0.89900  0.66600  0.25100  1.0000
  Ba  Ba2       1.0  0.33400  0.23300  0.58400  1.0000
  Ba  Ba3       1.0  0.76700  0.10100  0.91700  1.0000
  Cu  Cu1       1.0  0.98200  0.73900  0.00699  1.0000
  Cu  Cu2       1.0  0.68400  0.09020  0.16100  1.0000
  Cu  Cu3       1.0  0.26100  0.24300  0.34000  1.0000
  Cu  Cu4       1.0  0.91000  0.59400  0.49400  1.0000
  Cu  Cu5       1.0  0.75700  0.01790  0.67400  1.0000
  Cu  Cu6       1.0  0.40600  0.31600  0.82800  1.0000
  Ge  Ge1       1.0  0.33300  0.37900  0.08400  1.0000
  Ge  Ge2       1.0  0.62100  0.95400  0.41700  1.0000
  Ge  Ge3       1.0  0.04560  0.66700  0.75100  1.0000
  S   S1        1.0  0.66600  0.76400  0.08200  1.0000
  S   S2        1.0  0.00077  0.43200  0.08610  1.0000
  S   S3        1.0  0.37700  0.18200  0.19800  1.0000
  S   S4        1.0  0.86300  0.15200  0.30300  1.0000
  S   S5        1.0  0.23600  0.90200  0.41500  1.0000
  S   S6        1.0  0.56800  0.56900  0.41900  1.0000
  S   S7        1.0  0.81800  0.19600  0.53200  1.0000
  S   S8        1.0  0.84800  0.71100  0.63600  1.0000
  S   S9        1.0  0.09800  0.33400  0.74900  1.0000
  S   S10       1.0  0.43100  0.99900  0.75300  1.0000
  S   S11       1.0  0.80400  0.62300  0.86500  1.0000
  S   S12       1.0  0.28900  0.13700  0.97000  1.0000
