data_image0
_chemical_formula_structural       Na4O12Te2Zn4
_chemical_formula_sum              "Na4 O12 Te2 Zn4"
_cell_length_a       5.2666
_cell_length_b       5.2666
_cell_length_c       11.3285
_cell_angle_alpha    89.9998
_cell_angle_beta     90.0002
_cell_angle_gamma    120

_space_group_name_H-M_alt    "P 1"
_space_group_IT_number       1

loop_
  _space_group_symop_operation_xyz
  'x, y, z'

loop_
  _atom_site_type_symbol
  _atom_site_label
  _atom_site_symmetry_multiplicity
  _atom_site_fract_x
  _atom_site_fract_y
  _atom_site_fract_z
  _atom_site_occupancy
  Na  Na1       1.0  0.66700  0.33300  0.01150  1.0000
  Na  Na2       1.0  0.66700  0.33300  0.48800  1.0000
  Na  Na3       1.0  0.33300  0.66700  0.51200  1.0000
  Na  Na4       1.0  0.33300  0.66700  0.98800  1.0000
  O   O1        1.0  0.02630  0.36200  0.15200  1.0000
  O   O2        1.0  0.63800  0.66400  0.15200  1.0000
  O   O3        1.0  0.33600  0.97400  0.15200  1.0000
  O   O4        1.0  0.63800  0.97400  0.34800  1.0000
  O   O5        1.0  0.02630  0.66400  0.34800  1.0000
  O   O6        1.0  0.33600  0.36200  0.34800  1.0000
  O   O7        1.0  0.36200  0.33600  0.65200  1.0000
  O   O8        1.0  0.66400  0.02630  0.65200  1.0000
  O   O9        1.0  0.97400  0.63800  0.65200  1.0000
  O   O10       1.0  0.97400  0.33600  0.84800  1.0000
  O   O11       1.0  0.66400  0.63800  0.84800  1.0000
  O   O12       1.0  0.36200  0.02630  0.84800  1.0000
  Te  Te1       1.0  0.33300  0.66700  0.25000  1.0000
  Te  Te2       1.0  0.66700  0.33300  0.75000  1.0000
  Zn  Zn1       1.0  0.66700  0.33300  0.25000  1.0000
  Zn  Zn2       1.0  0.00000  0.00000  0.25000  1.0000
  Zn  Zn3       1.0  0.33300  0.66700  0.75000  1.0000
  Zn  Zn4       1.0  0.00000  0.00000  0.75000  1.0000
