data_image0
_chemical_formula_structural       Ga8O14Sr2
_chemical_formula_sum              "Ga8 O14 Sr2"
_cell_length_a       5.70029
_cell_length_b       8.14084
_cell_length_c       8.14084
_cell_angle_alpha    68.7279
_cell_angle_beta     102.684
_cell_angle_gamma    102.684

_space_group_name_H-M_alt    "P 1"
_space_group_IT_number       1

loop_
  _space_group_symop_operation_xyz
  'x, y, z'

loop_
  _atom_site_type_symbol
  _atom_site_label
  _atom_site_symmetry_multiplicity
  _atom_site_fract_x
  _atom_site_fract_y
  _atom_site_fract_z
  _atom_site_occupancy
  Ga  Ga1       1.0  0.25700  0.18000  0.05910  1.0000
  Ga  Ga2       1.0  0.75700  0.05910  0.18000  1.0000
  Ga  Ga3       1.0  0.70000  0.42100  0.24300  1.0000
  Ga  Ga4       1.0  0.20000  0.24300  0.42100  1.0000
  Ga  Ga5       1.0  0.80000  0.75700  0.57900  1.0000
  Ga  Ga6       1.0  0.30000  0.57900  0.75700  1.0000
  Ga  Ga7       1.0  0.24300  0.94100  0.82000  1.0000
  Ga  Ga8       1.0  0.74300  0.82000  0.94100  1.0000
  O   O1        1.0  0.25000  0.96300  0.03670  1.0000
  O   O2        1.0  0.59400  0.25600  0.12000  1.0000
  O   O3        1.0  0.86000  0.63700  0.12100  1.0000
  O   O4        1.0  0.09410  0.12000  0.25600  1.0000
  O   O5        1.0  0.44000  0.43300  0.33500  1.0000
  O   O6        1.0  0.64000  0.87900  0.36300  1.0000
  O   O7        1.0  0.94000  0.33500  0.43300  1.0000
  O   O8        1.0  0.06010  0.66500  0.56700  1.0000
  O   O9        1.0  0.36000  0.12100  0.63700  1.0000
  O   O10       1.0  0.56000  0.56700  0.66500  1.0000
  O   O11       1.0  0.90600  0.88000  0.74400  1.0000
  O   O12       1.0  0.14000  0.36300  0.87900  1.0000
  O   O13       1.0  0.40600  0.74400  0.88000  1.0000
  O   O14       1.0  0.75000  0.03670  0.96300  1.0000
  Sr  Sr1       1.0  0.25000  0.68900  0.31100  1.0000
  Sr  Sr2       1.0  0.75000  0.31100  0.68900  1.0000
