data_image0
_chemical_formula_structural       Ca4O12Ru2Yb2
_chemical_formula_sum              "Ca4 O12 Ru2 Yb2"
_cell_length_a       5.47038
_cell_length_b       5.76986
_cell_length_c       7.87829
_cell_angle_alpha    90
_cell_angle_beta     90.2199
_cell_angle_gamma    90

_space_group_name_H-M_alt    "P 1"
_space_group_IT_number       1

loop_
  _space_group_symop_operation_xyz
  'x, y, z'

loop_
  _atom_site_type_symbol
  _atom_site_label
  _atom_site_symmetry_multiplicity
  _atom_site_fract_x
  _atom_site_fract_y
  _atom_site_fract_z
  _atom_site_occupancy
  Ca  Ca1       1.0  0.98000  0.06590  0.24700  1.0000
  Ca  Ca2       1.0  0.52000  0.56600  0.25300  1.0000
  Ca  Ca3       1.0  0.48000  0.43400  0.74700  1.0000
  Ca  Ca4       1.0  0.01990  0.93400  0.75300  1.0000
  O   O1        1.0  0.78700  0.82000  0.05640  1.0000
  O   O2        1.0  0.67000  0.28200  0.06770  1.0000
  O   O3        1.0  0.38300  0.95400  0.22900  1.0000
  O   O4        1.0  0.11700  0.45400  0.27100  1.0000
  O   O5        1.0  0.83000  0.78200  0.43200  1.0000
  O   O6        1.0  0.71300  0.32000  0.44400  1.0000
  O   O7        1.0  0.28700  0.68000  0.55600  1.0000
  O   O8        1.0  0.17000  0.21800  0.56800  1.0000
  O   O9        1.0  0.88300  0.54600  0.72900  1.0000
  O   O10       1.0  0.61700  0.04620  0.77100  1.0000
  O   O11       1.0  0.33000  0.71800  0.93200  1.0000
  O   O12       1.0  0.21300  0.18000  0.94400  1.0000
  Ru  Ru1       1.0  0.50000  0.00000  0.00000  1.0000
  Ru  Ru2       1.0  0.00000  0.50000  0.50000  1.0000
  Yb  Yb1       1.0  0.00000  0.50000  0.00000  1.0000
  Yb  Yb2       1.0  0.50000  0.00000  0.50000  1.0000
