data_image0
_chemical_formula_structural       Fe17N3Pr2
_chemical_formula_sum              "Fe17 N3 Pr2"
_cell_length_a       6.54989
_cell_length_b       6.54989
_cell_length_c       6.54989
_cell_angle_alpha    83.7444
_cell_angle_beta     96.2556
_cell_angle_gamma    96.2556

_space_group_name_H-M_alt    "P 1"
_space_group_IT_number       1

loop_
  _space_group_symop_operation_xyz
  'x, y, z'

loop_
  _atom_site_type_symbol
  _atom_site_label
  _atom_site_symmetry_multiplicity
  _atom_site_fract_x
  _atom_site_fract_y
  _atom_site_fract_z
  _atom_site_occupancy
  Fe  Fe1       1.0  0.50000  0.00000  0.00000  1.0000
  Fe  Fe2       1.0  0.28200  0.28200  0.00000  1.0000
  Fe  Fe3       1.0  0.00000  0.50000  0.00000  1.0000
  Fe  Fe4       1.0  0.71800  0.71800  0.00000  1.0000
  Fe  Fe5       1.0  0.90700  0.09350  0.09350  1.0000
  Fe  Fe6       1.0  0.34000  0.66000  0.14000  1.0000
  Fe  Fe7       1.0  0.00000  0.71800  0.28200  1.0000
  Fe  Fe8       1.0  0.28200  0.00000  0.28200  1.0000
  Fe  Fe9       1.0  0.14000  0.34000  0.34000  1.0000
  Fe  Fe10      1.0  0.66000  0.86000  0.34000  1.0000
  Fe  Fe11      1.0  0.00000  0.00000  0.50000  1.0000
  Fe  Fe12      1.0  0.34000  0.14000  0.66000  1.0000
  Fe  Fe13      1.0  0.86000  0.66000  0.66000  1.0000
  Fe  Fe14      1.0  0.00000  0.28200  0.71800  1.0000
  Fe  Fe15      1.0  0.71800  0.00000  0.71800  1.0000
  Fe  Fe16      1.0  0.66000  0.34000  0.86000  1.0000
  Fe  Fe17      1.0  0.09350  0.90700  0.90700  1.0000
  N   N1        1.0  0.50000  0.50000  0.00000  1.0000
  N   N2        1.0  0.00000  0.50000  0.50000  1.0000
  N   N3        1.0  0.50000  0.00000  0.50000  1.0000
  Pr  Pr1       1.0  0.65400  0.34600  0.34600  1.0000
  Pr  Pr2       1.0  0.34600  0.65400  0.65400  1.0000
