data_image0
_chemical_formula_structural       Ag12Au4Se8
_chemical_formula_sum              "Ag12 Au4 Se8"
_cell_length_a       8.68735
_cell_length_b       8.68735
_cell_length_c       8.68735
_cell_angle_alpha    109.471
_cell_angle_beta     109.471
_cell_angle_gamma    109.471

_space_group_name_H-M_alt    "P 1"
_space_group_IT_number       1

loop_
  _space_group_symop_operation_xyz
  'x, y, z'

loop_
  _atom_site_type_symbol
  _atom_site_label
  _atom_site_symmetry_multiplicity
  _atom_site_fract_x
  _atom_site_fract_y
  _atom_site_fract_z
  _atom_site_occupancy
  Ag  Ag1       1.0  0.25000  0.37900  0.12900  1.0000
  Ag  Ag2       1.0  0.37900  0.75000  0.12900  1.0000
  Ag  Ag3       1.0  0.62900  0.37900  0.25000  1.0000
  Ag  Ag4       1.0  0.12100  0.87100  0.25000  1.0000
  Ag  Ag5       1.0  0.75000  0.12100  0.37100  1.0000
  Ag  Ag6       1.0  0.12100  0.25000  0.37100  1.0000
  Ag  Ag7       1.0  0.87100  0.75000  0.62100  1.0000
  Ag  Ag8       1.0  0.25000  0.87100  0.62100  1.0000
  Ag  Ag9       1.0  0.37900  0.62900  0.75000  1.0000
  Ag  Ag10      1.0  0.87100  0.12100  0.75000  1.0000
  Ag  Ag11      1.0  0.62900  0.25000  0.87900  1.0000
  Ag  Ag12      1.0  0.75000  0.62900  0.87900  1.0000
  Au  Au1       1.0  0.75000  0.00000  0.00000  1.0000
  Au  Au2       1.0  0.00000  0.50000  0.25000  1.0000
  Au  Au3       1.0  0.75000  0.75000  0.25000  1.0000
  Au  Au4       1.0  0.50000  0.75000  0.50000  1.0000
  Se  Se1       1.0  0.03890  0.00000  0.00000  1.0000
  Se  Se2       1.0  0.46100  0.00000  0.00000  1.0000
  Se  Se3       1.0  0.50000  0.03890  0.50000  1.0000
  Se  Se4       1.0  0.50000  0.46100  0.50000  1.0000
  Se  Se5       1.0  0.03890  0.03890  0.53900  1.0000
  Se  Se6       1.0  0.00000  0.50000  0.53900  1.0000
  Se  Se7       1.0  0.00000  0.50000  0.96100  1.0000
  Se  Se8       1.0  0.46100  0.46100  0.96100  1.0000
