data_image0
_chemical_formula_structural       Cs21O3
_chemical_formula_sum              "Cs21 O3"
_cell_length_a       16.1806
_cell_length_b       16.1804
_cell_length_c       9.11781
_cell_angle_alpha    90
_cell_angle_beta     90
_cell_angle_gamma    119.999

_space_group_name_H-M_alt    "P 1"
_space_group_IT_number       1

loop_
  _space_group_symop_operation_xyz
  'x, y, z'

loop_
  _atom_site_type_symbol
  _atom_site_label
  _atom_site_symmetry_multiplicity
  _atom_site_fract_x
  _atom_site_fract_y
  _atom_site_fract_z
  _atom_site_occupancy
  Cs  Cs1       1.0  0.00000  0.00000  0.00000  1.0000
  Cs  Cs2       1.0  0.54800  0.09700  0.00000  1.0000
  Cs  Cs3       1.0  0.21600  0.43100  0.00000  1.0000
  Cs  Cs4       1.0  0.90300  0.45100  0.00000  1.0000
  Cs  Cs5       1.0  0.54800  0.45200  0.00000  1.0000
  Cs  Cs6       1.0  0.21600  0.78400  0.00000  1.0000
  Cs  Cs7       1.0  0.56900  0.78400  0.00000  1.0000
  Cs  Cs8       1.0  0.66700  0.33300  0.20900  1.0000
  Cs  Cs9       1.0  0.81600  0.18400  0.22400  1.0000
  Cs  Cs10      1.0  0.81600  0.63100  0.22400  1.0000
  Cs  Cs11      1.0  0.36900  0.18400  0.22400  1.0000
  Cs  Cs12      1.0  0.11200  0.22500  0.50000  1.0000
  Cs  Cs13      1.0  0.44900  0.55100  0.50000  1.0000
  Cs  Cs14      1.0  0.10200  0.55100  0.50000  1.0000
  Cs  Cs15      1.0  0.11200  0.88800  0.50000  1.0000
  Cs  Cs16      1.0  0.77500  0.88800  0.50000  1.0000
  Cs  Cs17      1.0  0.44900  0.89800  0.50000  1.0000
  Cs  Cs18      1.0  0.36900  0.18400  0.77600  1.0000
  Cs  Cs19      1.0  0.81600  0.18400  0.77600  1.0000
  Cs  Cs20      1.0  0.81600  0.63100  0.77600  1.0000
  Cs  Cs21      1.0  0.66700  0.33300  0.79100  1.0000
  O   O1        1.0  0.75000  0.25000  0.00000  1.0000
  O   O2        1.0  0.50000  0.25000  0.00000  1.0000
  O   O3        1.0  0.75000  0.50000  0.00000  1.0000
