data_image0
_chemical_formula_structural       Sb10Zn12
_chemical_formula_sum              "Sb10 Zn12"
_cell_length_a       8.19703
_cell_length_b       8.19703
_cell_length_c       8.19073
_cell_angle_alpha    97.17
_cell_angle_beta     97.17
_cell_angle_gamma    97.0636

_space_group_name_H-M_alt    "P 1"
_space_group_IT_number       1

loop_
  _space_group_symop_operation_xyz
  'x, y, z'

loop_
  _atom_site_type_symbol
  _atom_site_label
  _atom_site_symmetry_multiplicity
  _atom_site_fract_x
  _atom_site_fract_y
  _atom_site_fract_z
  _atom_site_occupancy
  Sb  Sb1       1.0  0.75000  0.89300  0.10600  1.0000
  Sb  Sb2       1.0  0.13500  0.63500  0.13500  1.0000
  Sb  Sb3       1.0  0.60700  0.39300  0.25000  1.0000
  Sb  Sb4       1.0  0.36500  0.86500  0.36500  1.0000
  Sb  Sb5       1.0  0.10700  0.25000  0.39400  1.0000
  Sb  Sb6       1.0  0.89300  0.75000  0.60600  1.0000
  Sb  Sb7       1.0  0.63500  0.13500  0.63500  1.0000
  Sb  Sb8       1.0  0.39300  0.60700  0.75000  1.0000
  Sb  Sb9       1.0  0.86500  0.36500  0.86500  1.0000
  Sb  Sb10      1.0  0.25000  0.10700  0.89400  1.0000
  Zn  Zn1       1.0  0.34100  0.43600  0.01700  1.0000
  Zn  Zn2       1.0  0.98300  0.15900  0.06480  1.0000
  Zn  Zn3       1.0  0.48300  0.06430  0.15900  1.0000
  Zn  Zn4       1.0  0.93600  0.51700  0.34100  1.0000
  Zn  Zn5       1.0  0.84100  0.01660  0.43500  1.0000
  Zn  Zn6       1.0  0.56400  0.65900  0.48300  1.0000
  Zn  Zn7       1.0  0.43600  0.34100  0.51700  1.0000
  Zn  Zn8       1.0  0.15900  0.98300  0.56500  1.0000
  Zn  Zn9       1.0  0.06430  0.48300  0.65900  1.0000
  Zn  Zn10      1.0  0.51700  0.93600  0.84100  1.0000
  Zn  Zn11      1.0  0.01660  0.84100  0.93500  1.0000
  Zn  Zn12      1.0  0.65900  0.56400  0.98300  1.0000
