data_image0
_chemical_formula_structural       Cs2Ir4O8
_chemical_formula_sum              "Cs2 Ir4 O8"
_cell_length_a       6.64733
_cell_length_b       6.64733
_cell_length_c       6.64733
_cell_angle_alpha    119.991
_cell_angle_beta     90.0163
_cell_angle_gamma    119.991

_space_group_name_H-M_alt    "P 1"
_space_group_IT_number       1

loop_
  _space_group_symop_operation_xyz
  'x, y, z'

loop_
  _atom_site_type_symbol
  _atom_site_label
  _atom_site_symmetry_multiplicity
  _atom_site_fract_x
  _atom_site_fract_y
  _atom_site_fract_z
  _atom_site_occupancy
  Cs  Cs1       1.0  0.00000  0.00000  0.00000  1.0000
  Cs  Cs2       1.0  0.75000  0.50000  0.25000  1.0000
  Ir  Ir1       1.0  0.37500  0.75000  0.12500  1.0000
  Ir  Ir2       1.0  0.87500  0.25000  0.62500  1.0000
  Ir  Ir3       1.0  0.37500  0.25000  0.62500  1.0000
  Ir  Ir4       1.0  0.37500  0.75000  0.62500  1.0000
  O   O1        1.0  0.59200  0.18300  0.40800  1.0000
  O   O2        1.0  0.22500  0.81700  0.40800  1.0000
  O   O3        1.0  0.59200  0.81700  0.40800  1.0000
  O   O4        1.0  0.15800  0.31700  0.47500  1.0000
  O   O5        1.0  0.59200  0.18300  0.77500  1.0000
  O   O6        1.0  0.15800  0.68300  0.84200  1.0000
  O   O7        1.0  0.15800  0.31700  0.84200  1.0000
  O   O8        1.0  0.52500  0.68300  0.84200  1.0000
