data_image0
_chemical_formula_structural       Cl16Ga8
_chemical_formula_sum              "Cl16 Ga8"
_cell_length_a       7.18419
_cell_length_b       9.64056
_cell_length_c       9.55943
_cell_angle_alpha    90
_cell_angle_beta     90
_cell_angle_gamma    90

_space_group_name_H-M_alt    "P 1"
_space_group_IT_number       1

loop_
  _space_group_symop_operation_xyz
  'x, y, z'

loop_
  _atom_site_type_symbol
  _atom_site_label
  _atom_site_symmetry_multiplicity
  _atom_site_fract_x
  _atom_site_fract_y
  _atom_site_fract_z
  _atom_site_occupancy
  Cl  Cl1       1.0  0.33900  0.17800  0.05310  1.0000
  Cl  Cl2       1.0  0.16100  0.82200  0.05310  1.0000
  Cl  Cl3       1.0  0.00612  0.45600  0.18500  1.0000
  Cl  Cl4       1.0  0.49400  0.54400  0.18500  1.0000
  Cl  Cl5       1.0  0.00612  0.04440  0.31500  1.0000
  Cl  Cl6       1.0  0.49400  0.95600  0.31500  1.0000
  Cl  Cl7       1.0  0.33900  0.32200  0.44700  1.0000
  Cl  Cl8       1.0  0.16100  0.67800  0.44700  1.0000
  Cl  Cl9       1.0  0.83900  0.32200  0.55300  1.0000
  Cl  Cl10      1.0  0.66100  0.67800  0.55300  1.0000
  Cl  Cl11      1.0  0.50600  0.04440  0.68500  1.0000
  Cl  Cl12      1.0  0.99400  0.95600  0.68500  1.0000
  Cl  Cl13      1.0  0.50600  0.45600  0.81500  1.0000
  Cl  Cl14      1.0  0.99400  0.54400  0.81500  1.0000
  Cl  Cl15      1.0  0.83900  0.17800  0.94700  1.0000
  Cl  Cl16      1.0  0.66100  0.82200  0.94700  1.0000
  Ga  Ga1       1.0  0.25000  0.00000  0.18200  1.0000
  Ga  Ga2       1.0  0.67700  0.25000  0.25000  1.0000
  Ga  Ga3       1.0  0.82300  0.75000  0.25000  1.0000
  Ga  Ga4       1.0  0.25000  0.50000  0.31800  1.0000
  Ga  Ga5       1.0  0.75000  0.50000  0.68200  1.0000
  Ga  Ga6       1.0  0.17700  0.25000  0.75000  1.0000
  Ga  Ga7       1.0  0.32300  0.75000  0.75000  1.0000
  Ga  Ga8       1.0  0.75000  0.00000  0.81800  1.0000
