data_image0
_chemical_formula_structural       Ca2Ni12P7
_chemical_formula_sum              "Ca2 Ni12 P7"
_cell_length_a       9.06069
_cell_length_b       9.06027
_cell_length_c       3.66555
_cell_angle_alpha    90
_cell_angle_beta     90
_cell_angle_gamma    120.002

_space_group_name_H-M_alt    "P 1"
_space_group_IT_number       1

loop_
  _space_group_symop_operation_xyz
  'x, y, z'

loop_
  _atom_site_type_symbol
  _atom_site_label
  _atom_site_symmetry_multiplicity
  _atom_site_fract_x
  _atom_site_fract_y
  _atom_site_fract_z
  _atom_site_occupancy
  Ca  Ca1       1.0  0.33300  0.66700  0.00000  1.0000
  Ca  Ca2       1.0  0.66700  0.33300  0.50000  1.0000
  Ni  Ni1       1.0  0.43300  0.05920  0.00000  1.0000
  Ni  Ni2       1.0  0.15300  0.27400  0.00000  1.0000
  Ni  Ni3       1.0  0.94100  0.37400  0.00000  1.0000
  Ni  Ni4       1.0  0.62600  0.56700  0.00000  1.0000
  Ni  Ni5       1.0  0.12200  0.84700  0.00000  1.0000
  Ni  Ni6       1.0  0.72600  0.87800  0.00000  1.0000
  Ni  Ni7       1.0  0.21500  0.09490  0.50000  1.0000
  Ni  Ni8       1.0  0.90500  0.12100  0.50000  1.0000
  Ni  Ni9       1.0  0.38100  0.43000  0.50000  1.0000
  Ni  Ni10      1.0  0.04960  0.61900  0.50000  1.0000
  Ni  Ni11      1.0  0.87900  0.78500  0.50000  1.0000
  Ni  Ni12      1.0  0.57000  0.95000  0.50000  1.0000
  P   P1        1.0  0.00000  0.00000  0.00000  1.0000
  P   P2        1.0  0.70600  0.11300  0.00000  1.0000
  P   P3        1.0  0.40700  0.29400  0.00000  1.0000
  P   P4        1.0  0.88700  0.59300  0.00000  1.0000
  P   P5        1.0  0.10900  0.40400  0.50000  1.0000
  P   P6        1.0  0.59700  0.70500  0.50000  1.0000
  P   P7        1.0  0.29500  0.89100  0.50000  1.0000
