data_image0
_chemical_formula_structural       Br16Tl8
_chemical_formula_sum              "Br16 Tl8"
_cell_length_a       8.05557
_cell_length_b       10.371
_cell_length_c       10.5233
_cell_angle_alpha    90
_cell_angle_beta     90
_cell_angle_gamma    90

_space_group_name_H-M_alt    "P 1"
_space_group_IT_number       1

loop_
  _space_group_symop_operation_xyz
  'x, y, z'

loop_
  _atom_site_type_symbol
  _atom_site_label
  _atom_site_symmetry_multiplicity
  _atom_site_fract_x
  _atom_site_fract_y
  _atom_site_fract_z
  _atom_site_occupancy
  Br  Br1       1.0  0.35800  0.19400  0.04080  1.0000
  Br  Br2       1.0  0.14200  0.80600  0.04080  1.0000
  Br  Br3       1.0  0.99400  0.45200  0.17500  1.0000
  Br  Br4       1.0  0.50600  0.54800  0.17500  1.0000
  Br  Br5       1.0  0.99400  0.04810  0.32500  1.0000
  Br  Br6       1.0  0.50600  0.95200  0.32500  1.0000
  Br  Br7       1.0  0.35800  0.30600  0.45900  1.0000
  Br  Br8       1.0  0.14200  0.69400  0.45900  1.0000
  Br  Br9       1.0  0.85800  0.30600  0.54100  1.0000
  Br  Br10      1.0  0.64200  0.69400  0.54100  1.0000
  Br  Br11      1.0  0.49400  0.04810  0.67500  1.0000
  Br  Br12      1.0  0.00628  0.95200  0.67500  1.0000
  Br  Br13      1.0  0.49400  0.45200  0.82500  1.0000
  Br  Br14      1.0  0.00628  0.54800  0.82500  1.0000
  Br  Br15      1.0  0.85800  0.19400  0.95900  1.0000
  Br  Br16      1.0  0.64200  0.80600  0.95900  1.0000
  Tl  Tl1       1.0  0.25000  0.00000  0.17800  1.0000
  Tl  Tl2       1.0  0.67800  0.25000  0.25000  1.0000
  Tl  Tl3       1.0  0.82200  0.75000  0.25000  1.0000
  Tl  Tl4       1.0  0.25000  0.50000  0.32200  1.0000
  Tl  Tl5       1.0  0.75000  0.50000  0.67800  1.0000
  Tl  Tl6       1.0  0.17800  0.25000  0.75000  1.0000
  Tl  Tl7       1.0  0.32200  0.75000  0.75000  1.0000
  Tl  Tl8       1.0  0.75000  0.00000  0.82200  1.0000
