data_image0
_chemical_formula_structural       Fe2Mo2O14V2
_chemical_formula_sum              "Fe2 Mo2 O14 V2"
_cell_length_a       5.53781
_cell_length_b       6.6215
_cell_length_c       7.927
_cell_angle_alpha    96.3576
_cell_angle_beta     90.1831
_cell_angle_gamma    101.245

_space_group_name_H-M_alt    "P 1"
_space_group_IT_number       1

loop_
  _space_group_symop_operation_xyz
  'x, y, z'

loop_
  _atom_site_type_symbol
  _atom_site_label
  _atom_site_symmetry_multiplicity
  _atom_site_fract_x
  _atom_site_fract_y
  _atom_site_fract_z
  _atom_site_occupancy
  Fe  Fe1       1.0  0.82700  0.30800  0.40500  1.0000
  Fe  Fe2       1.0  0.17300  0.69200  0.59500  1.0000
  Mo  Mo1       1.0  0.29500  0.20900  0.10800  1.0000
  Mo  Mo2       1.0  0.70500  0.79100  0.89200  1.0000
  O   O1        1.0  0.22600  0.94200  0.09730  1.0000
  O   O2        1.0  0.66400  0.69800  0.10600  1.0000
  O   O3        1.0  0.06000  0.31400  0.21500  1.0000
  O   O4        1.0  0.56900  0.30000  0.23400  1.0000
  O   O5        1.0  0.79700  0.00999  0.39100  1.0000
  O   O6        1.0  0.40700  0.68900  0.41200  1.0000
  O   O7        1.0  0.89300  0.62400  0.42500  1.0000
  O   O8        1.0  0.10700  0.37600  0.57500  1.0000
  O   O9        1.0  0.59300  0.31100  0.58800  1.0000
  O   O10       1.0  0.20300  0.99000  0.60900  1.0000
  O   O11       1.0  0.43100  0.70000  0.76600  1.0000
  O   O12       1.0  0.94000  0.68600  0.78500  1.0000
  O   O13       1.0  0.33600  0.30200  0.89400  1.0000
  O   O14       1.0  0.77400  0.05850  0.90300  1.0000
  V   V1        1.0  0.68800  0.75700  0.33400  1.0000
  V   V2        1.0  0.31200  0.24300  0.66600  1.0000
