data_image0
_chemical_formula_structural       I12IrNaPr6
_chemical_formula_sum              "I12 Ir1 Na1 Pr6"
_cell_length_a       10.1062
_cell_length_b       10.1062
_cell_length_c       10.1062
_cell_angle_alpha    107.193
_cell_angle_beta     107.193
_cell_angle_gamma    107.193

_space_group_name_H-M_alt    "P 1"
_space_group_IT_number       1

loop_
  _space_group_symop_operation_xyz
  'x, y, z'

loop_
  _atom_site_type_symbol
  _atom_site_label
  _atom_site_symmetry_multiplicity
  _atom_site_fract_x
  _atom_site_fract_y
  _atom_site_fract_z
  _atom_site_occupancy
  I   I1        1.0  0.22700  0.68400  0.07570  1.0000
  I   I2        1.0  0.45800  0.37900  0.15000  1.0000
  I   I3        1.0  0.68400  0.07570  0.22700  1.0000
  I   I4        1.0  0.92400  0.77300  0.31600  1.0000
  I   I5        1.0  0.15000  0.45800  0.37900  1.0000
  I   I6        1.0  0.37900  0.15000  0.45800  1.0000
  I   I7        1.0  0.62100  0.85000  0.54200  1.0000
  I   I8        1.0  0.85000  0.54200  0.62100  1.0000
  I   I9        1.0  0.07570  0.22700  0.68400  1.0000
  I   I10       1.0  0.31600  0.92400  0.77300  1.0000
  I   I11       1.0  0.54200  0.62100  0.85000  1.0000
  I   I12       1.0  0.77300  0.31600  0.92400  1.0000
  Ir  Ir1       1.0  0.00000  0.00000  0.00000  1.0000
  Na  Na1       1.0  0.50000  0.50000  0.50000  1.0000
  Pr  Pr1       1.0  0.10400  0.31000  0.03170  1.0000
  Pr  Pr2       1.0  0.31000  0.03170  0.10400  1.0000
  Pr  Pr3       1.0  0.03170  0.10400  0.31000  1.0000
  Pr  Pr4       1.0  0.96800  0.89600  0.69000  1.0000
  Pr  Pr5       1.0  0.69000  0.96800  0.89600  1.0000
  Pr  Pr6       1.0  0.89600  0.69000  0.96800  1.0000
