data_image0
_chemical_formula_structural       Cd2Cl12Rb8
_chemical_formula_sum              "Cd2 Cl12 Rb8"
_cell_length_a       8.91406
_cell_length_b       8.91406
_cell_length_c       8.91406
_cell_angle_alpha    90.8716
_cell_angle_beta     89.1284
_cell_angle_gamma    90.8716

_space_group_name_H-M_alt    "P 1"
_space_group_IT_number       1

loop_
  _space_group_symop_operation_xyz
  'x, y, z'

loop_
  _atom_site_type_symbol
  _atom_site_label
  _atom_site_symmetry_multiplicity
  _atom_site_fract_x
  _atom_site_fract_y
  _atom_site_fract_z
  _atom_site_occupancy
  Cd  Cd1       1.0  0.00000  0.00000  0.00000  1.0000
  Cd  Cd2       1.0  0.50000  0.50000  0.50000  1.0000
  Cl  Cl1       1.0  0.71400  0.07110  0.06040  1.0000
  Cl  Cl2       1.0  0.94000  0.71400  0.07110  1.0000
  Cl  Cl3       1.0  0.56000  0.57100  0.21400  1.0000
  Cl  Cl4       1.0  0.07110  0.06040  0.28600  1.0000
  Cl  Cl5       1.0  0.21400  0.44000  0.42900  1.0000
  Cl  Cl6       1.0  0.57100  0.21400  0.44000  1.0000
  Cl  Cl7       1.0  0.42900  0.78600  0.56000  1.0000
  Cl  Cl8       1.0  0.78600  0.56000  0.57100  1.0000
  Cl  Cl9       1.0  0.92900  0.94000  0.71400  1.0000
  Cl  Cl10      1.0  0.44000  0.42900  0.78600  1.0000
  Cl  Cl11      1.0  0.06040  0.28600  0.92900  1.0000
  Cl  Cl12      1.0  0.28600  0.92900  0.94000  1.0000
  Rb  Rb1       1.0  0.37700  0.25000  0.12300  1.0000
  Rb  Rb2       1.0  0.87700  0.37700  0.25000  1.0000
  Rb  Rb3       1.0  0.25000  0.75000  0.25000  1.0000
  Rb  Rb4       1.0  0.75000  0.87700  0.37700  1.0000
  Rb  Rb5       1.0  0.25000  0.12300  0.62300  1.0000
  Rb  Rb6       1.0  0.12300  0.62300  0.75000  1.0000
  Rb  Rb7       1.0  0.75000  0.25000  0.75000  1.0000
  Rb  Rb8       1.0  0.62300  0.75000  0.87700  1.0000
