data_image0
_chemical_formula_structural       CaI12La6Os
_chemical_formula_sum              "Ca1 I12 La6 Os1"
_cell_length_a       10.19
_cell_length_b       10.19
_cell_length_c       10.19
_cell_angle_alpha    107.414
_cell_angle_beta     107.414
_cell_angle_gamma    107.414

_space_group_name_H-M_alt    "P 1"
_space_group_IT_number       1

loop_
  _space_group_symop_operation_xyz
  'x, y, z'

loop_
  _atom_site_type_symbol
  _atom_site_label
  _atom_site_symmetry_multiplicity
  _atom_site_fract_x
  _atom_site_fract_y
  _atom_site_fract_z
  _atom_site_occupancy
  Ca  Ca1       1.0  0.50000  0.50000  0.50000  1.0000
  I   I1        1.0  0.69400  0.24300  0.08000  1.0000
  I   I2        1.0  0.41000  0.45800  0.16400  1.0000
  I   I3        1.0  0.08000  0.69400  0.24300  1.0000
  I   I4        1.0  0.75700  0.92000  0.30600  1.0000
  I   I5        1.0  0.45800  0.16400  0.41000  1.0000
  I   I6        1.0  0.16400  0.41000  0.45800  1.0000
  I   I7        1.0  0.83600  0.59000  0.54200  1.0000
  I   I8        1.0  0.54200  0.83600  0.59000  1.0000
  I   I9        1.0  0.24300  0.08000  0.69400  1.0000
  I   I10       1.0  0.92000  0.30600  0.75700  1.0000
  I   I11       1.0  0.59000  0.54200  0.83600  1.0000
  I   I12       1.0  0.30600  0.75700  0.92000  1.0000
  La  La1       1.0  0.31200  0.09020  0.04280  1.0000
  La  La2       1.0  0.04280  0.31200  0.09020  1.0000
  La  La3       1.0  0.09020  0.04280  0.31200  1.0000
  La  La4       1.0  0.91000  0.95700  0.68800  1.0000
  La  La5       1.0  0.95700  0.68800  0.91000  1.0000
  La  La6       1.0  0.68800  0.91000  0.95700  1.0000
  Os  Os1       1.0  0.00000  0.00000  0.00000  1.0000
