data_image0
_chemical_formula_structural       O6Pb2Rb4
_chemical_formula_sum              "O6 Pb2 Rb4"
_cell_length_a       6.05079
_cell_length_b       6.56715
_cell_length_c       6.56715
_cell_angle_alpha    68.3293
_cell_angle_beta     90
_cell_angle_gamma    90

_space_group_name_H-M_alt    "P 1"
_space_group_IT_number       1

loop_
  _space_group_symop_operation_xyz
  'x, y, z'

loop_
  _atom_site_type_symbol
  _atom_site_label
  _atom_site_symmetry_multiplicity
  _atom_site_fract_x
  _atom_site_fract_y
  _atom_site_fract_z
  _atom_site_occupancy
  O   O1        1.0  0.00000  0.15100  0.11200  1.0000
  O   O2        1.0  0.50000  0.11200  0.15100  1.0000
  O   O3        1.0  0.17000  0.63200  0.36800  1.0000
  O   O4        1.0  0.67000  0.36800  0.63200  1.0000
  O   O5        1.0  0.00000  0.88800  0.84900  1.0000
  O   O6        1.0  0.50000  0.84900  0.88800  1.0000
  Pb  Pb1       1.0  0.24000  0.90400  0.09620  1.0000
  Pb  Pb2       1.0  0.74000  0.09620  0.90400  1.0000
  Rb  Rb1       1.0  0.76500  0.48300  0.19100  1.0000
  Rb  Rb2       1.0  0.26500  0.19100  0.48300  1.0000
  Rb  Rb3       1.0  0.76500  0.80900  0.51700  1.0000
  Rb  Rb4       1.0  0.26500  0.51700  0.80900  1.0000
