data_image0
_chemical_formula_structural       Ag8Cs4I12
_chemical_formula_sum              "Ag8 Cs4 I12"
_cell_length_a       11.226
_cell_length_b       13.9489
_cell_length_c       6.20377
_cell_angle_alpha    90
_cell_angle_beta     90
_cell_angle_gamma    90

_space_group_name_H-M_alt    "P 1"
_space_group_IT_number       1

loop_
  _space_group_symop_operation_xyz
  'x, y, z'

loop_
  _atom_site_type_symbol
  _atom_site_label
  _atom_site_symmetry_multiplicity
  _atom_site_fract_x
  _atom_site_fract_y
  _atom_site_fract_z
  _atom_site_occupancy
  Ag  Ag1       1.0  0.83200  0.00115  0.00014  1.0000
  Ag  Ag2       1.0  0.66800  0.50100  0.00014  1.0000
  Ag  Ag3       1.0  0.83200  0.00115  0.50000  1.0000
  Ag  Ag4       1.0  0.66800  0.50100  0.50000  1.0000
  Ag  Ag5       1.0  0.33200  0.49900  0.50000  1.0000
  Ag  Ag6       1.0  0.16800  0.99900  0.50000  1.0000
  Ag  Ag7       1.0  0.33200  0.49900  0.00000  1.0000
  Ag  Ag8       1.0  0.16800  0.99900  0.00000  1.0000
  Cs  Cs1       1.0  0.50700  0.18800  0.25000  1.0000
  Cs  Cs2       1.0  0.99300  0.68800  0.25000  1.0000
  Cs  Cs3       1.0  0.00711  0.31200  0.75000  1.0000
  Cs  Cs4       1.0  0.49300  0.81200  0.75000  1.0000
  I   I1        1.0  0.00221  0.12000  0.25000  1.0000
  I   I2        1.0  0.21200  0.35900  0.25000  1.0000
  I   I3        1.0  0.80200  0.37100  0.25000  1.0000
  I   I4        1.0  0.49800  0.62000  0.25000  1.0000
  I   I5        1.0  0.28800  0.85900  0.25000  1.0000
  I   I6        1.0  0.69800  0.87100  0.25000  1.0000
  I   I7        1.0  0.30200  0.12900  0.75000  1.0000
  I   I8        1.0  0.71200  0.14100  0.75000  1.0000
  I   I9        1.0  0.50200  0.38000  0.75000  1.0000
  I   I10       1.0  0.19800  0.62900  0.75000  1.0000
  I   I11       1.0  0.78800  0.64100  0.75000  1.0000
  I   I12       1.0  0.99800  0.88000  0.75000  1.0000
