data_image0
_chemical_formula_structural       Au4Cl16P4
_chemical_formula_sum              "Au4 Cl16 P4"
_cell_length_a       7.35545
_cell_length_b       14.6975
_cell_length_c       6.1903
_cell_angle_alpha    90
_cell_angle_beta     96.3156
_cell_angle_gamma    90

_space_group_name_H-M_alt    "P 1"
_space_group_IT_number       1

loop_
  _space_group_symop_operation_xyz
  'x, y, z'

loop_
  _atom_site_type_symbol
  _atom_site_label
  _atom_site_symmetry_multiplicity
  _atom_site_fract_x
  _atom_site_fract_y
  _atom_site_fract_z
  _atom_site_occupancy
  Au  Au1       1.0  0.03780  0.23600  0.02090  1.0000
  Au  Au2       1.0  0.96200  0.73600  0.47900  1.0000
  Au  Au3       1.0  0.03780  0.26400  0.52100  1.0000
  Au  Au4       1.0  0.96200  0.76400  0.97900  1.0000
  Cl  Cl1       1.0  0.82300  0.35000  0.01490  1.0000
  Cl  Cl2       1.0  0.51100  0.82700  0.07240  1.0000
  Cl  Cl3       1.0  0.80300  0.98400  0.15600  1.0000
  Cl  Cl4       1.0  0.66600  0.57500  0.17400  1.0000
  Cl  Cl5       1.0  0.33400  0.07540  0.32600  1.0000
  Cl  Cl6       1.0  0.19700  0.48400  0.34400  1.0000
  Cl  Cl7       1.0  0.48900  0.32700  0.42800  1.0000
  Cl  Cl8       1.0  0.17700  0.85000  0.48500  1.0000
  Cl  Cl9       1.0  0.82300  0.15000  0.51500  1.0000
  Cl  Cl10      1.0  0.51100  0.67300  0.57200  1.0000
  Cl  Cl11      1.0  0.80300  0.51600  0.65600  1.0000
  Cl  Cl12      1.0  0.66600  0.92500  0.67400  1.0000
  Cl  Cl13      1.0  0.33400  0.42500  0.82600  1.0000
  Cl  Cl14      1.0  0.19700  0.01640  0.84400  1.0000
  Cl  Cl15      1.0  0.48900  0.17300  0.92800  1.0000
  Cl  Cl16      1.0  0.17700  0.65000  0.98500  1.0000
  P   P1        1.0  0.25400  0.12800  0.02930  1.0000
  P   P2        1.0  0.74600  0.62800  0.47100  1.0000
  P   P3        1.0  0.25400  0.37200  0.52900  1.0000
  P   P4        1.0  0.74600  0.87200  0.97100  1.0000
