data_image0
_chemical_formula_structural       Ag6As6S12
_chemical_formula_sum              "Ag6 As6 S12"
_cell_length_a       8.70542
_cell_length_b       8.70542
_cell_length_c       8.70542
_cell_angle_alpha    107.753
_cell_angle_beta     107.753
_cell_angle_gamma    107.753

_space_group_name_H-M_alt    "P 1"
_space_group_IT_number       1

loop_
  _space_group_symop_operation_xyz
  'x, y, z'

loop_
  _atom_site_type_symbol
  _atom_site_label
  _atom_site_symmetry_multiplicity
  _atom_site_fract_x
  _atom_site_fract_y
  _atom_site_fract_z
  _atom_site_occupancy
  Ag  Ag1       1.0  0.26300  0.68000  0.09410  1.0000
  Ag  Ag2       1.0  0.68000  0.09410  0.26300  1.0000
  Ag  Ag3       1.0  0.90600  0.73700  0.32000  1.0000
  Ag  Ag4       1.0  0.09410  0.26300  0.68000  1.0000
  Ag  Ag5       1.0  0.32000  0.90600  0.73700  1.0000
  Ag  Ag6       1.0  0.73700  0.32000  0.90600  1.0000
  As  As1       1.0  0.42800  0.35400  0.14200  1.0000
  As  As2       1.0  0.14200  0.42800  0.35400  1.0000
  As  As3       1.0  0.35400  0.14200  0.42800  1.0000
  As  As4       1.0  0.64600  0.85800  0.57200  1.0000
  As  As5       1.0  0.85800  0.57200  0.64600  1.0000
  As  As6       1.0  0.57200  0.64600  0.85800  1.0000
  S   S1        1.0  0.14800  0.35100  0.07310  1.0000
  S   S2        1.0  0.61300  0.75500  0.14500  1.0000
  S   S3        1.0  0.35100  0.07310  0.14800  1.0000
  S   S4        1.0  0.85500  0.38700  0.24500  1.0000
  S   S5        1.0  0.07310  0.14800  0.35100  1.0000
  S   S6        1.0  0.24500  0.85500  0.38700  1.0000
  S   S7        1.0  0.75500  0.14500  0.61300  1.0000
  S   S8        1.0  0.92700  0.85200  0.64900  1.0000
  S   S9        1.0  0.14500  0.61300  0.75500  1.0000
  S   S10       1.0  0.64900  0.92700  0.85200  1.0000
  S   S11       1.0  0.38700  0.24500  0.85500  1.0000
  S   S12       1.0  0.85200  0.64900  0.92700  1.0000
