data_image0
_chemical_formula_structural       BaCu4FeLa4O13
_chemical_formula_sum              "Ba1 Cu4 Fe1 La4 O13"
_cell_length_a       8.55822
_cell_length_b       8.55822
_cell_length_c       3.91593
_cell_angle_alpha    90
_cell_angle_beta     90
_cell_angle_gamma    90

_space_group_name_H-M_alt    "P 1"
_space_group_IT_number       1

loop_
  _space_group_symop_operation_xyz
  'x, y, z'

loop_
  _atom_site_type_symbol
  _atom_site_label
  _atom_site_symmetry_multiplicity
  _atom_site_fract_x
  _atom_site_fract_y
  _atom_site_fract_z
  _atom_site_occupancy
  Ba  Ba1       1.0  0.50000  0.50000  0.50000  1.0000
  Cu  Cu1       1.0  0.41300  0.17000  0.00000  1.0000
  Cu  Cu2       1.0  0.83000  0.41300  0.00000  1.0000
  Cu  Cu3       1.0  0.17000  0.58700  0.00000  1.0000
  Cu  Cu4       1.0  0.58700  0.83000  0.00000  1.0000
  Fe  Fe1       1.0  0.00000  0.00000  0.00000  1.0000
  La  La1       1.0  0.71200  0.12600  0.50000  1.0000
  La  La2       1.0  0.12600  0.28800  0.50000  1.0000
  La  La3       1.0  0.87400  0.71200  0.50000  1.0000
  La  La4       1.0  0.28800  0.87400  0.50000  1.0000
  O   O1        1.0  0.22300  0.05760  0.00000  1.0000
  O   O2        1.0  0.94200  0.22300  0.00000  1.0000
  O   O3        1.0  0.60900  0.26600  0.00000  1.0000
  O   O4        1.0  0.26600  0.39100  0.00000  1.0000
  O   O5        1.0  0.73400  0.60900  0.00000  1.0000
  O   O6        1.0  0.39100  0.73400  0.00000  1.0000
  O   O7        1.0  0.05760  0.77700  0.00000  1.0000
  O   O8        1.0  0.77700  0.94200  0.00000  1.0000
  O   O9        1.0  0.00000  0.00000  0.50000  1.0000
  O   O10       1.0  0.41300  0.15800  0.50000  1.0000
  O   O11       1.0  0.84200  0.41300  0.50000  1.0000
  O   O12       1.0  0.15800  0.58700  0.50000  1.0000
  O   O13       1.0  0.58700  0.84200  0.50000  1.0000
