data_image0
_chemical_formula_structural       Cd2K4O14P4
_chemical_formula_sum              "Cd2 K4 O14 P4"
_cell_length_a       5.53324
_cell_length_b       5.59615
_cell_length_c       12.5463
_cell_angle_alpha    101.064
_cell_angle_beta     102.739
_cell_angle_gamma    60.3712

_space_group_name_H-M_alt    "P 1"
_space_group_IT_number       1

loop_
  _space_group_symop_operation_xyz
  'x, y, z'

loop_
  _atom_site_type_symbol
  _atom_site_label
  _atom_site_symmetry_multiplicity
  _atom_site_fract_x
  _atom_site_fract_y
  _atom_site_fract_z
  _atom_site_occupancy
  Cd  Cd1       1.0  0.50000  0.50000  0.00000  1.0000
  Cd  Cd2       1.0  0.00000  0.00000  0.50000  1.0000
  K   K1        1.0  0.94200  0.87000  0.17000  1.0000
  K   K2        1.0  0.64300  0.63000  0.33000  1.0000
  K   K3        1.0  0.35700  0.37000  0.67000  1.0000
  K   K4        1.0  0.05750  0.13000  0.83000  1.0000
  O   O1        1.0  0.98600  0.27600  0.05010  1.0000
  O   O2        1.0  0.45200  0.87100  0.12300  1.0000
  O   O3        1.0  0.41600  0.34800  0.13800  1.0000
  O   O4        1.0  0.14800  0.25000  0.25000  1.0000
  O   O5        1.0  0.62600  0.15200  0.36200  1.0000
  O   O6        1.0  0.20000  0.62900  0.37700  1.0000
  O   O7        1.0  0.21300  0.22400  0.45000  1.0000
  O   O8        1.0  0.78700  0.77600  0.55000  1.0000
  O   O9        1.0  0.80000  0.37100  0.62300  1.0000
  O   O10       1.0  0.37400  0.84800  0.63800  1.0000
  O   O11       1.0  0.85200  0.75000  0.75000  1.0000
  O   O12       1.0  0.58400  0.65200  0.86200  1.0000
  O   O13       1.0  0.54800  0.12900  0.87700  1.0000
  O   O14       1.0  0.01350  0.72400  0.95000  1.0000
  P   P1        1.0  0.25700  0.18400  0.13000  1.0000
  P   P2        1.0  0.31100  0.31600  0.37000  1.0000
  P   P3        1.0  0.68900  0.68400  0.63000  1.0000
  P   P4        1.0  0.74300  0.81600  0.87000  1.0000
