data_image0
_chemical_formula_structural       Ag12Au4Te8
_chemical_formula_sum              "Ag12 Au4 Te8"
_cell_length_a       9.0484
_cell_length_b       9.0484
_cell_length_c       9.0484
_cell_angle_alpha    109.471
_cell_angle_beta     109.471
_cell_angle_gamma    109.471

_space_group_name_H-M_alt    "P 1"
_space_group_IT_number       1

loop_
  _space_group_symop_operation_xyz
  'x, y, z'

loop_
  _atom_site_type_symbol
  _atom_site_label
  _atom_site_symmetry_multiplicity
  _atom_site_fract_x
  _atom_site_fract_y
  _atom_site_fract_z
  _atom_site_occupancy
  Ag  Ag1       1.0  0.25000  0.39000  0.14000  1.0000
  Ag  Ag2       1.0  0.39000  0.75000  0.14000  1.0000
  Ag  Ag3       1.0  0.11000  0.86000  0.25000  1.0000
  Ag  Ag4       1.0  0.64000  0.39000  0.25000  1.0000
  Ag  Ag5       1.0  0.75000  0.11000  0.36000  1.0000
  Ag  Ag6       1.0  0.11000  0.25000  0.36000  1.0000
  Ag  Ag7       1.0  0.25000  0.86000  0.61000  1.0000
  Ag  Ag8       1.0  0.86000  0.75000  0.61000  1.0000
  Ag  Ag9       1.0  0.86000  0.11000  0.75000  1.0000
  Ag  Ag10      1.0  0.39000  0.64000  0.75000  1.0000
  Ag  Ag11      1.0  0.64000  0.25000  0.89000  1.0000
  Ag  Ag12      1.0  0.75000  0.64000  0.89000  1.0000
  Au  Au1       1.0  0.75000  0.00000  0.00000  1.0000
  Au  Au2       1.0  0.75000  0.75000  0.25000  1.0000
  Au  Au3       1.0  0.00000  0.50000  0.25000  1.0000
  Au  Au4       1.0  0.50000  0.75000  0.50000  1.0000
  Te  Te1       1.0  0.04430  0.00000  0.00000  1.0000
  Te  Te2       1.0  0.45600  0.00000  0.00000  1.0000
  Te  Te3       1.0  0.50000  0.04430  0.50000  1.0000
  Te  Te4       1.0  0.50000  0.45600  0.50000  1.0000
  Te  Te5       1.0  0.04430  0.04430  0.54400  1.0000
  Te  Te6       1.0  0.00000  0.50000  0.54400  1.0000
  Te  Te7       1.0  0.45600  0.45600  0.95600  1.0000
  Te  Te8       1.0  0.00000  0.50000  0.95600  1.0000
