data_image0
_chemical_formula_structural       Ba2N2O12Si6Sr
_chemical_formula_sum              "Ba2 N2 O12 Si6 Sr1"
_cell_length_a       7.43149
_cell_length_b       7.43185
_cell_length_c       6.41434
_cell_angle_alpha    90.0008
_cell_angle_beta     90.0015
_cell_angle_gamma    120.001

_space_group_name_H-M_alt    "P 1"
_space_group_IT_number       1

loop_
  _space_group_symop_operation_xyz
  'x, y, z'

loop_
  _atom_site_type_symbol
  _atom_site_label
  _atom_site_symmetry_multiplicity
  _atom_site_fract_x
  _atom_site_fract_y
  _atom_site_fract_z
  _atom_site_occupancy
  Ba  Ba1       1.0  0.33300  0.66700  0.10800  1.0000
  Ba  Ba2       1.0  0.66700  0.33300  0.89200  1.0000
  N   N1        1.0  0.66700  0.33300  0.41600  1.0000
  N   N2        1.0  0.33300  0.66700  0.58400  1.0000
  O   O1        1.0  0.94600  0.65700  0.16200  1.0000
  O   O2        1.0  0.34300  0.29000  0.16200  1.0000
  O   O3        1.0  0.71000  0.05360  0.16200  1.0000
  O   O4        1.0  0.30100  0.97800  0.40700  1.0000
  O   O5        1.0  0.67700  0.69900  0.40700  1.0000
  O   O6        1.0  0.02200  0.32300  0.40700  1.0000
  O   O7        1.0  0.97800  0.67700  0.59300  1.0000
  O   O8        1.0  0.32300  0.30100  0.59300  1.0000
  O   O9        1.0  0.69900  0.02200  0.59300  1.0000
  O   O10       1.0  0.29000  0.94600  0.83800  1.0000
  O   O11       1.0  0.65700  0.71000  0.83800  1.0000
  O   O12       1.0  0.05360  0.34300  0.83800  1.0000
  Si  Si1       1.0  0.76800  0.17000  0.38100  1.0000
  Si  Si2       1.0  0.40200  0.23200  0.38100  1.0000
  Si  Si3       1.0  0.83000  0.59800  0.38100  1.0000
  Si  Si4       1.0  0.17000  0.40200  0.61900  1.0000
  Si  Si5       1.0  0.59800  0.76800  0.61900  1.0000
  Si  Si6       1.0  0.23200  0.83000  0.61900  1.0000
  Sr  Sr1       1.0  0.00000  0.00000  0.00000  1.0000
