data_image0
_chemical_formula_structural       Ce4O16Ta4
_chemical_formula_sum              "Ce4 O16 Ta4"
_cell_length_a       7.60355
_cell_length_b       5.55334
_cell_length_c       7.79437
_cell_angle_alpha    90
_cell_angle_beta     100.757
_cell_angle_gamma    90

_space_group_name_H-M_alt    "P 1"
_space_group_IT_number       1

loop_
  _space_group_symop_operation_xyz
  'x, y, z'

loop_
  _atom_site_type_symbol
  _atom_site_label
  _atom_site_symmetry_multiplicity
  _atom_site_fract_x
  _atom_site_fract_y
  _atom_site_fract_z
  _atom_site_occupancy
  Ce  Ce1       1.0  0.34300  0.77400  0.09690  1.0000
  Ce  Ce2       1.0  0.65700  0.27400  0.40300  1.0000
  Ce  Ce3       1.0  0.34300  0.72600  0.59700  1.0000
  Ce  Ce4       1.0  0.65700  0.22600  0.90300  1.0000
  O   O1        1.0  0.16500  0.15800  0.05390  1.0000
  O   O2        1.0  0.66400  0.51200  0.13300  1.0000
  O   O3        1.0  0.61600  0.98600  0.16900  1.0000
  O   O4        1.0  0.05770  0.59000  0.20400  1.0000
  O   O5        1.0  0.94200  0.08970  0.29600  1.0000
  O   O6        1.0  0.38400  0.48600  0.33100  1.0000
  O   O7        1.0  0.33600  0.01190  0.36700  1.0000
  O   O8        1.0  0.83500  0.65800  0.44600  1.0000
  O   O9        1.0  0.16500  0.34200  0.55400  1.0000
  O   O10       1.0  0.66400  0.98800  0.63300  1.0000
  O   O11       1.0  0.61600  0.51400  0.66900  1.0000
  O   O12       1.0  0.05770  0.91000  0.70400  1.0000
  O   O13       1.0  0.94200  0.41000  0.79600  1.0000
  O   O14       1.0  0.38400  0.01430  0.83100  1.0000
  O   O15       1.0  0.33600  0.48800  0.86700  1.0000
  O   O16       1.0  0.83500  0.84200  0.94600  1.0000
  Ta  Ta1       1.0  0.83300  0.76800  0.19700  1.0000
  Ta  Ta2       1.0  0.16700  0.26800  0.30300  1.0000
  Ta  Ta3       1.0  0.83300  0.73200  0.69700  1.0000
  Ta  Ta4       1.0  0.16700  0.23200  0.80300  1.0000
