data_image0
_chemical_formula_structural       Ag4Pb4S12Sb4
_chemical_formula_sum              "Ag4 Pb4 S12 Sb4"
_cell_length_a       7.67031
_cell_length_b       12.9086
_cell_length_c       6.04128
_cell_angle_alpha    90
_cell_angle_beta     91.2677
_cell_angle_gamma    90

_space_group_name_H-M_alt    "P 1"
_space_group_IT_number       1

loop_
  _space_group_symop_operation_xyz
  'x, y, z'

loop_
  _atom_site_type_symbol
  _atom_site_label
  _atom_site_symmetry_multiplicity
  _atom_site_fract_x
  _atom_site_fract_y
  _atom_site_fract_z
  _atom_site_occupancy
  Ag  Ag1       1.0  0.37900  0.76300  0.22200  1.0000
  Ag  Ag2       1.0  0.87900  0.73700  0.22200  1.0000
  Ag  Ag3       1.0  0.12100  0.26300  0.77800  1.0000
  Ag  Ag4       1.0  0.62100  0.23700  0.77800  1.0000
  Pb  Pb1       1.0  0.35400  0.41700  0.25700  1.0000
  Pb  Pb2       1.0  0.85400  0.08280  0.25700  1.0000
  Pb  Pb3       1.0  0.14600  0.91700  0.74300  1.0000
  Pb  Pb4       1.0  0.64600  0.58300  0.74300  1.0000
  S   S1        1.0  0.14200  0.62600  0.13800  1.0000
  S   S2        1.0  0.64200  0.87400  0.13800  1.0000
  S   S3        1.0  0.15200  0.94300  0.26300  1.0000
  S   S4        1.0  0.65200  0.55700  0.26300  1.0000
  S   S5        1.0  0.13700  0.22300  0.34700  1.0000
  S   S6        1.0  0.63700  0.27700  0.34700  1.0000
  S   S7        1.0  0.36300  0.72300  0.65300  1.0000
  S   S8        1.0  0.86300  0.77700  0.65300  1.0000
  S   S9        1.0  0.34800  0.44300  0.73700  1.0000
  S   S10       1.0  0.84800  0.05690  0.73700  1.0000
  S   S11       1.0  0.35800  0.12600  0.86200  1.0000
  S   S12       1.0  0.85800  0.37400  0.86200  1.0000
  Sb  Sb1       1.0  0.36400  0.09110  0.26500  1.0000
  Sb  Sb2       1.0  0.86400  0.40900  0.26500  1.0000
  Sb  Sb3       1.0  0.63600  0.90900  0.73500  1.0000
  Sb  Sb4       1.0  0.13600  0.59100  0.73500  1.0000
