data_image0
_chemical_formula_structural       Cu5La5O13
_chemical_formula_sum              "Cu5 La5 O13"
_cell_length_a       8.49022
_cell_length_b       3.86423
_cell_length_c       8.50376
_cell_angle_alpha    90
_cell_angle_beta     90.2948
_cell_angle_gamma    90

_space_group_name_H-M_alt    "P 1"
_space_group_IT_number       1

loop_
  _space_group_symop_operation_xyz
  'x, y, z'

loop_
  _atom_site_type_symbol
  _atom_site_label
  _atom_site_symmetry_multiplicity
  _atom_site_fract_x
  _atom_site_fract_y
  _atom_site_fract_z
  _atom_site_occupancy
  Cu  Cu1       1.0  0.00000  0.00000  0.00000  1.0000
  Cu  Cu2       1.0  0.42500  0.00000  0.16900  1.0000
  Cu  Cu3       1.0  0.83000  0.00000  0.42700  1.0000
  Cu  Cu4       1.0  0.17000  0.00000  0.57300  1.0000
  Cu  Cu5       1.0  0.57500  0.00000  0.83100  1.0000
  La  La1       1.0  0.72700  0.50000  0.13700  1.0000
  La  La2       1.0  0.13900  0.50000  0.27300  1.0000
  La  La3       1.0  0.50000  0.50000  0.50000  1.0000
  La  La4       1.0  0.86100  0.50000  0.72700  1.0000
  La  La5       1.0  0.27300  0.50000  0.86300  1.0000
  O   O1        1.0  0.00000  0.50000  0.00000  1.0000
  O   O2        1.0  0.23700  0.00000  0.04720  1.0000
  O   O3        1.0  0.42900  0.50000  0.17700  1.0000
  O   O4        1.0  0.95700  0.00000  0.24600  1.0000
  O   O5        1.0  0.61200  0.00000  0.28900  1.0000
  O   O6        1.0  0.30000  0.00000  0.39400  1.0000
  O   O7        1.0  0.82100  0.50000  0.43000  1.0000
  O   O8        1.0  0.17900  0.50000  0.57000  1.0000
  O   O9        1.0  0.70000  0.00000  0.60600  1.0000
  O   O10       1.0  0.38800  0.00000  0.71100  1.0000
  O   O11       1.0  0.04260  0.00000  0.75400  1.0000
  O   O12       1.0  0.57100  0.50000  0.82300  1.0000
  O   O13       1.0  0.76300  0.00000  0.95300  1.0000
