data_image0
_chemical_formula_structural       Gd12Ni4Si8
_chemical_formula_sum              "Gd12 Ni4 Si8"
_cell_length_a       11.3927
_cell_length_b       4.15758
_cell_length_c       11.3293
_cell_angle_alpha    90
_cell_angle_beta     90
_cell_angle_gamma    90

_space_group_name_H-M_alt    "P 1"
_space_group_IT_number       1

loop_
  _space_group_symop_operation_xyz
  'x, y, z'

loop_
  _atom_site_type_symbol
  _atom_site_label
  _atom_site_symmetry_multiplicity
  _atom_site_fract_x
  _atom_site_fract_y
  _atom_site_fract_z
  _atom_site_occupancy
  Gd  Gd1       1.0  0.88200  0.25000  0.05970  1.0000
  Gd  Gd2       1.0  0.55800  0.25000  0.12500  1.0000
  Gd  Gd3       1.0  0.28600  0.75000  0.19600  1.0000
  Gd  Gd4       1.0  0.78600  0.75000  0.30400  1.0000
  Gd  Gd5       1.0  0.05790  0.25000  0.37500  1.0000
  Gd  Gd6       1.0  0.38200  0.25000  0.44000  1.0000
  Gd  Gd7       1.0  0.61800  0.75000  0.56000  1.0000
  Gd  Gd8       1.0  0.94200  0.75000  0.62500  1.0000
  Gd  Gd9       1.0  0.21400  0.25000  0.69600  1.0000
  Gd  Gd10      1.0  0.71400  0.25000  0.80400  1.0000
  Gd  Gd11      1.0  0.44200  0.75000  0.87500  1.0000
  Gd  Gd12      1.0  0.11800  0.75000  0.94000  1.0000
  Ni  Ni1       1.0  0.13000  0.25000  0.13400  1.0000
  Ni  Ni2       1.0  0.63000  0.25000  0.36600  1.0000
  Ni  Ni3       1.0  0.37000  0.75000  0.63400  1.0000
  Ni  Ni4       1.0  0.87000  0.75000  0.86600  1.0000
  Si  Si1       1.0  0.30300  0.25000  0.00556  1.0000
  Si  Si2       1.0  0.02580  0.75000  0.18600  1.0000
  Si  Si3       1.0  0.52600  0.75000  0.31400  1.0000
  Si  Si4       1.0  0.80300  0.25000  0.49400  1.0000
  Si  Si5       1.0  0.19700  0.75000  0.50600  1.0000
  Si  Si6       1.0  0.47400  0.25000  0.68600  1.0000
  Si  Si7       1.0  0.97400  0.25000  0.81400  1.0000
  Si  Si8       1.0  0.69700  0.75000  0.99400  1.0000
