data_image0
_chemical_formula_structural       K8O12Sn4
_chemical_formula_sum              "K8 O12 Sn4"
_cell_length_a       5.76624
_cell_length_b       10.3242
_cell_length_c       7.00676
_cell_angle_alpha    90
_cell_angle_beta     90
_cell_angle_gamma    90

_space_group_name_H-M_alt    "P 1"
_space_group_IT_number       1

loop_
  _space_group_symop_operation_xyz
  'x, y, z'

loop_
  _atom_site_type_symbol
  _atom_site_label
  _atom_site_symmetry_multiplicity
  _atom_site_fract_x
  _atom_site_fract_y
  _atom_site_fract_z
  _atom_site_occupancy
  K   K1        1.0  0.26700  0.58800  0.11100  1.0000
  K   K2        1.0  0.26700  0.91200  0.11100  1.0000
  K   K3        1.0  0.76700  0.58800  0.38900  1.0000
  K   K4        1.0  0.76700  0.91200  0.38900  1.0000
  K   K5        1.0  0.23300  0.08780  0.61100  1.0000
  K   K6        1.0  0.23300  0.41200  0.61100  1.0000
  K   K7        1.0  0.73300  0.08780  0.88900  1.0000
  K   K8        1.0  0.73300  0.41200  0.88900  1.0000
  O   O1        1.0  0.66400  0.75000  0.11500  1.0000
  O   O2        1.0  0.00681  0.11800  0.22700  1.0000
  O   O3        1.0  0.00681  0.38200  0.22700  1.0000
  O   O4        1.0  0.50700  0.11800  0.27300  1.0000
  O   O5        1.0  0.50700  0.38200  0.27300  1.0000
  O   O6        1.0  0.16400  0.75000  0.38500  1.0000
  O   O7        1.0  0.83600  0.25000  0.61500  1.0000
  O   O8        1.0  0.49300  0.61800  0.72700  1.0000
  O   O9        1.0  0.49300  0.88200  0.72700  1.0000
  O   O10       1.0  0.99300  0.61800  0.77300  1.0000
  O   O11       1.0  0.99300  0.88200  0.77300  1.0000
  O   O12       1.0  0.33600  0.25000  0.88500  1.0000
  Sn  Sn1       1.0  0.26700  0.25000  0.15700  1.0000
  Sn  Sn2       1.0  0.76700  0.25000  0.34300  1.0000
  Sn  Sn3       1.0  0.23300  0.75000  0.65700  1.0000
  Sn  Sn4       1.0  0.73300  0.75000  0.84300  1.0000
