data_image0
_chemical_formula_structural       As8O16
_chemical_formula_sum              "As8 O16"
_cell_length_a       8.40556
_cell_length_b       5.2723
_cell_length_c       7.18016
_cell_angle_alpha    90
_cell_angle_beta     90
_cell_angle_gamma    90

_space_group_name_H-M_alt    "P 1"
_space_group_IT_number       1

loop_
  _space_group_symop_operation_xyz
  'x, y, z'

loop_
  _atom_site_type_symbol
  _atom_site_label
  _atom_site_symmetry_multiplicity
  _atom_site_fract_x
  _atom_site_fract_y
  _atom_site_fract_z
  _atom_site_occupancy
  As  As1       1.0  0.06580  0.25000  0.17000  1.0000
  As  As2       1.0  0.72800  0.75000  0.20300  1.0000
  As  As3       1.0  0.22800  0.75000  0.29700  1.0000
  As  As4       1.0  0.56600  0.25000  0.33000  1.0000
  As  As5       1.0  0.43400  0.75000  0.67000  1.0000
  As  As6       1.0  0.77200  0.25000  0.70300  1.0000
  As  As7       1.0  0.27200  0.25000  0.79700  1.0000
  As  As8       1.0  0.93400  0.75000  0.83000  1.0000
  O   O1        1.0  0.89600  0.25000  0.05050  1.0000
  O   O2        1.0  0.25000  0.25000  0.05620  1.0000
  O   O3        1.0  0.57500  0.50600  0.17700  1.0000
  O   O4        1.0  0.57500  0.99400  0.17700  1.0000
  O   O5        1.0  0.07450  0.50600  0.32300  1.0000
  O   O6        1.0  0.07450  0.99400  0.32300  1.0000
  O   O7        1.0  0.75000  0.25000  0.44400  1.0000
  O   O8        1.0  0.39600  0.25000  0.45000  1.0000
  O   O9        1.0  0.60400  0.75000  0.55000  1.0000
  O   O10       1.0  0.25000  0.75000  0.55600  1.0000
  O   O11       1.0  0.92500  0.00608  0.67700  1.0000
  O   O12       1.0  0.92500  0.49400  0.67700  1.0000
  O   O13       1.0  0.42500  0.00608  0.82300  1.0000
  O   O14       1.0  0.42500  0.49400  0.82300  1.0000
  O   O15       1.0  0.75000  0.75000  0.94400  1.0000
  O   O16       1.0  0.10400  0.75000  0.95000  1.0000
