data_image0
_chemical_formula_structural       H14O8
_chemical_formula_sum              "H14 O8"
_cell_length_a       4.70633
_cell_length_b       5.96418
_cell_length_c       5.96418
_cell_angle_alpha    92.3154
_cell_angle_beta     113.238
_cell_angle_gamma    113.238

_space_group_name_H-M_alt    "P 1"
_space_group_IT_number       1

loop_
  _space_group_symop_operation_xyz
  'x, y, z'

loop_
  _atom_site_type_symbol
  _atom_site_label
  _atom_site_symmetry_multiplicity
  _atom_site_fract_x
  _atom_site_fract_y
  _atom_site_fract_z
  _atom_site_occupancy
  H   H1        1.0  0.50000  0.00000  0.00000  1.0000
  H   H2        1.0  0.50000  0.50000  0.00000  1.0000
  H   H3        1.0  0.00000  0.50000  0.00000  1.0000
  H   H4        1.0  0.25000  0.36600  0.13400  1.0000
  H   H5        1.0  0.96800  0.25000  0.25000  1.0000
  H   H6        1.0  0.53200  0.25000  0.25000  1.0000
  H   H7        1.0  0.25000  0.13400  0.36600  1.0000
  H   H8        1.0  0.00000  0.50000  0.50000  1.0000
  H   H9        1.0  0.50000  0.00000  0.50000  1.0000
  H   H10       1.0  0.00000  0.00000  0.50000  1.0000
  H   H11       1.0  0.75000  0.86600  0.63400  1.0000
  H   H12       1.0  0.46800  0.75000  0.75000  1.0000
  H   H13       1.0  0.03230  0.75000  0.75000  1.0000
  H   H14       1.0  0.75000  0.63400  0.86600  1.0000
  O   O1        1.0  0.94200  0.30000  0.05470  1.0000
  O   O2        1.0  0.55800  0.44500  0.20000  1.0000
  O   O3        1.0  0.41300  0.05470  0.30000  1.0000
  O   O4        1.0  0.08660  0.20000  0.44500  1.0000
  O   O5        1.0  0.91300  0.80000  0.55500  1.0000
  O   O6        1.0  0.58700  0.94500  0.70000  1.0000
  O   O7        1.0  0.44200  0.55500  0.80000  1.0000
  O   O8        1.0  0.05830  0.70000  0.94500  1.0000
