data_image0
_chemical_formula_structural       Bi4Pb6S12
_chemical_formula_sum              "Bi4 Pb6 S12"
_cell_length_a       4.11156
_cell_length_b       7.1422
_cell_length_c       21.1547
_cell_angle_alpha    92.5239
_cell_angle_beta     90
_cell_angle_gamma    106.728

_space_group_name_H-M_alt    "P 1"
_space_group_IT_number       1

loop_
  _space_group_symop_operation_xyz
  'x, y, z'

loop_
  _atom_site_type_symbol
  _atom_site_label
  _atom_site_symmetry_multiplicity
  _atom_site_fract_x
  _atom_site_fract_y
  _atom_site_fract_z
  _atom_site_occupancy
  Bi  Bi1       1.0  0.59700  0.19400  0.13500  1.0000
  Bi  Bi2       1.0  0.85900  0.71900  0.45100  1.0000
  Bi  Bi3       1.0  0.14100  0.28100  0.54900  1.0000
  Bi  Bi4       1.0  0.40300  0.80600  0.86500  1.0000
  Pb  Pb1       1.0  0.86600  0.73200  0.04610  1.0000
  Pb  Pb2       1.0  0.32700  0.65300  0.23500  1.0000
  Pb  Pb3       1.0  0.57900  0.15700  0.36500  1.0000
  Pb  Pb4       1.0  0.42100  0.84300  0.63500  1.0000
  Pb  Pb5       1.0  0.67300  0.34700  0.76500  1.0000
  Pb  Pb6       1.0  0.13400  0.26800  0.95400  1.0000
  S   S1        1.0  0.50000  0.00000  0.00000  1.0000
  S   S2        1.0  0.23400  0.46800  0.10100  1.0000
  S   S3        1.0  0.96600  0.93100  0.16400  1.0000
  S   S4        1.0  0.68500  0.37000  0.25000  1.0000
  S   S5        1.0  0.93700  0.87500  0.33600  1.0000
  S   S6        1.0  0.23100  0.46100  0.41900  1.0000
  S   S7        1.0  0.50000  0.00000  0.50000  1.0000
  S   S8        1.0  0.76900  0.53900  0.58100  1.0000
  S   S9        1.0  0.06260  0.12500  0.66400  1.0000
  S   S10       1.0  0.31500  0.63000  0.75000  1.0000
  S   S11       1.0  0.03430  0.06860  0.83600  1.0000
  S   S12       1.0  0.76600  0.53200  0.89900  1.0000
