data_image0
_chemical_formula_structural       B8O14Sr2
_chemical_formula_sum              "B8 O14 Sr2"
_cell_length_a       4.2282
_cell_length_b       4.41609
_cell_length_c       10.681
_cell_angle_alpha    90
_cell_angle_beta     90
_cell_angle_gamma    90

_space_group_name_H-M_alt    "P 1"
_space_group_IT_number       1

loop_
  _space_group_symop_operation_xyz
  'x, y, z'

loop_
  _atom_site_type_symbol
  _atom_site_label
  _atom_site_symmetry_multiplicity
  _atom_site_fract_x
  _atom_site_fract_y
  _atom_site_fract_z
  _atom_site_occupancy
  B   B1        1.0  0.47400  0.67400  0.12100  1.0000
  B   B2        1.0  0.99700  0.82200  0.24900  1.0000
  B   B3        1.0  0.49700  0.17800  0.25100  1.0000
  B   B4        1.0  0.97400  0.32600  0.37900  1.0000
  B   B5        1.0  0.97400  0.32600  0.62100  1.0000
  B   B6        1.0  0.49700  0.17800  0.74900  1.0000
  B   B7        1.0  0.99700  0.82200  0.75100  1.0000
  B   B8        1.0  0.47400  0.67400  0.87900  1.0000
  O   O1        1.0  0.58100  0.77700  0.00000  1.0000
  O   O2        1.0  0.13500  0.72500  0.13500  1.0000
  O   O3        1.0  0.54600  0.35500  0.14000  1.0000
  O   O4        1.0  0.63800  0.86600  0.22400  1.0000
  O   O5        1.0  0.13800  0.13400  0.27600  1.0000
  O   O6        1.0  0.04630  0.64500  0.36000  1.0000
  O   O7        1.0  0.63500  0.27500  0.36500  1.0000
  O   O8        1.0  0.08100  0.22300  0.50000  1.0000
  O   O9        1.0  0.63500  0.27500  0.63500  1.0000
  O   O10       1.0  0.04630  0.64500  0.64000  1.0000
  O   O11       1.0  0.13800  0.13400  0.72400  1.0000
  O   O12       1.0  0.63800  0.86600  0.77600  1.0000
  O   O13       1.0  0.54600  0.35500  0.86000  1.0000
  O   O14       1.0  0.13500  0.72500  0.86500  1.0000
  Sr  Sr1       1.0  0.00613  0.21200  0.00000  1.0000
  Sr  Sr2       1.0  0.50600  0.78800  0.50000  1.0000
