data_image0
_chemical_formula_structural       K8O12Zr4
_chemical_formula_sum              "K8 O12 Zr4"
_cell_length_a       5.88459
_cell_length_b       10.423
_cell_length_c       6.94294
_cell_angle_alpha    90
_cell_angle_beta     90
_cell_angle_gamma    90

_space_group_name_H-M_alt    "P 1"
_space_group_IT_number       1

loop_
  _space_group_symop_operation_xyz
  'x, y, z'

loop_
  _atom_site_type_symbol
  _atom_site_label
  _atom_site_symmetry_multiplicity
  _atom_site_fract_x
  _atom_site_fract_y
  _atom_site_fract_z
  _atom_site_occupancy
  K   K1        1.0  0.26600  0.58500  0.11000  1.0000
  K   K2        1.0  0.26600  0.91500  0.11000  1.0000
  K   K3        1.0  0.76600  0.58500  0.39000  1.0000
  K   K4        1.0  0.76600  0.91500  0.39000  1.0000
  K   K5        1.0  0.23400  0.08510  0.61000  1.0000
  K   K6        1.0  0.23400  0.41500  0.61000  1.0000
  K   K7        1.0  0.73400  0.08510  0.89000  1.0000
  K   K8        1.0  0.73400  0.41500  0.89000  1.0000
  O   O1        1.0  0.66600  0.75000  0.11600  1.0000
  O   O2        1.0  0.01210  0.11900  0.23100  1.0000
  O   O3        1.0  0.01210  0.38100  0.23100  1.0000
  O   O4        1.0  0.51200  0.11900  0.26900  1.0000
  O   O5        1.0  0.51200  0.38100  0.26900  1.0000
  O   O6        1.0  0.16600  0.75000  0.38400  1.0000
  O   O7        1.0  0.83400  0.25000  0.61600  1.0000
  O   O8        1.0  0.48800  0.61900  0.73100  1.0000
  O   O9        1.0  0.48800  0.88100  0.73100  1.0000
  O   O10       1.0  0.98800  0.61900  0.76900  1.0000
  O   O11       1.0  0.98800  0.88100  0.76900  1.0000
  O   O12       1.0  0.33400  0.25000  0.88400  1.0000
  Zr  Zr1       1.0  0.27300  0.25000  0.15600  1.0000
  Zr  Zr2       1.0  0.77300  0.25000  0.34400  1.0000
  Zr  Zr3       1.0  0.22700  0.75000  0.65600  1.0000
  Zr  Zr4       1.0  0.72700  0.75000  0.84400  1.0000
