data_image0
_chemical_formula_structural       Cl4Cr4O12Rb4
_chemical_formula_sum              "Cl4 Cr4 O12 Rb4"
_cell_length_a       7.82128
_cell_length_b       7.59096
_cell_length_c       7.96238
_cell_angle_alpha    90
_cell_angle_beta     90.1456
_cell_angle_gamma    90

_space_group_name_H-M_alt    "P 1"
_space_group_IT_number       1

loop_
  _space_group_symop_operation_xyz
  'x, y, z'

loop_
  _atom_site_type_symbol
  _atom_site_label
  _atom_site_symmetry_multiplicity
  _atom_site_fract_x
  _atom_site_fract_y
  _atom_site_fract_z
  _atom_site_occupancy
  Cl  Cl1       1.0  0.45800  0.28500  0.13800  1.0000
  Cl  Cl2       1.0  0.54200  0.78500  0.36200  1.0000
  Cl  Cl3       1.0  0.45800  0.21500  0.63800  1.0000
  Cl  Cl4       1.0  0.54200  0.71500  0.86200  1.0000
  Cr  Cr1       1.0  0.22500  0.13000  0.12600  1.0000
  Cr  Cr2       1.0  0.77500  0.63000  0.37400  1.0000
  Cr  Cr3       1.0  0.22500  0.37000  0.62600  1.0000
  Cr  Cr4       1.0  0.77500  0.87000  0.87400  1.0000
  O   O1        1.0  0.77100  0.99800  0.03650  1.0000
  O   O2        1.0  0.06650  0.26800  0.11400  1.0000
  O   O3        1.0  0.79200  0.51100  0.20500  1.0000
  O   O4        1.0  0.20800  0.01130  0.29500  1.0000
  O   O5        1.0  0.93400  0.76800  0.38600  1.0000
  O   O6        1.0  0.22900  0.49800  0.46400  1.0000
  O   O7        1.0  0.77100  0.50200  0.53600  1.0000
  O   O8        1.0  0.06650  0.23200  0.61400  1.0000
  O   O9        1.0  0.79200  0.98900  0.70500  1.0000
  O   O10       1.0  0.20800  0.48900  0.79500  1.0000
  O   O11       1.0  0.93400  0.73200  0.88600  1.0000
  O   O12       1.0  0.22900  0.00155  0.96400  1.0000
  Rb  Rb1       1.0  0.18900  0.64600  0.13300  1.0000
  Rb  Rb2       1.0  0.81100  0.14600  0.36700  1.0000
  Rb  Rb3       1.0  0.18900  0.85400  0.63300  1.0000
  Rb  Rb4       1.0  0.81100  0.35400  0.86700  1.0000
