data_image0
_chemical_formula_structural       Cu4O16S4
_chemical_formula_sum              "Cu4 O16 S4"
_cell_length_a       8.34911
_cell_length_b       6.63694
_cell_length_c       4.79593
_cell_angle_alpha    90
_cell_angle_beta     90
_cell_angle_gamma    90

_space_group_name_H-M_alt    "P 1"
_space_group_IT_number       1

loop_
  _space_group_symop_operation_xyz
  'x, y, z'

loop_
  _atom_site_type_symbol
  _atom_site_label
  _atom_site_symmetry_multiplicity
  _atom_site_fract_x
  _atom_site_fract_y
  _atom_site_fract_z
  _atom_site_occupancy
  Cu  Cu1       1.0  0.00000  0.00000  0.00000  1.0000
  Cu  Cu2       1.0  0.00000  0.50000  0.00000  1.0000
  Cu  Cu3       1.0  0.50000  0.00000  0.50000  1.0000
  Cu  Cu4       1.0  0.50000  0.50000  0.50000  1.0000
  O   O1        1.0  0.87000  0.25000  0.07080  1.0000
  O   O2        1.0  0.63400  0.06240  0.18400  1.0000
  O   O3        1.0  0.63400  0.43800  0.18400  1.0000
  O   O4        1.0  0.36300  0.75000  0.24700  1.0000
  O   O5        1.0  0.86300  0.75000  0.25300  1.0000
  O   O6        1.0  0.13400  0.06240  0.31600  1.0000
  O   O7        1.0  0.13400  0.43800  0.31600  1.0000
  O   O8        1.0  0.37000  0.25000  0.42900  1.0000
  O   O9        1.0  0.63000  0.75000  0.57100  1.0000
  O   O10       1.0  0.86600  0.56200  0.68400  1.0000
  O   O11       1.0  0.86600  0.93800  0.68400  1.0000
  O   O12       1.0  0.13700  0.25000  0.74700  1.0000
  O   O13       1.0  0.63700  0.25000  0.75300  1.0000
  O   O14       1.0  0.36600  0.56200  0.81600  1.0000
  O   O15       1.0  0.36600  0.93800  0.81600  1.0000
  O   O16       1.0  0.13000  0.75000  0.92900  1.0000
  S   S1        1.0  0.68500  0.25000  0.04560  1.0000
  S   S2        1.0  0.18500  0.25000  0.45400  1.0000
  S   S3        1.0  0.81500  0.75000  0.54600  1.0000
  S   S4        1.0  0.31500  0.75000  0.95400  1.0000
