data_image0
_chemical_formula_structural       Cd2Cs4O8
_chemical_formula_sum              "Cd2 Cs4 O8"
_cell_length_a       7.57967
_cell_length_b       7.57967
_cell_length_c       7.57967
_cell_angle_alpha    120.02
_cell_angle_beta     89.9651
_cell_angle_gamma    120.02

_space_group_name_H-M_alt    "P 1"
_space_group_IT_number       1

loop_
  _space_group_symop_operation_xyz
  'x, y, z'

loop_
  _atom_site_type_symbol
  _atom_site_label
  _atom_site_symmetry_multiplicity
  _atom_site_fract_x
  _atom_site_fract_y
  _atom_site_fract_z
  _atom_site_occupancy
  Cd  Cd1       1.0  0.00000  0.00000  0.00000  1.0000
  Cd  Cd2       1.0  0.75000  0.50000  0.25000  1.0000
  Cs  Cs1       1.0  0.37500  0.75000  0.12500  1.0000
  Cs  Cs2       1.0  0.87500  0.25000  0.62500  1.0000
  Cs  Cs3       1.0  0.37500  0.75000  0.62500  1.0000
  Cs  Cs4       1.0  0.37500  0.25000  0.62500  1.0000
  O   O1        1.0  0.11300  0.22600  0.33900  1.0000
  O   O2        1.0  0.08880  0.72600  0.36300  1.0000
  O   O3        1.0  0.63700  0.27400  0.36300  1.0000
  O   O4        1.0  0.63700  0.72600  0.36300  1.0000
  O   O5        1.0  0.11300  0.77400  0.88700  1.0000
  O   O6        1.0  0.11300  0.22600  0.88700  1.0000
  O   O7        1.0  0.66100  0.77400  0.88700  1.0000
  O   O8        1.0  0.63700  0.27400  0.91100  1.0000
