data_image0
_chemical_formula_structural       Au8Br8Se8
_chemical_formula_sum              "Au8 Br8 Se8"
_cell_length_a       6.89124
_cell_length_b       12.132
_cell_length_c       7.52697
_cell_angle_alpha    90
_cell_angle_beta     90
_cell_angle_gamma    90

_space_group_name_H-M_alt    "P 1"
_space_group_IT_number       1

loop_
  _space_group_symop_operation_xyz
  'x, y, z'

loop_
  _atom_site_type_symbol
  _atom_site_label
  _atom_site_symmetry_multiplicity
  _atom_site_fract_x
  _atom_site_fract_y
  _atom_site_fract_z
  _atom_site_occupancy
  Au  Au1       1.0  0.08770  0.25000  0.14200  1.0000
  Au  Au2       1.0  0.16600  0.75000  0.25000  1.0000
  Au  Au3       1.0  0.66600  0.75000  0.25000  1.0000
  Au  Au4       1.0  0.58800  0.25000  0.35800  1.0000
  Au  Au5       1.0  0.41200  0.75000  0.64200  1.0000
  Au  Au6       1.0  0.33400  0.25000  0.75000  1.0000
  Au  Au7       1.0  0.83400  0.25000  0.75000  1.0000
  Au  Au8       1.0  0.91200  0.75000  0.85800  1.0000
  Br  Br1       1.0  0.58800  0.10000  0.12700  1.0000
  Br  Br2       1.0  0.58800  0.40000  0.12700  1.0000
  Br  Br3       1.0  0.08790  0.10000  0.37300  1.0000
  Br  Br4       1.0  0.08790  0.40000  0.37300  1.0000
  Br  Br5       1.0  0.91200  0.60000  0.62700  1.0000
  Br  Br6       1.0  0.91200  0.90000  0.62700  1.0000
  Br  Br7       1.0  0.41200  0.60000  0.87300  1.0000
  Br  Br8       1.0  0.41200  0.90000  0.87300  1.0000
  Se  Se1       1.0  0.91600  0.62200  0.11700  1.0000
  Se  Se2       1.0  0.91600  0.87800  0.11700  1.0000
  Se  Se3       1.0  0.41600  0.62200  0.38300  1.0000
  Se  Se4       1.0  0.41600  0.87800  0.38300  1.0000
  Se  Se5       1.0  0.58400  0.12200  0.61700  1.0000
  Se  Se6       1.0  0.58400  0.37800  0.61700  1.0000
  Se  Se7       1.0  0.08380  0.12200  0.88300  1.0000
  Se  Se8       1.0  0.08380  0.37800  0.88300  1.0000
