data_image0
_chemical_formula_structural       Na4O14Ti6
_chemical_formula_sum              "Na4 O14 Ti6"
_cell_length_a       8.49045
_cell_length_b       3.81083
_cell_length_c       9.10393
_cell_angle_alpha    90
_cell_angle_beta     101.797
_cell_angle_gamma    90

_space_group_name_H-M_alt    "P 1"
_space_group_IT_number       1

loop_
  _space_group_symop_operation_xyz
  'x, y, z'

loop_
  _atom_site_type_symbol
  _atom_site_label
  _atom_site_symmetry_multiplicity
  _atom_site_fract_x
  _atom_site_fract_y
  _atom_site_fract_z
  _atom_site_occupancy
  Na  Na1       1.0  0.49700  0.25000  0.16000  1.0000
  Na  Na2       1.0  0.31300  0.75000  0.41600  1.0000
  Na  Na3       1.0  0.68700  0.25000  0.58400  1.0000
  Na  Na4       1.0  0.50300  0.75000  0.84000  1.0000
  O   O1        1.0  0.91300  0.25000  0.04270  1.0000
  O   O2        1.0  0.66800  0.75000  0.08890  1.0000
  O   O3        1.0  0.22200  0.25000  0.19100  1.0000
  O   O4        1.0  0.98400  0.75000  0.24600  1.0000
  O   O5        1.0  0.79800  0.25000  0.31500  1.0000
  O   O6        1.0  0.54700  0.75000  0.34600  1.0000
  O   O7        1.0  0.14900  0.25000  0.46600  1.0000
  O   O8        1.0  0.85100  0.75000  0.53400  1.0000
  O   O9        1.0  0.45300  0.25000  0.65400  1.0000
  O   O10       1.0  0.20200  0.75000  0.68500  1.0000
  O   O11       1.0  0.01600  0.25000  0.75400  1.0000
  O   O12       1.0  0.77800  0.75000  0.80900  1.0000
  O   O13       1.0  0.33200  0.25000  0.91100  1.0000
  O   O14       1.0  0.08670  0.75000  0.95700  1.0000
  Ti  Ti1       1.0  0.85200  0.75000  0.01440  1.0000
  Ti  Ti2       1.0  0.02830  0.25000  0.27900  1.0000
  Ti  Ti3       1.0  0.74700  0.75000  0.32100  1.0000
  Ti  Ti4       1.0  0.25300  0.25000  0.67900  1.0000
  Ti  Ti5       1.0  0.97200  0.75000  0.72100  1.0000
  Ti  Ti6       1.0  0.14800  0.25000  0.98600  1.0000
