data_image0
_chemical_formula_structural       Ba3Ga3O14Si2Ta
_chemical_formula_sum              "Ba3 Ga3 O14 Si2 Ta1"
_cell_length_a       8.52328
_cell_length_b       8.52328
_cell_length_c       5.19002
_cell_angle_alpha    90
_cell_angle_beta     90
_cell_angle_gamma    120

_space_group_name_H-M_alt    "P 1"
_space_group_IT_number       1

loop_
  _space_group_symop_operation_xyz
  'x, y, z'

loop_
  _atom_site_type_symbol
  _atom_site_label
  _atom_site_symmetry_multiplicity
  _atom_site_fract_x
  _atom_site_fract_y
  _atom_site_fract_z
  _atom_site_occupancy
  Ba  Ba1       1.0  0.43300  0.00000  0.00000  1.0000
  Ba  Ba2       1.0  0.00000  0.43300  0.00000  1.0000
  Ba  Ba3       1.0  0.56700  0.56700  0.00000  1.0000
  Ga  Ga1       1.0  0.74500  0.00000  0.50000  1.0000
  Ga  Ga2       1.0  0.25500  0.25500  0.50000  1.0000
  Ga  Ga3       1.0  0.00000  0.74500  0.50000  1.0000
  O   O1        1.0  0.33300  0.66700  0.21100  1.0000
  O   O2        1.0  0.10500  0.21900  0.22600  1.0000
  O   O3        1.0  0.78100  0.88700  0.22600  1.0000
  O   O4        1.0  0.11300  0.89500  0.22600  1.0000
  O   O5        1.0  0.70300  0.17600  0.35100  1.0000
  O   O6        1.0  0.47400  0.29700  0.35100  1.0000
  O   O7        1.0  0.82400  0.52600  0.35100  1.0000
  O   O8        1.0  0.29700  0.47400  0.64900  1.0000
  O   O9        1.0  0.17600  0.70300  0.64900  1.0000
  O   O10       1.0  0.52600  0.82400  0.64900  1.0000
  O   O11       1.0  0.21900  0.10500  0.77400  1.0000
  O   O12       1.0  0.89500  0.11300  0.77400  1.0000
  O   O13       1.0  0.88700  0.78100  0.77400  1.0000
  O   O14       1.0  0.66700  0.33300  0.78900  1.0000
  Si  Si1       1.0  0.66700  0.33300  0.48000  1.0000
  Si  Si2       1.0  0.33300  0.66700  0.52000  1.0000
  Ta  Ta1       1.0  0.00000  0.00000  0.00000  1.0000
