data_image0
_chemical_formula_structural       O12Sn4Tl8
_chemical_formula_sum              "O12 Sn4 Tl8"
_cell_length_a       10.2129
_cell_length_b       12.415
_cell_length_c       3.26268
_cell_angle_alpha    90
_cell_angle_beta     90
_cell_angle_gamma    90

_space_group_name_H-M_alt    "P 1"
_space_group_IT_number       1

loop_
  _space_group_symop_operation_xyz
  'x, y, z'

loop_
  _atom_site_type_symbol
  _atom_site_label
  _atom_site_symmetry_multiplicity
  _atom_site_fract_x
  _atom_site_fract_y
  _atom_site_fract_z
  _atom_site_occupancy
  O   O1        1.0  0.39100  0.00888  0.25000  1.0000
  O   O2        1.0  0.54300  0.19400  0.25000  1.0000
  O   O3        1.0  0.04290  0.30600  0.25000  1.0000
  O   O4        1.0  0.89100  0.49100  0.25000  1.0000
  O   O5        1.0  0.21400  0.69200  0.25000  1.0000
  O   O6        1.0  0.71400  0.80800  0.25000  1.0000
  O   O7        1.0  0.28600  0.19200  0.75000  1.0000
  O   O8        1.0  0.78600  0.30800  0.75000  1.0000
  O   O9        1.0  0.10900  0.50900  0.75000  1.0000
  O   O10       1.0  0.95700  0.69400  0.75000  1.0000
  O   O11       1.0  0.45700  0.80600  0.75000  1.0000
  O   O12       1.0  0.60900  0.99100  0.75000  1.0000
  Sn  Sn1       1.0  0.04010  0.61200  0.25000  1.0000
  Sn  Sn2       1.0  0.54000  0.88800  0.25000  1.0000
  Sn  Sn3       1.0  0.46000  0.11200  0.75000  1.0000
  Sn  Sn4       1.0  0.96000  0.38800  0.75000  1.0000
  Tl  Tl1       1.0  0.13100  0.10200  0.25000  1.0000
  Tl  Tl2       1.0  0.79400  0.15100  0.25000  1.0000
  Tl  Tl3       1.0  0.29400  0.34900  0.25000  1.0000
  Tl  Tl4       1.0  0.63100  0.39800  0.25000  1.0000
  Tl  Tl5       1.0  0.36900  0.60200  0.75000  1.0000
  Tl  Tl6       1.0  0.70600  0.65100  0.75000  1.0000
  Tl  Tl7       1.0  0.20600  0.84900  0.75000  1.0000
  Tl  Tl8       1.0  0.86900  0.89800  0.75000  1.0000
