data_image0
_chemical_formula_structural       Na8O12Pt4
_chemical_formula_sum              "Na8 O12 Pt4"
_cell_length_a       5.49463
_cell_length_b       5.49463
_cell_length_c       9.94865
_cell_angle_alpha    100.612
_cell_angle_beta     100.612
_cell_angle_gamma    109.458

_space_group_name_H-M_alt    "P 1"
_space_group_IT_number       1

loop_
  _space_group_symop_operation_xyz
  'x, y, z'

loop_
  _atom_site_type_symbol
  _atom_site_label
  _atom_site_symmetry_multiplicity
  _atom_site_fract_x
  _atom_site_fract_y
  _atom_site_fract_z
  _atom_site_occupancy
  Na  Na1       1.0  0.50600  0.00589  0.01180  1.0000
  Na  Na2       1.0  0.57900  0.57900  0.15900  1.0000
  Na  Na3       1.0  0.67100  0.17100  0.34100  1.0000
  Na  Na4       1.0  0.74400  0.74400  0.48800  1.0000
  Na  Na5       1.0  0.25600  0.25600  0.51200  1.0000
  Na  Na6       1.0  0.82900  0.32900  0.65900  1.0000
  Na  Na7       1.0  0.42100  0.42100  0.84100  1.0000
  Na  Na8       1.0  0.99400  0.49400  0.98800  1.0000
  O   O1        1.0  0.21200  0.21200  0.00000  1.0000
  O   O2        1.0  0.78800  0.78800  0.00000  1.0000
  O   O3        1.0  0.88000  0.34100  0.17900  1.0000
  O   O4        1.0  0.29800  0.83700  0.17900  1.0000
  O   O5        1.0  0.37000  0.40900  0.32100  1.0000
  O   O6        1.0  0.95200  0.91300  0.32100  1.0000
  O   O7        1.0  0.03790  0.53800  0.50000  1.0000
  O   O8        1.0  0.46200  0.96200  0.50000  1.0000
  O   O9        1.0  0.08710  0.04840  0.67900  1.0000
  O   O10       1.0  0.59100  0.63000  0.67900  1.0000
  O   O11       1.0  0.65900  0.12000  0.82100  1.0000
  O   O12       1.0  0.16300  0.70200  0.82100  1.0000
  Pt  Pt1       1.0  0.08350  0.08350  0.16700  1.0000
  Pt  Pt2       1.0  0.16600  0.66600  0.33300  1.0000
  Pt  Pt3       1.0  0.33400  0.83400  0.66700  1.0000
  Pt  Pt4       1.0  0.91600  0.91600  0.83300  1.0000
