data_image0
_chemical_formula_structural       Ba8Mn4Se12
_chemical_formula_sum              "Ba8 Mn4 Se12"
_cell_length_a       9.21406
_cell_length_b       4.51333
_cell_length_c       17.8526
_cell_angle_alpha    90
_cell_angle_beta     90
_cell_angle_gamma    90

_space_group_name_H-M_alt    "P 1"
_space_group_IT_number       1

loop_
  _space_group_symop_operation_xyz
  'x, y, z'

loop_
  _atom_site_type_symbol
  _atom_site_label
  _atom_site_symmetry_multiplicity
  _atom_site_fract_x
  _atom_site_fract_y
  _atom_site_fract_z
  _atom_site_occupancy
  Ba  Ba1       1.0  0.75300  0.25000  0.04240  1.0000
  Ba  Ba2       1.0  0.08320  0.75000  0.21400  1.0000
  Ba  Ba3       1.0  0.58300  0.75000  0.28600  1.0000
  Ba  Ba4       1.0  0.25300  0.25000  0.45800  1.0000
  Ba  Ba5       1.0  0.74700  0.75000  0.54200  1.0000
  Ba  Ba6       1.0  0.41700  0.25000  0.71400  1.0000
  Ba  Ba7       1.0  0.91700  0.25000  0.78600  1.0000
  Ba  Ba8       1.0  0.24700  0.75000  0.95800  1.0000
  Mn  Mn1       1.0  0.37000  0.25000  0.13400  1.0000
  Mn  Mn2       1.0  0.87000  0.25000  0.36600  1.0000
  Mn  Mn3       1.0  0.13000  0.75000  0.63400  1.0000
  Mn  Mn4       1.0  0.63000  0.75000  0.86600  1.0000
  Se  Se1       1.0  0.12600  0.25000  0.07250  1.0000
  Se  Se2       1.0  0.49800  0.75000  0.10100  1.0000
  Se  Se3       1.0  0.82000  0.25000  0.22700  1.0000
  Se  Se4       1.0  0.32000  0.25000  0.27300  1.0000
  Se  Se5       1.0  0.99800  0.75000  0.39900  1.0000
  Se  Se6       1.0  0.62600  0.25000  0.42700  1.0000
  Se  Se7       1.0  0.37400  0.75000  0.57300  1.0000
  Se  Se8       1.0  0.00238  0.25000  0.60100  1.0000
  Se  Se9       1.0  0.68000  0.75000  0.72700  1.0000
  Se  Se10      1.0  0.18000  0.75000  0.77300  1.0000
  Se  Se11      1.0  0.50200  0.25000  0.89900  1.0000
  Se  Se12      1.0  0.87400  0.75000  0.92700  1.0000
