data_image0
_chemical_formula_structural       Ir4O13Pb4
_chemical_formula_sum              "Ir4 O13 Pb4"
_cell_length_a       7.26899
_cell_length_b       7.26899
_cell_length_c       7.26899
_cell_angle_alpha    120
_cell_angle_beta     90
_cell_angle_gamma    120

_space_group_name_H-M_alt    "P 1"
_space_group_IT_number       1

loop_
  _space_group_symop_operation_xyz
  'x, y, z'

loop_
  _atom_site_type_symbol
  _atom_site_label
  _atom_site_symmetry_multiplicity
  _atom_site_fract_x
  _atom_site_fract_y
  _atom_site_fract_z
  _atom_site_occupancy
  Ir  Ir1       1.0  0.62500  0.25000  0.37500  1.0000
  Ir  Ir2       1.0  0.12600  0.75000  0.37500  1.0000
  Ir  Ir3       1.0  0.62500  0.75000  0.37500  1.0000
  Ir  Ir4       1.0  0.62500  0.25000  0.87400  1.0000
  O   O1        1.0  0.54500  0.09010  0.04510  1.0000
  O   O2        1.0  0.54500  0.50000  0.04510  1.0000
  O   O3        1.0  0.95500  0.50000  0.04510  1.0000
  O   O4        1.0  0.29800  0.00000  0.29800  1.0000
  O   O5        1.0  0.70200  0.00000  0.29800  1.0000
  O   O6        1.0  0.29800  0.59600  0.29800  1.0000
  O   O7        1.0  0.95500  0.50000  0.45500  1.0000
  O   O8        1.0  0.95500  0.91000  0.45500  1.0000
  O   O9        1.0  0.54500  0.50000  0.45500  1.0000
  O   O10       1.0  0.29800  0.00000  0.70200  1.0000
  O   O11       1.0  0.70200  0.00000  0.70200  1.0000
  O   O12       1.0  0.70200  0.40400  0.70200  1.0000
  O   O13       1.0  0.25000  0.50000  0.75000  1.0000
  Pb  Pb1       1.0  0.12200  0.24400  0.36600  1.0000
  Pb  Pb2       1.0  0.12200  0.24400  0.87800  1.0000
  Pb  Pb3       1.0  0.12200  0.75600  0.87800  1.0000
  Pb  Pb4       1.0  0.63400  0.75600  0.87800  1.0000
