data_image0
_chemical_formula_structural       Ce4F16K4
_chemical_formula_sum              "Ce4 F16 K4"
_cell_length_a       6.20713
_cell_length_b       3.76405
_cell_length_c       15.3198
_cell_angle_alpha    90
_cell_angle_beta     90
_cell_angle_gamma    90

_space_group_name_H-M_alt    "P 1"
_space_group_IT_number       1

loop_
  _space_group_symop_operation_xyz
  'x, y, z'

loop_
  _atom_site_type_symbol
  _atom_site_label
  _atom_site_symmetry_multiplicity
  _atom_site_fract_x
  _atom_site_fract_y
  _atom_site_fract_z
  _atom_site_occupancy
  Ce  Ce1       1.0  0.75100  0.25000  0.06280  1.0000
  Ce  Ce2       1.0  0.25100  0.25000  0.43700  1.0000
  Ce  Ce3       1.0  0.74900  0.75000  0.56300  1.0000
  Ce  Ce4       1.0  0.24900  0.75000  0.93700  1.0000
  F   F1        1.0  0.14200  0.25000  0.03950  1.0000
  F   F2        1.0  0.49300  0.75000  0.06120  1.0000
  F   F3        1.0  0.90100  0.75000  0.13800  1.0000
  F   F4        1.0  0.58300  0.25000  0.20000  1.0000
  F   F5        1.0  0.08310  0.25000  0.30000  1.0000
  F   F6        1.0  0.40100  0.75000  0.36200  1.0000
  F   F7        1.0  0.99300  0.75000  0.43900  1.0000
  F   F8        1.0  0.64200  0.25000  0.46100  1.0000
  F   F9        1.0  0.35800  0.75000  0.53900  1.0000
  F   F10       1.0  0.00711  0.25000  0.56100  1.0000
  F   F11       1.0  0.59900  0.25000  0.63800  1.0000
  F   F12       1.0  0.91700  0.75000  0.70000  1.0000
  F   F13       1.0  0.41700  0.75000  0.80000  1.0000
  F   F14       1.0  0.09940  0.25000  0.86200  1.0000
  F   F15       1.0  0.50700  0.25000  0.93900  1.0000
  F   F16       1.0  0.85800  0.75000  0.96100  1.0000
  K   K1        1.0  0.27600  0.75000  0.20200  1.0000
  K   K2        1.0  0.77600  0.75000  0.29800  1.0000
  K   K3        1.0  0.22400  0.25000  0.70200  1.0000
  K   K4        1.0  0.72400  0.25000  0.79800  1.0000
