data_image0
_chemical_formula_structural       Fe2Li2O16W4
_chemical_formula_sum              "Fe2 Li2 O16 W4"
_cell_length_a       4.89472
_cell_length_b       7.33536
_cell_length_c       7.33536
_cell_angle_alpha    101.971
_cell_angle_beta     90.1808
_cell_angle_gamma    90.1808

_space_group_name_H-M_alt    "P 1"
_space_group_IT_number       1

loop_
  _space_group_symop_operation_xyz
  'x, y, z'

loop_
  _atom_site_type_symbol
  _atom_site_label
  _atom_site_symmetry_multiplicity
  _atom_site_fract_x
  _atom_site_fract_y
  _atom_site_fract_z
  _atom_site_occupancy
  Fe  Fe1       1.0  0.25000  0.66600  0.33400  1.0000
  Fe  Fe2       1.0  0.75000  0.33400  0.66600  1.0000
  Li  Li1       1.0  0.75000  0.83700  0.16300  1.0000
  Li  Li2       1.0  0.25000  0.16300  0.83700  1.0000
  O   O1        1.0  0.39800  0.68400  0.07440  1.0000
  O   O2        1.0  0.06070  0.19200  0.09210  1.0000
  O   O3        1.0  0.56100  0.09210  0.19200  1.0000
  O   O4        1.0  0.91400  0.56400  0.19700  1.0000
  O   O5        1.0  0.42500  0.42200  0.30600  1.0000
  O   O6        1.0  0.10200  0.92600  0.31600  1.0000
  O   O7        1.0  0.92500  0.30600  0.42200  1.0000
  O   O8        1.0  0.58600  0.80300  0.43600  1.0000
  O   O9        1.0  0.41400  0.19700  0.56400  1.0000
  O   O10       1.0  0.07460  0.69400  0.57800  1.0000
  O   O11       1.0  0.89800  0.07440  0.68400  1.0000
  O   O12       1.0  0.57500  0.57800  0.69400  1.0000
  O   O13       1.0  0.08630  0.43600  0.80300  1.0000
  O   O14       1.0  0.43900  0.90800  0.80800  1.0000
  O   O15       1.0  0.93900  0.80800  0.90800  1.0000
  O   O16       1.0  0.60200  0.31600  0.92600  1.0000
  W   W1        1.0  0.74700  0.33800  0.15400  1.0000
  W   W2        1.0  0.24700  0.15400  0.33800  1.0000
  W   W3        1.0  0.75300  0.84600  0.66200  1.0000
  W   W4        1.0  0.25300  0.66200  0.84600  1.0000
