data_image0
_chemical_formula_structural       Ba2Fe8O14
_chemical_formula_sum              "Ba2 Fe8 O14"
_cell_length_a       5.17698
_cell_length_b       5.17694
_cell_length_c       13.8091
_cell_angle_alpha    90
_cell_angle_beta     90
_cell_angle_gamma    120

_space_group_name_H-M_alt    "P 1"
_space_group_IT_number       1

loop_
  _space_group_symop_operation_xyz
  'x, y, z'

loop_
  _atom_site_type_symbol
  _atom_site_label
  _atom_site_symmetry_multiplicity
  _atom_site_fract_x
  _atom_site_fract_y
  _atom_site_fract_z
  _atom_site_occupancy
  Ba  Ba1       1.0  0.66700  0.33300  0.25000  1.0000
  Ba  Ba2       1.0  0.33300  0.66700  0.75000  1.0000
  Fe  Fe1       1.0  0.33300  0.66700  0.00775  1.0000
  Fe  Fe2       1.0  0.00000  0.00000  0.11400  1.0000
  Fe  Fe3       1.0  0.00000  0.00000  0.38600  1.0000
  Fe  Fe4       1.0  0.33300  0.66700  0.49200  1.0000
  Fe  Fe5       1.0  0.66700  0.33300  0.50800  1.0000
  Fe  Fe6       1.0  0.00000  0.00000  0.61400  1.0000
  Fe  Fe7       1.0  0.00000  0.00000  0.88600  1.0000
  Fe  Fe8       1.0  0.66700  0.33300  0.99200  1.0000
  O   O1        1.0  0.36100  0.35100  0.08340  1.0000
  O   O2        1.0  0.64900  0.00935  0.08340  1.0000
  O   O3        1.0  0.99100  0.63900  0.08340  1.0000
  O   O4        1.0  0.00000  0.00000  0.25000  1.0000
  O   O5        1.0  0.64900  0.00935  0.41700  1.0000
  O   O6        1.0  0.99100  0.63900  0.41700  1.0000
  O   O7        1.0  0.36100  0.35100  0.41700  1.0000
  O   O8        1.0  0.63900  0.64900  0.58300  1.0000
  O   O9        1.0  0.00935  0.36100  0.58300  1.0000
  O   O10       1.0  0.35100  0.99100  0.58300  1.0000
  O   O11       1.0  0.00000  0.00000  0.75000  1.0000
  O   O12       1.0  0.00935  0.36100  0.91700  1.0000
  O   O13       1.0  0.35100  0.99100  0.91700  1.0000
  O   O14       1.0  0.63900  0.64900  0.91700  1.0000
