data_image0
_chemical_formula_structural       O16Pb4S4
_chemical_formula_sum              "O16 Pb4 S4"
_cell_length_a       8.4368
_cell_length_b       5.35972
_cell_length_c       6.93388
_cell_angle_alpha    90
_cell_angle_beta     90
_cell_angle_gamma    90

_space_group_name_H-M_alt    "P 1"
_space_group_IT_number       1

loop_
  _space_group_symop_operation_xyz
  'x, y, z'

loop_
  _atom_site_type_symbol
  _atom_site_label
  _atom_site_symmetry_multiplicity
  _atom_site_fract_x
  _atom_site_fract_y
  _atom_site_fract_z
  _atom_site_occupancy
  O   O1        1.0  0.30900  0.75000  0.03950  1.0000
  O   O2        1.0  0.59700  0.75000  0.10000  1.0000
  O   O3        1.0  0.91900  0.52300  0.18900  1.0000
  O   O4        1.0  0.91900  0.97700  0.18900  1.0000
  O   O5        1.0  0.41900  0.52300  0.31100  1.0000
  O   O6        1.0  0.41900  0.97700  0.31100  1.0000
  O   O7        1.0  0.09710  0.75000  0.40000  1.0000
  O   O8        1.0  0.80900  0.75000  0.46100  1.0000
  O   O9        1.0  0.19100  0.25000  0.53900  1.0000
  O   O10       1.0  0.90300  0.25000  0.60000  1.0000
  O   O11       1.0  0.58100  0.02310  0.68900  1.0000
  O   O12       1.0  0.58100  0.47700  0.68900  1.0000
  O   O13       1.0  0.08090  0.02310  0.81100  1.0000
  O   O14       1.0  0.08090  0.47700  0.81100  1.0000
  O   O15       1.0  0.40300  0.25000  0.90000  1.0000
  O   O16       1.0  0.69100  0.25000  0.96100  1.0000
  Pb  Pb1       1.0  0.18600  0.25000  0.16300  1.0000
  Pb  Pb2       1.0  0.68600  0.25000  0.33700  1.0000
  Pb  Pb3       1.0  0.31400  0.75000  0.66300  1.0000
  Pb  Pb4       1.0  0.81400  0.75000  0.83700  1.0000
  S   S1        1.0  0.43800  0.75000  0.18500  1.0000
  S   S2        1.0  0.93800  0.75000  0.31500  1.0000
  S   S3        1.0  0.06220  0.25000  0.68500  1.0000
  S   S4        1.0  0.56200  0.25000  0.81500  1.0000
