data_image0
_chemical_formula_structural       K4N2O14S4
_chemical_formula_sum              "K4 N2 O14 S4"
_cell_length_a       7.38883
_cell_length_b       7.09733
_cell_length_c       7.02035
_cell_angle_alpha    101.617
_cell_angle_beta     81.9981
_cell_angle_gamma    112.886

_space_group_name_H-M_alt    "P 1"
_space_group_IT_number       1

loop_
  _space_group_symop_operation_xyz
  'x, y, z'

loop_
  _atom_site_type_symbol
  _atom_site_label
  _atom_site_symmetry_multiplicity
  _atom_site_fract_x
  _atom_site_fract_y
  _atom_site_fract_z
  _atom_site_occupancy
  K   K1        1.0  0.07330  0.28100  0.19500  1.0000
  K   K2        1.0  0.34700  0.84500  0.30500  1.0000
  K   K3        1.0  0.65300  0.15500  0.69500  1.0000
  K   K4        1.0  0.92700  0.71900  0.80500  1.0000
  N   N1        1.0  0.60500  0.52200  0.33600  1.0000
  N   N2        1.0  0.39500  0.47800  0.66400  1.0000
  O   O1        1.0  0.78500  0.38700  0.03400  1.0000
  O   O2        1.0  0.43200  0.19400  0.09210  1.0000
  O   O3        1.0  0.88100  0.83600  0.18300  1.0000
  O   O4        1.0  0.67100  0.18100  0.29600  1.0000
  O   O5        1.0  0.44400  0.54800  0.36000  1.0000
  O   O6        1.0  0.96700  0.64900  0.39400  1.0000
  O   O7        1.0  0.21800  0.12700  0.47100  1.0000
  O   O8        1.0  0.78200  0.87300  0.52900  1.0000
  O   O9        1.0  0.03350  0.35100  0.60600  1.0000
  O   O10       1.0  0.55600  0.45200  0.64000  1.0000
  O   O11       1.0  0.32900  0.81900  0.70400  1.0000
  O   O12       1.0  0.11900  0.16400  0.81700  1.0000
  O   O13       1.0  0.56800  0.80600  0.90800  1.0000
  O   O14       1.0  0.21500  0.61300  0.96600  1.0000
  S   S1        1.0  0.62300  0.29500  0.17300  1.0000
  S   S2        1.0  0.83500  0.74600  0.36000  1.0000
  S   S3        1.0  0.16500  0.25400  0.64000  1.0000
  S   S4        1.0  0.37700  0.70500  0.82700  1.0000
