data_image0
_chemical_formula_structural       N8S16
_chemical_formula_sum              "N8 S16"
_cell_length_a       11.2552
_cell_length_b       11.2552
_cell_length_c       3.80491
_cell_angle_alpha    90
_cell_angle_beta     90
_cell_angle_gamma    90

_space_group_name_H-M_alt    "P 1"
_space_group_IT_number       1

loop_
  _space_group_symop_operation_xyz
  'x, y, z'

loop_
  _atom_site_type_symbol
  _atom_site_label
  _atom_site_symmetry_multiplicity
  _atom_site_fract_x
  _atom_site_fract_y
  _atom_site_fract_z
  _atom_site_occupancy
  N   N1        1.0  0.42900  0.25600  0.49900  1.0000
  N   N2        1.0  0.25600  0.42900  0.49900  1.0000
  N   N3        1.0  0.74400  0.57100  0.49900  1.0000
  N   N4        1.0  0.57100  0.74400  0.49900  1.0000
  N   N5        1.0  0.75600  0.07050  0.99900  1.0000
  N   N6        1.0  0.92900  0.24400  0.99900  1.0000
  N   N7        1.0  0.07050  0.75600  0.99900  1.0000
  N   N8        1.0  0.24400  0.92900  0.99900  1.0000
  S   S1        1.0  0.67800  0.32200  0.00035  1.0000
  S   S2        1.0  0.32200  0.67800  0.00035  1.0000
  S   S3        1.0  0.88900  0.11100  0.05680  1.0000
  S   S4        1.0  0.11100  0.88900  0.05680  1.0000
  S   S5        1.0  0.35000  0.14500  0.33300  1.0000
  S   S6        1.0  0.14500  0.35000  0.33300  1.0000
  S   S7        1.0  0.85500  0.65000  0.33300  1.0000
  S   S8        1.0  0.65000  0.85500  0.33300  1.0000
  S   S9        1.0  0.17800  0.17800  0.50000  1.0000
  S   S10       1.0  0.82200  0.82200  0.50000  1.0000
  S   S11       1.0  0.38900  0.38900  0.55700  1.0000
  S   S12       1.0  0.61100  0.61100  0.55700  1.0000
  S   S13       1.0  0.64500  0.15000  0.83300  1.0000
  S   S14       1.0  0.85000  0.35500  0.83300  1.0000
  S   S15       1.0  0.15000  0.64500  0.83300  1.0000
  S   S16       1.0  0.35500  0.85000  0.83300  1.0000
