data_image0
_chemical_formula_structural       Cl16Fe4Na4
_chemical_formula_sum              "Cl16 Fe4 Na4"
_cell_length_a       10.2363
_cell_length_b       9.83158
_cell_length_c       6.22683
_cell_angle_alpha    90
_cell_angle_beta     90
_cell_angle_gamma    90

_space_group_name_H-M_alt    "P 1"
_space_group_IT_number       1

loop_
  _space_group_symop_operation_xyz
  'x, y, z'

loop_
  _atom_site_type_symbol
  _atom_site_label
  _atom_site_symmetry_multiplicity
  _atom_site_fract_x
  _atom_site_fract_y
  _atom_site_fract_z
  _atom_site_occupancy
  Cl  Cl1       1.0  0.46600  0.50700  0.06710  1.0000
  Cl  Cl2       1.0  0.12900  0.67400  0.07280  1.0000
  Cl  Cl3       1.0  0.84000  0.48200  0.07450  1.0000
  Cl  Cl4       1.0  0.15200  0.31100  0.11000  1.0000
  Cl  Cl5       1.0  0.84800  0.81100  0.39000  1.0000
  Cl  Cl6       1.0  0.16000  0.98200  0.42600  1.0000
  Cl  Cl7       1.0  0.87100  0.17400  0.42700  1.0000
  Cl  Cl8       1.0  0.53400  0.00678  0.43300  1.0000
  Cl  Cl9       1.0  0.03400  0.49300  0.56700  1.0000
  Cl  Cl10      1.0  0.37100  0.32600  0.57300  1.0000
  Cl  Cl11      1.0  0.66000  0.51800  0.57400  1.0000
  Cl  Cl12      1.0  0.34800  0.68900  0.61000  1.0000
  Cl  Cl13      1.0  0.65200  0.18900  0.89000  1.0000
  Cl  Cl14      1.0  0.34000  0.01810  0.92600  1.0000
  Cl  Cl15      1.0  0.62900  0.82600  0.92700  1.0000
  Cl  Cl16      1.0  0.96600  0.99300  0.93300  1.0000
  Fe  Fe1       1.0  0.03820  0.48900  0.21200  1.0000
  Fe  Fe2       1.0  0.96200  0.98900  0.28800  1.0000
  Fe  Fe3       1.0  0.46200  0.51100  0.71200  1.0000
  Fe  Fe4       1.0  0.53800  0.01080  0.78800  1.0000
  Na  Na1       1.0  0.38300  0.78700  0.19300  1.0000
  Na  Na2       1.0  0.61700  0.28700  0.30700  1.0000
  Na  Na3       1.0  0.11700  0.21300  0.69300  1.0000
  Na  Na4       1.0  0.88300  0.71300  0.80700  1.0000
