data_image0
_chemical_formula_structural       Al2Li2Mo4O16
_chemical_formula_sum              "Al2 Li2 Mo4 O16"
_cell_length_a       7.04189
_cell_length_b       7.09478
_cell_length_c       6.62817
_cell_angle_alpha    110.717
_cell_angle_beta     105.463
_cell_angle_gamma    90.4545

_space_group_name_H-M_alt    "P 1"
_space_group_IT_number       1

loop_
  _space_group_symop_operation_xyz
  'x, y, z'

loop_
  _atom_site_type_symbol
  _atom_site_label
  _atom_site_symmetry_multiplicity
  _atom_site_fract_x
  _atom_site_fract_y
  _atom_site_fract_z
  _atom_site_occupancy
  Al  Al1       1.0  0.90000  0.17600  0.09370  1.0000
  Al  Al2       1.0  0.10000  0.82400  0.90600  1.0000
  Li  Li1       1.0  0.44700  0.77100  0.27100  1.0000
  Li  Li2       1.0  0.55300  0.22900  0.72900  1.0000
  Mo  Mo1       1.0  0.42200  0.21600  0.16700  1.0000
  Mo  Mo2       1.0  0.96600  0.72000  0.32200  1.0000
  Mo  Mo3       1.0  0.03370  0.28000  0.67800  1.0000
  Mo  Mo4       1.0  0.57800  0.78400  0.83300  1.0000
  O   O1        1.0  0.62600  0.15800  0.02780  1.0000
  O   O2        1.0  0.15200  0.11200  0.07900  1.0000
  O   O3        1.0  0.13500  0.77800  0.18400  1.0000
  O   O4        1.0  0.72000  0.76100  0.21000  1.0000
  O   O5        1.0  0.96100  0.45400  0.25600  1.0000
  O   O6        1.0  0.42400  0.47600  0.25900  1.0000
  O   O7        1.0  0.94800  0.14600  0.37700  1.0000
  O   O8        1.0  0.51400  0.15900  0.40700  1.0000
  O   O9        1.0  0.48600  0.84100  0.59300  1.0000
  O   O10       1.0  0.05250  0.85400  0.62300  1.0000
  O   O11       1.0  0.57600  0.52400  0.74100  1.0000
  O   O12       1.0  0.03880  0.54600  0.74400  1.0000
  O   O13       1.0  0.28000  0.23900  0.79000  1.0000
  O   O14       1.0  0.86500  0.22200  0.81600  1.0000
  O   O15       1.0  0.84800  0.88800  0.92100  1.0000
  O   O16       1.0  0.37400  0.84200  0.97200  1.0000
