data_image0
_chemical_formula_structural       Fe4O16U4
_chemical_formula_sum              "Fe4 O16 U4"
_cell_length_a       4.91537
_cell_length_b       11.9831
_cell_length_c       5.11822
_cell_angle_alpha    90
_cell_angle_beta     90
_cell_angle_gamma    90

_space_group_name_H-M_alt    "P 1"
_space_group_IT_number       1

loop_
  _space_group_symop_operation_xyz
  'x, y, z'

loop_
  _atom_site_type_symbol
  _atom_site_label
  _atom_site_symmetry_multiplicity
  _atom_site_fract_x
  _atom_site_fract_y
  _atom_site_fract_z
  _atom_site_occupancy
  Fe  Fe1       1.0  0.00000  0.43700  0.25000  1.0000
  Fe  Fe2       1.0  0.50000  0.93700  0.25000  1.0000
  Fe  Fe3       1.0  0.50000  0.06280  0.75000  1.0000
  Fe  Fe4       1.0  0.00000  0.56300  0.75000  1.0000
  O   O1        1.0  0.73100  0.05050  0.06740  1.0000
  O   O2        1.0  0.76900  0.55000  0.06740  1.0000
  O   O3        1.0  0.78000  0.31100  0.09170  1.0000
  O   O4        1.0  0.72000  0.81100  0.09170  1.0000
  O   O5        1.0  0.22000  0.31100  0.40800  1.0000
  O   O6        1.0  0.28000  0.81100  0.40800  1.0000
  O   O7        1.0  0.26900  0.05050  0.43300  1.0000
  O   O8        1.0  0.23100  0.55000  0.43300  1.0000
  O   O9        1.0  0.76900  0.45000  0.56700  1.0000
  O   O10       1.0  0.73100  0.95000  0.56700  1.0000
  O   O11       1.0  0.72000  0.18900  0.59200  1.0000
  O   O12       1.0  0.78000  0.68900  0.59200  1.0000
  O   O13       1.0  0.28000  0.18900  0.90800  1.0000
  O   O14       1.0  0.22000  0.68900  0.90800  1.0000
  O   O15       1.0  0.23100  0.45000  0.93300  1.0000
  O   O16       1.0  0.26900  0.95000  0.93300  1.0000
  U   U1        1.0  0.00000  0.16700  0.25000  1.0000
  U   U2        1.0  0.50000  0.66700  0.25000  1.0000
  U   U3        1.0  0.50000  0.33300  0.75000  1.0000
  U   U4        1.0  0.00000  0.83300  0.75000  1.0000
