data_image0
_chemical_formula_structural       C8Mn2N12
_chemical_formula_sum              "C8 Mn2 N12"
_cell_length_a       5.80247
_cell_length_b       7.04192
_cell_length_c       7.60651
_cell_angle_alpha    90
_cell_angle_beta     90
_cell_angle_gamma    90

_space_group_name_H-M_alt    "P 1"
_space_group_IT_number       1

loop_
  _space_group_symop_operation_xyz
  'x, y, z'

loop_
  _atom_site_type_symbol
  _atom_site_label
  _atom_site_symmetry_multiplicity
  _atom_site_fract_x
  _atom_site_fract_y
  _atom_site_fract_z
  _atom_site_occupancy
  C   C1        1.0  0.23000  0.36100  0.15100  1.0000
  C   C2        1.0  0.77000  0.63900  0.15100  1.0000
  C   C3        1.0  0.73000  0.13900  0.34900  1.0000
  C   C4        1.0  0.27000  0.86100  0.34900  1.0000
  C   C5        1.0  0.73000  0.13900  0.65100  1.0000
  C   C6        1.0  0.27000  0.86100  0.65100  1.0000
  C   C7        1.0  0.23000  0.36100  0.84900  1.0000
  C   C8        1.0  0.77000  0.63900  0.84900  1.0000
  Mn  Mn1       1.0  0.00000  0.00000  0.00000  1.0000
  Mn  Mn2       1.0  0.50000  0.50000  0.50000  1.0000
  N   N1        1.0  0.16500  0.29300  0.00000  1.0000
  N   N2        1.0  0.83500  0.70700  0.00000  1.0000
  N   N3        1.0  0.77500  0.09070  0.20500  1.0000
  N   N4        1.0  0.22500  0.90900  0.20500  1.0000
  N   N5        1.0  0.27500  0.40900  0.29500  1.0000
  N   N6        1.0  0.72500  0.59100  0.29500  1.0000
  N   N7        1.0  0.66500  0.20700  0.50000  1.0000
  N   N8        1.0  0.33500  0.79300  0.50000  1.0000
  N   N9        1.0  0.27500  0.40900  0.70500  1.0000
  N   N10       1.0  0.72500  0.59100  0.70500  1.0000
  N   N11       1.0  0.77500  0.09070  0.79500  1.0000
  N   N12       1.0  0.22500  0.90900  0.79500  1.0000
