data_image0
_chemical_formula_structural       Lu2O16Rb2S4
_chemical_formula_sum              "Lu2 O16 Rb2 S4"
_cell_length_a       8.6516
_cell_length_b       5.04293
_cell_length_c       7.47838
_cell_angle_alpha    90
_cell_angle_beta     95.7984
_cell_angle_gamma    90

_space_group_name_H-M_alt    "P 1"
_space_group_IT_number       1

loop_
  _space_group_symop_operation_xyz
  'x, y, z'

loop_
  _atom_site_type_symbol
  _atom_site_label
  _atom_site_symmetry_multiplicity
  _atom_site_fract_x
  _atom_site_fract_y
  _atom_site_fract_z
  _atom_site_occupancy
  Lu  Lu1       1.0  0.00000  0.10100  0.25000  1.0000
  Lu  Lu2       1.0  0.00000  0.89900  0.75000  1.0000
  O   O1        1.0  0.08010  0.79100  0.04040  1.0000
  O   O2        1.0  0.36100  0.68400  0.07450  1.0000
  O   O3        1.0  0.77800  0.84800  0.17900  1.0000
  O   O4        1.0  0.17700  0.39900  0.20400  1.0000
  O   O5        1.0  0.82300  0.39900  0.29600  1.0000
  O   O6        1.0  0.22200  0.84800  0.32100  1.0000
  O   O7        1.0  0.63900  0.68400  0.42500  1.0000
  O   O8        1.0  0.92000  0.79100  0.46000  1.0000
  O   O9        1.0  0.08010  0.20900  0.54000  1.0000
  O   O10       1.0  0.36100  0.31600  0.57500  1.0000
  O   O11       1.0  0.77800  0.15200  0.67900  1.0000
  O   O12       1.0  0.17700  0.60100  0.70400  1.0000
  O   O13       1.0  0.82300  0.60100  0.79600  1.0000
  O   O14       1.0  0.22200  0.15200  0.82100  1.0000
  O   O15       1.0  0.63900  0.31600  0.92500  1.0000
  O   O16       1.0  0.92000  0.20900  0.96000  1.0000
  Rb  Rb1       1.0  0.50000  0.18500  0.25000  1.0000
  Rb  Rb2       1.0  0.50000  0.81500  0.75000  1.0000
  S   S1        1.0  0.21800  0.67600  0.15800  1.0000
  S   S2        1.0  0.78200  0.67600  0.34200  1.0000
  S   S3        1.0  0.21800  0.32400  0.65800  1.0000
  S   S4        1.0  0.78200  0.32400  0.84200  1.0000
