data_image0
_chemical_formula_structural       Li4P20
_chemical_formula_sum              "Li4 P20"
_cell_length_a       6.58986
_cell_length_b       10.4422
_cell_length_c       6.56994
_cell_angle_alpha    90
_cell_angle_beta     90
_cell_angle_gamma    90

_space_group_name_H-M_alt    "P 1"
_space_group_IT_number       1

loop_
  _space_group_symop_operation_xyz
  'x, y, z'

loop_
  _atom_site_type_symbol
  _atom_site_label
  _atom_site_symmetry_multiplicity
  _atom_site_fract_x
  _atom_site_fract_y
  _atom_site_fract_z
  _atom_site_occupancy
  Li  Li1       1.0  0.95000  0.42100  0.05800  1.0000
  Li  Li2       1.0  0.55000  0.92100  0.05800  1.0000
  Li  Li3       1.0  0.45000  0.07930  0.55800  1.0000
  Li  Li4       1.0  0.04990  0.57900  0.55800  1.0000
  P   P1        1.0  0.55600  0.30900  0.16600  1.0000
  P   P2        1.0  0.94400  0.80900  0.16600  1.0000
  P   P3        1.0  0.07690  0.19400  0.16600  1.0000
  P   P4        1.0  0.42300  0.69400  0.16600  1.0000
  P   P5        1.0  0.39100  0.12800  0.18500  1.0000
  P   P6        1.0  0.10900  0.62800  0.18500  1.0000
  P   P7        1.0  0.89800  0.09300  0.40900  1.0000
  P   P8        1.0  0.60200  0.59300  0.40900  1.0000
  P   P9        1.0  0.41300  0.41600  0.42400  1.0000
  P   P10       1.0  0.08730  0.91600  0.42400  1.0000
  P   P11       1.0  0.05640  0.19100  0.66600  1.0000
  P   P12       1.0  0.44400  0.69100  0.66600  1.0000
  P   P13       1.0  0.57700  0.30600  0.66600  1.0000
  P   P14       1.0  0.92300  0.80600  0.66600  1.0000
  P   P15       1.0  0.89100  0.37200  0.68500  1.0000
  P   P16       1.0  0.60900  0.87200  0.68500  1.0000
  P   P17       1.0  0.39800  0.40700  0.90900  1.0000
  P   P18       1.0  0.10200  0.90700  0.90900  1.0000
  P   P19       1.0  0.91300  0.08410  0.92400  1.0000
  P   P20       1.0  0.58700  0.58400  0.92400  1.0000
