data_image0
_chemical_formula_structural       Au4F16Ni2
_chemical_formula_sum              "Au4 F16 Ni2"
_cell_length_a       5.16175
_cell_length_b       5.36599
_cell_length_c       10.1114
_cell_angle_alpha    100.991
_cell_angle_beta     90
_cell_angle_gamma    90

_space_group_name_H-M_alt    "P 1"
_space_group_IT_number       1

loop_
  _space_group_symop_operation_xyz
  'x, y, z'

loop_
  _atom_site_type_symbol
  _atom_site_label
  _atom_site_symmetry_multiplicity
  _atom_site_fract_x
  _atom_site_fract_y
  _atom_site_fract_z
  _atom_site_occupancy
  Au  Au1       1.0  0.80400  0.02330  0.16100  1.0000
  Au  Au2       1.0  0.30400  0.47700  0.33900  1.0000
  Au  Au3       1.0  0.69600  0.52300  0.66100  1.0000
  Au  Au4       1.0  0.19600  0.97700  0.83900  1.0000
  F   F1        1.0  0.69000  0.18700  0.01200  1.0000
  F   F2        1.0  0.82300  0.69000  0.03470  1.0000
  F   F3        1.0  0.41300  0.64300  0.19000  1.0000
  F   F4        1.0  0.30000  0.14900  0.21700  1.0000
  F   F5        1.0  0.80000  0.35100  0.28300  1.0000
  F   F6        1.0  0.91300  0.85700  0.31000  1.0000
  F   F7        1.0  0.32300  0.81000  0.46500  1.0000
  F   F8        1.0  0.19000  0.31300  0.48800  1.0000
  F   F9        1.0  0.81000  0.68700  0.51200  1.0000
  F   F10       1.0  0.67700  0.19000  0.53500  1.0000
  F   F11       1.0  0.08670  0.14300  0.69000  1.0000
  F   F12       1.0  0.20000  0.64900  0.71700  1.0000
  F   F13       1.0  0.70000  0.85100  0.78300  1.0000
  F   F14       1.0  0.58700  0.35700  0.81000  1.0000
  F   F15       1.0  0.17700  0.31000  0.96500  1.0000
  F   F16       1.0  0.31000  0.81300  0.98800  1.0000
  Ni  Ni1       1.0  0.50000  0.50000  0.00000  1.0000
  Ni  Ni2       1.0  0.00000  0.00000  0.50000  1.0000
