data_image0
_chemical_formula_structural       Ba8Mn4S12
_chemical_formula_sum              "Ba8 Mn4 S12"
_cell_length_a       8.87397
_cell_length_b       4.3385
_cell_length_c       17.1289
_cell_angle_alpha    90
_cell_angle_beta     90
_cell_angle_gamma    90

_space_group_name_H-M_alt    "P 1"
_space_group_IT_number       1

loop_
  _space_group_symop_operation_xyz
  'x, y, z'

loop_
  _atom_site_type_symbol
  _atom_site_label
  _atom_site_symmetry_multiplicity
  _atom_site_fract_x
  _atom_site_fract_y
  _atom_site_fract_z
  _atom_site_occupancy
  Ba  Ba1       1.0  0.75500  0.25000  0.04340  1.0000
  Ba  Ba2       1.0  0.08360  0.75000  0.21400  1.0000
  Ba  Ba3       1.0  0.58400  0.75000  0.28600  1.0000
  Ba  Ba4       1.0  0.25500  0.25000  0.45700  1.0000
  Ba  Ba5       1.0  0.74500  0.75000  0.54300  1.0000
  Ba  Ba6       1.0  0.41600  0.25000  0.71400  1.0000
  Ba  Ba7       1.0  0.91600  0.25000  0.78600  1.0000
  Ba  Ba8       1.0  0.24500  0.75000  0.95700  1.0000
  Mn  Mn1       1.0  0.37100  0.25000  0.13300  1.0000
  Mn  Mn2       1.0  0.87100  0.25000  0.36700  1.0000
  Mn  Mn3       1.0  0.12900  0.75000  0.63300  1.0000
  Mn  Mn4       1.0  0.62900  0.75000  0.86700  1.0000
  S   S1        1.0  0.13000  0.25000  0.07270  1.0000
  S   S2        1.0  0.49500  0.75000  0.10100  1.0000
  S   S3        1.0  0.82300  0.25000  0.23000  1.0000
  S   S4        1.0  0.32300  0.25000  0.27000  1.0000
  S   S5        1.0  0.99500  0.75000  0.39900  1.0000
  S   S6        1.0  0.63000  0.25000  0.42700  1.0000
  S   S7        1.0  0.37000  0.75000  0.57300  1.0000
  S   S8        1.0  0.00509  0.25000  0.60100  1.0000
  S   S9        1.0  0.67700  0.75000  0.73000  1.0000
  S   S10       1.0  0.17700  0.75000  0.77000  1.0000
  S   S11       1.0  0.50500  0.25000  0.89900  1.0000
  S   S12       1.0  0.87000  0.75000  0.92700  1.0000
