data_image0
_chemical_formula_structural       Ba4Fe8Se12
_chemical_formula_sum              "Ba4 Fe8 Se12"
_cell_length_a       11.9191
_cell_length_b       5.40818
_cell_length_c       9.20269
_cell_angle_alpha    90
_cell_angle_beta     90
_cell_angle_gamma    90

_space_group_name_H-M_alt    "P 1"
_space_group_IT_number       1

loop_
  _space_group_symop_operation_xyz
  'x, y, z'

loop_
  _atom_site_type_symbol
  _atom_site_label
  _atom_site_symmetry_multiplicity
  _atom_site_fract_x
  _atom_site_fract_y
  _atom_site_fract_z
  _atom_site_occupancy
  Ba  Ba1       1.0  0.31600  0.75000  0.02150  1.0000
  Ba  Ba2       1.0  0.81600  0.75000  0.47800  1.0000
  Ba  Ba3       1.0  0.18400  0.25000  0.52200  1.0000
  Ba  Ba4       1.0  0.68400  0.25000  0.97800  1.0000
  Fe  Fe1       1.0  0.99500  0.50000  0.13800  1.0000
  Fe  Fe2       1.0  0.99500  0.00000  0.13800  1.0000
  Fe  Fe3       1.0  0.49500  0.50000  0.36200  1.0000
  Fe  Fe4       1.0  0.49500  0.00000  0.36200  1.0000
  Fe  Fe5       1.0  0.50500  0.00043  0.63800  1.0000
  Fe  Fe6       1.0  0.50500  0.50000  0.63800  1.0000
  Fe  Fe7       1.0  0.00530  0.00043  0.86200  1.0000
  Fe  Fe8       1.0  0.00530  0.50000  0.86200  1.0000
  Se  Se1       1.0  0.13500  0.25000  0.00914  1.0000
  Se  Se2       1.0  0.59800  0.75000  0.18800  1.0000
  Se  Se3       1.0  0.36000  0.25000  0.23100  1.0000
  Se  Se4       1.0  0.86000  0.25000  0.26900  1.0000
  Se  Se5       1.0  0.09750  0.75000  0.31200  1.0000
  Se  Se6       1.0  0.63500  0.25000  0.49100  1.0000
  Se  Se7       1.0  0.36500  0.75000  0.50900  1.0000
  Se  Se8       1.0  0.90200  0.25000  0.68800  1.0000
  Se  Se9       1.0  0.14000  0.75000  0.73100  1.0000
  Se  Se10      1.0  0.64000  0.75000  0.76900  1.0000
  Se  Se11      1.0  0.40200  0.25000  0.81200  1.0000
  Se  Se12      1.0  0.86500  0.75000  0.99100  1.0000
