data_image0
_chemical_formula_structural       La4O4S4
_chemical_formula_sum              "La4 O4 S4"
_cell_length_a       5.92465
_cell_length_b       5.92948
_cell_length_c       7.24061
_cell_angle_alpha    65.8291
_cell_angle_beta     90
_cell_angle_gamma    90

_space_group_name_H-M_alt    "P 1"
_space_group_IT_number       1

loop_
  _space_group_symop_operation_xyz
  'x, y, z'

loop_
  _atom_site_type_symbol
  _atom_site_label
  _atom_site_symmetry_multiplicity
  _atom_site_fract_x
  _atom_site_fract_y
  _atom_site_fract_z
  _atom_site_occupancy
  La  La1       1.0  0.00000  0.33900  0.32200  1.0000
  La  La2       1.0  0.50000  0.83900  0.32200  1.0000
  La  La3       1.0  0.50000  0.16100  0.67800  1.0000
  La  La4       1.0  0.00000  0.66100  0.67800  1.0000
  O   O1        1.0  0.25000  0.00538  0.50000  1.0000
  O   O2        1.0  0.75000  0.49500  0.50000  1.0000
  O   O3        1.0  0.25000  0.50500  0.50000  1.0000
  O   O4        1.0  0.75000  0.99500  0.50000  1.0000
  S   S1        1.0  0.12600  0.12500  0.00000  1.0000
  S   S2        1.0  0.62600  0.37500  0.00000  1.0000
  S   S3        1.0  0.37400  0.62500  0.00000  1.0000
  S   S4        1.0  0.87400  0.87500  0.00000  1.0000
