data_image0
_chemical_formula_structural       Ag4As4Pb4S12
_chemical_formula_sum              "Ag4 As4 Pb4 S12"
_cell_length_a       7.45403
_cell_length_b       12.7336
_cell_length_c       6.07142
_cell_angle_alpha    90
_cell_angle_beta     90.1244
_cell_angle_gamma    90

_space_group_name_H-M_alt    "P 1"
_space_group_IT_number       1

loop_
  _space_group_symop_operation_xyz
  'x, y, z'

loop_
  _atom_site_type_symbol
  _atom_site_label
  _atom_site_symmetry_multiplicity
  _atom_site_fract_x
  _atom_site_fract_y
  _atom_site_fract_z
  _atom_site_occupancy
  Ag  Ag1       1.0  0.38800  0.76400  0.18900  1.0000
  Ag  Ag2       1.0  0.88800  0.73600  0.18900  1.0000
  Ag  Ag3       1.0  0.11200  0.26400  0.81100  1.0000
  Ag  Ag4       1.0  0.61200  0.23600  0.81100  1.0000
  As  As1       1.0  0.35200  0.09420  0.27600  1.0000
  As  As2       1.0  0.85200  0.40600  0.27600  1.0000
  As  As3       1.0  0.14800  0.59400  0.72400  1.0000
  As  As4       1.0  0.64800  0.90600  0.72400  1.0000
  Pb  Pb1       1.0  0.84200  0.08830  0.25500  1.0000
  Pb  Pb2       1.0  0.34200  0.41200  0.25500  1.0000
  Pb  Pb3       1.0  0.15800  0.91200  0.74500  1.0000
  Pb  Pb4       1.0  0.65800  0.58800  0.74500  1.0000
  S   S1        1.0  0.15500  0.62700  0.09560  1.0000
  S   S2        1.0  0.65500  0.87300  0.09560  1.0000
  S   S3        1.0  0.66500  0.55000  0.28100  1.0000
  S   S4        1.0  0.16500  0.95000  0.28100  1.0000
  S   S5        1.0  0.14500  0.21700  0.38300  1.0000
  S   S6        1.0  0.64500  0.28300  0.38300  1.0000
  S   S7        1.0  0.85500  0.78300  0.61700  1.0000
  S   S8        1.0  0.35500  0.71700  0.61700  1.0000
  S   S9        1.0  0.33500  0.45000  0.71900  1.0000
  S   S10       1.0  0.83500  0.04960  0.71900  1.0000
  S   S11       1.0  0.34500  0.12700  0.90400  1.0000
  S   S12       1.0  0.84500  0.37300  0.90400  1.0000
