data_image0
_chemical_formula_structural       Na2O16S4Tm2
_chemical_formula_sum              "Na2 O16 S4 Tm2"
_cell_length_a       4.59344
_cell_length_b       9.9482
_cell_length_c       6.79366
_cell_angle_alpha    90
_cell_angle_beta     90
_cell_angle_gamma    110.397

_space_group_name_H-M_alt    "P 1"
_space_group_IT_number       1

loop_
  _space_group_symop_operation_xyz
  'x, y, z'

loop_
  _atom_site_type_symbol
  _atom_site_label
  _atom_site_symmetry_multiplicity
  _atom_site_fract_x
  _atom_site_fract_y
  _atom_site_fract_z
  _atom_site_occupancy
  Na  Na1       1.0  0.78800  0.65200  0.25000  1.0000
  Na  Na2       1.0  0.21200  0.34800  0.75000  1.0000
  O   O1        1.0  0.61300  0.85200  0.07420  1.0000
  O   O2        1.0  0.16000  0.33900  0.07780  1.0000
  O   O3        1.0  0.77600  0.07990  0.25000  1.0000
  O   O4        1.0  0.73600  0.38300  0.25000  1.0000
  O   O5        1.0  0.23900  0.56700  0.25000  1.0000
  O   O6        1.0  0.24200  0.93300  0.25000  1.0000
  O   O7        1.0  0.16000  0.33900  0.42200  1.0000
  O   O8        1.0  0.61300  0.85200  0.42600  1.0000
  O   O9        1.0  0.38700  0.14800  0.57400  1.0000
  O   O10       1.0  0.84000  0.66100  0.57800  1.0000
  O   O11       1.0  0.75800  0.06710  0.75000  1.0000
  O   O12       1.0  0.76100  0.43300  0.75000  1.0000
  O   O13       1.0  0.26400  0.61700  0.75000  1.0000
  O   O14       1.0  0.22400  0.92000  0.75000  1.0000
  O   O15       1.0  0.84000  0.66100  0.92200  1.0000
  O   O16       1.0  0.38700  0.14800  0.92600  1.0000
  S   S1        1.0  0.07740  0.41300  0.25000  1.0000
  S   S2        1.0  0.56000  0.92600  0.25000  1.0000
  S   S3        1.0  0.44000  0.07410  0.75000  1.0000
  S   S4        1.0  0.92300  0.58700  0.75000  1.0000
  Tm  Tm1       1.0  0.32800  0.18000  0.25000  1.0000
  Tm  Tm2       1.0  0.67200  0.82000  0.75000  1.0000
