data_image0
_chemical_formula_structural       Ce8O8S6
_chemical_formula_sum              "Ce8 O8 S6"
_cell_length_a       7.5649
_cell_length_b       14.0132
_cell_length_c       3.97901
_cell_angle_alpha    90
_cell_angle_beta     90
_cell_angle_gamma    90

_space_group_name_H-M_alt    "P 1"
_space_group_IT_number       1

loop_
  _space_group_symop_operation_xyz
  'x, y, z'

loop_
  _atom_site_type_symbol
  _atom_site_label
  _atom_site_symmetry_multiplicity
  _atom_site_fract_x
  _atom_site_fract_y
  _atom_site_fract_z
  _atom_site_occupancy
  Ce  Ce1       1.0  0.17200  0.18700  0.00000  1.0000
  Ce  Ce2       1.0  0.67200  0.31300  0.00000  1.0000
  Ce  Ce3       1.0  0.32800  0.68700  0.00000  1.0000
  Ce  Ce4       1.0  0.82800  0.81300  0.00000  1.0000
  Ce  Ce5       1.0  0.79300  0.07300  0.50000  1.0000
  Ce  Ce6       1.0  0.29300  0.42700  0.50000  1.0000
  Ce  Ce7       1.0  0.70700  0.57300  0.50000  1.0000
  Ce  Ce8       1.0  0.20700  0.92700  0.50000  1.0000
  O   O1        1.0  0.84400  0.15900  0.00000  1.0000
  O   O2        1.0  0.34400  0.34100  0.00000  1.0000
  O   O3        1.0  0.65600  0.65900  0.00000  1.0000
  O   O4        1.0  0.15600  0.84100  0.00000  1.0000
  O   O5        1.0  0.11100  0.08790  0.50000  1.0000
  O   O6        1.0  0.61100  0.41200  0.50000  1.0000
  O   O7        1.0  0.38900  0.58800  0.50000  1.0000
  O   O8        1.0  0.88900  0.91200  0.50000  1.0000
  S   S1        1.0  0.50000  0.00000  0.00000  1.0000
  S   S2        1.0  0.00000  0.50000  0.00000  1.0000
  S   S3        1.0  0.47400  0.18600  0.50000  1.0000
  S   S4        1.0  0.97400  0.31400  0.50000  1.0000
  S   S5        1.0  0.02600  0.68600  0.50000  1.0000
  S   S6        1.0  0.52600  0.81400  0.50000  1.0000
