data_image0
_chemical_formula_structural       Ir8Se16
_chemical_formula_sum              "Ir8 Se16"
_cell_length_a       21.1469
_cell_length_b       5.98526
_cell_length_c       3.78786
_cell_angle_alpha    90
_cell_angle_beta     90
_cell_angle_gamma    90

_space_group_name_H-M_alt    "P 1"
_space_group_IT_number       1

loop_
  _space_group_symop_operation_xyz
  'x, y, z'

loop_
  _atom_site_type_symbol
  _atom_site_label
  _atom_site_symmetry_multiplicity
  _atom_site_fract_x
  _atom_site_fract_y
  _atom_site_fract_z
  _atom_site_occupancy
  Ir  Ir1       1.0  0.69500  0.55800  0.25000  1.0000
  Ir  Ir2       1.0  0.92400  0.57000  0.25000  1.0000
  Ir  Ir3       1.0  0.42400  0.93000  0.25000  1.0000
  Ir  Ir4       1.0  0.19500  0.94200  0.25000  1.0000
  Ir  Ir5       1.0  0.80500  0.05820  0.75000  1.0000
  Ir  Ir6       1.0  0.57600  0.07000  0.75000  1.0000
  Ir  Ir7       1.0  0.07640  0.43000  0.75000  1.0000
  Ir  Ir8       1.0  0.30500  0.44200  0.75000  1.0000
  Se  Se1       1.0  0.73900  0.18200  0.25000  1.0000
  Se  Se2       1.0  0.50900  0.22600  0.25000  1.0000
  Se  Se3       1.0  0.00882  0.27400  0.25000  1.0000
  Se  Se4       1.0  0.23900  0.31800  0.25000  1.0000
  Se  Se5       1.0  0.37900  0.54700  0.25000  1.0000
  Se  Se6       1.0  0.13800  0.57200  0.25000  1.0000
  Se  Se7       1.0  0.63800  0.92800  0.25000  1.0000
  Se  Se8       1.0  0.87900  0.95300  0.25000  1.0000
  Se  Se9       1.0  0.12100  0.04660  0.75000  1.0000
  Se  Se10      1.0  0.36200  0.07250  0.75000  1.0000
  Se  Se11      1.0  0.86200  0.42800  0.75000  1.0000
  Se  Se12      1.0  0.62100  0.45300  0.75000  1.0000
  Se  Se13      1.0  0.76100  0.68200  0.75000  1.0000
  Se  Se14      1.0  0.99100  0.72600  0.75000  1.0000
  Se  Se15      1.0  0.49100  0.77400  0.75000  1.0000
  Se  Se16      1.0  0.26100  0.81800  0.75000  1.0000
