data_image0
_chemical_formula_structural       Ca2Ga8O14
_chemical_formula_sum              "Ca2 Ga8 O14"
_cell_length_a       5.60014
_cell_length_b       7.9554
_cell_length_c       7.9554
_cell_angle_alpha    69.7607
_cell_angle_beta     101.756
_cell_angle_gamma    101.756

_space_group_name_H-M_alt    "P 1"
_space_group_IT_number       1

loop_
  _space_group_symop_operation_xyz
  'x, y, z'

loop_
  _atom_site_type_symbol
  _atom_site_label
  _atom_site_symmetry_multiplicity
  _atom_site_fract_x
  _atom_site_fract_y
  _atom_site_fract_z
  _atom_site_occupancy
  Ca  Ca1       1.0  0.25000  0.70800  0.29200  1.0000
  Ca  Ca2       1.0  0.75000  0.29200  0.70800  1.0000
  Ga  Ga1       1.0  0.24500  0.18700  0.05770  1.0000
  Ga  Ga2       1.0  0.74500  0.05780  0.18700  1.0000
  Ga  Ga3       1.0  0.68600  0.42700  0.25500  1.0000
  Ga  Ga4       1.0  0.18600  0.25500  0.42700  1.0000
  Ga  Ga5       1.0  0.81400  0.74500  0.57300  1.0000
  Ga  Ga6       1.0  0.31400  0.57300  0.74500  1.0000
  Ga  Ga7       1.0  0.25500  0.94200  0.81300  1.0000
  Ga  Ga8       1.0  0.75500  0.81300  0.94200  1.0000
  O   O1        1.0  0.25000  0.96400  0.03560  1.0000
  O   O2        1.0  0.58300  0.26000  0.12400  1.0000
  O   O3        1.0  0.87200  0.63500  0.13600  1.0000
  O   O4        1.0  0.08340  0.12400  0.26000  1.0000
  O   O5        1.0  0.40200  0.45500  0.31600  1.0000
  O   O6        1.0  0.62800  0.86400  0.36500  1.0000
  O   O7        1.0  0.90200  0.31600  0.45500  1.0000
  O   O8        1.0  0.09840  0.68400  0.54500  1.0000
  O   O9        1.0  0.37200  0.13600  0.63500  1.0000
  O   O10       1.0  0.59800  0.54500  0.68400  1.0000
  O   O11       1.0  0.91700  0.87600  0.74000  1.0000
  O   O12       1.0  0.12800  0.36500  0.86400  1.0000
  O   O13       1.0  0.41700  0.74000  0.87600  1.0000
  O   O14       1.0  0.75000  0.03560  0.96400  1.0000
