data_image0
_chemical_formula_structural       In2Na2O16W4
_chemical_formula_sum              "In2 Na2 O16 W4"
_cell_length_a       10.0267
_cell_length_b       5.81808
_cell_length_c       5.03807
_cell_angle_alpha    90
_cell_angle_beta     90.6039
_cell_angle_gamma    90

_space_group_name_H-M_alt    "P 1"
_space_group_IT_number       1

loop_
  _space_group_symop_operation_xyz
  'x, y, z'

loop_
  _atom_site_type_symbol
  _atom_site_label
  _atom_site_symmetry_multiplicity
  _atom_site_fract_x
  _atom_site_fract_y
  _atom_site_fract_z
  _atom_site_occupancy
  In  In1       1.0  0.00000  0.69000  0.25000  1.0000
  In  In2       1.0  0.00000  0.31000  0.75000  1.0000
  Na  Na1       1.0  0.50000  0.68000  0.25000  1.0000
  Na  Na2       1.0  0.50000  0.32000  0.75000  1.0000
  O   O1        1.0  0.13400  0.90000  0.04430  1.0000
  O   O2        1.0  0.66100  0.90500  0.06790  1.0000
  O   O3        1.0  0.11900  0.38100  0.10200  1.0000
  O   O4        1.0  0.63700  0.37300  0.12100  1.0000
  O   O5        1.0  0.36300  0.37300  0.37900  1.0000
  O   O6        1.0  0.88100  0.38100  0.39800  1.0000
  O   O7        1.0  0.33900  0.90500  0.43200  1.0000
  O   O8        1.0  0.86600  0.90000  0.45600  1.0000
  O   O9        1.0  0.13400  0.09990  0.54400  1.0000
  O   O10       1.0  0.66100  0.09540  0.56800  1.0000
  O   O11       1.0  0.11900  0.61900  0.60200  1.0000
  O   O12       1.0  0.63700  0.62700  0.62100  1.0000
  O   O13       1.0  0.36300  0.62700  0.87900  1.0000
  O   O14       1.0  0.88100  0.61900  0.89800  1.0000
  O   O15       1.0  0.33900  0.09540  0.93200  1.0000
  O   O16       1.0  0.86600  0.09990  0.95600  1.0000
  W   W1        1.0  0.24800  0.18000  0.24200  1.0000
  W   W2        1.0  0.75200  0.18000  0.25800  1.0000
  W   W3        1.0  0.24800  0.82000  0.74200  1.0000
  W   W4        1.0  0.75200  0.82000  0.75800  1.0000
