data_image0
_chemical_formula_structural       Cs4F16Ti4
_chemical_formula_sum              "Cs4 F16 Ti4"
_cell_length_a       7.80951
_cell_length_b       7.80951
_cell_length_c       6.36672
_cell_angle_alpha    90
_cell_angle_beta     90
_cell_angle_gamma    90

_space_group_name_H-M_alt    "P 1"
_space_group_IT_number       1

loop_
  _space_group_symop_operation_xyz
  'x, y, z'

loop_
  _atom_site_type_symbol
  _atom_site_label
  _atom_site_symmetry_multiplicity
  _atom_site_fract_x
  _atom_site_fract_y
  _atom_site_fract_z
  _atom_site_occupancy
  Cs  Cs1       1.0  0.25000  0.25000  0.43800  1.0000
  Cs  Cs2       1.0  0.75000  0.25000  0.50000  1.0000
  Cs  Cs3       1.0  0.25000  0.75000  0.50000  1.0000
  Cs  Cs4       1.0  0.75000  0.75000  0.56200  1.0000
  F   F1        1.0  0.50600  0.25000  0.05920  1.0000
  F   F2        1.0  0.99400  0.25000  0.05920  1.0000
  F   F3        1.0  0.25000  0.50600  0.05920  1.0000
  F   F4        1.0  0.25000  0.99400  0.05920  1.0000
  F   F5        1.0  0.53800  0.53800  0.29400  1.0000
  F   F6        1.0  0.96200  0.53800  0.29400  1.0000
  F   F7        1.0  0.53800  0.96200  0.29400  1.0000
  F   F8        1.0  0.96200  0.96200  0.29400  1.0000
  F   F9        1.0  0.03840  0.03840  0.70600  1.0000
  F   F10       1.0  0.46200  0.03840  0.70600  1.0000
  F   F11       1.0  0.03840  0.46200  0.70600  1.0000
  F   F12       1.0  0.46200  0.46200  0.70600  1.0000
  F   F13       1.0  0.75000  0.00618  0.94100  1.0000
  F   F14       1.0  0.75000  0.49400  0.94100  1.0000
  F   F15       1.0  0.00618  0.75000  0.94100  1.0000
  F   F16       1.0  0.49400  0.75000  0.94100  1.0000
  Ti  Ti1       1.0  0.00000  0.00000  0.00000  1.0000
  Ti  Ti2       1.0  0.50000  0.00000  0.00000  1.0000
  Ti  Ti3       1.0  0.00000  0.50000  0.00000  1.0000
  Ti  Ti4       1.0  0.50000  0.50000  0.00000  1.0000
