data_image0
_chemical_formula_structural       Be4Ge2La4O14
_chemical_formula_sum              "Be4 Ge2 La4 O14"
_cell_length_a       7.65748
_cell_length_b       7.65748
_cell_length_c       4.93835
_cell_angle_alpha    90
_cell_angle_beta     90
_cell_angle_gamma    90

_space_group_name_H-M_alt    "P 1"
_space_group_IT_number       1

loop_
  _space_group_symop_operation_xyz
  'x, y, z'

loop_
  _atom_site_type_symbol
  _atom_site_label
  _atom_site_symmetry_multiplicity
  _atom_site_fract_x
  _atom_site_fract_y
  _atom_site_fract_z
  _atom_site_occupancy
  Be  Be1       1.0  0.36600  0.13400  0.03820  1.0000
  Be  Be2       1.0  0.63400  0.86600  0.03820  1.0000
  Be  Be3       1.0  0.86600  0.36600  0.96200  1.0000
  Be  Be4       1.0  0.13400  0.63400  0.96200  1.0000
  Ge  Ge1       1.0  0.00000  0.00000  0.00000  1.0000
  Ge  Ge2       1.0  0.50000  0.50000  0.00000  1.0000
  La  La1       1.0  0.16000  0.34000  0.49900  1.0000
  La  La2       1.0  0.84000  0.66000  0.49900  1.0000
  La  La3       1.0  0.66000  0.16000  0.50100  1.0000
  La  La4       1.0  0.34000  0.84000  0.50100  1.0000
  O   O1        1.0  0.50000  0.00000  0.16400  1.0000
  O   O2        1.0  0.17400  0.07760  0.20100  1.0000
  O   O3        1.0  0.42200  0.32600  0.20100  1.0000
  O   O4        1.0  0.57800  0.67400  0.20100  1.0000
  O   O5        1.0  0.82600  0.92200  0.20100  1.0000
  O   O6        1.0  0.85600  0.35600  0.28200  1.0000
  O   O7        1.0  0.14400  0.64400  0.28200  1.0000
  O   O8        1.0  0.35600  0.14400  0.71800  1.0000
  O   O9        1.0  0.64400  0.85600  0.71800  1.0000
  O   O10       1.0  0.92200  0.17400  0.79900  1.0000
  O   O11       1.0  0.67400  0.42200  0.79900  1.0000
  O   O12       1.0  0.32600  0.57800  0.79900  1.0000
  O   O13       1.0  0.07760  0.82600  0.79900  1.0000
  O   O14       1.0  0.00000  0.50000  0.83600  1.0000
