data_image0
_chemical_formula_structural       Al8Ba2S14
_chemical_formula_sum              "Al8 Ba2 S14"
_cell_length_a       14.927
_cell_length_b       6.26216
_cell_length_c       5.93277
_cell_angle_alpha    90
_cell_angle_beta     90
_cell_angle_gamma    90

_space_group_name_H-M_alt    "P 1"
_space_group_IT_number       1

loop_
  _space_group_symop_operation_xyz
  'x, y, z'

loop_
  _atom_site_type_symbol
  _atom_site_label
  _atom_site_symmetry_multiplicity
  _atom_site_fract_x
  _atom_site_fract_y
  _atom_site_fract_z
  _atom_site_occupancy
  Al  Al1       1.0  0.11900  0.82700  0.41200  1.0000
  Al  Al2       1.0  0.88100  0.82700  0.41200  1.0000
  Al  Al3       1.0  0.24800  0.31400  0.43000  1.0000
  Al  Al4       1.0  0.75200  0.31400  0.43000  1.0000
  Al  Al5       1.0  0.38100  0.17300  0.91200  1.0000
  Al  Al6       1.0  0.61900  0.17300  0.91200  1.0000
  Al  Al7       1.0  0.25200  0.68600  0.93000  1.0000
  Al  Al8       1.0  0.74800  0.68600  0.93000  1.0000
  Ba  Ba1       1.0  0.00000  0.33800  0.00811  1.0000
  Ba  Ba2       1.0  0.50000  0.66200  0.50800  1.0000
  S   S1        1.0  0.38400  0.82900  0.01710  1.0000
  S   S2        1.0  0.61600  0.82900  0.01710  1.0000
  S   S3        1.0  0.50000  0.36100  0.02620  1.0000
  S   S4        1.0  0.11800  0.80600  0.03260  1.0000
  S   S5        1.0  0.88200  0.80600  0.03260  1.0000
  S   S6        1.0  0.25000  0.33200  0.03850  1.0000
  S   S7        1.0  0.75000  0.33200  0.03850  1.0000
  S   S8        1.0  0.11600  0.17100  0.51700  1.0000
  S   S9        1.0  0.88400  0.17100  0.51700  1.0000
  S   S10       1.0  0.00000  0.63900  0.52600  1.0000
  S   S11       1.0  0.38200  0.19400  0.53300  1.0000
  S   S12       1.0  0.61800  0.19400  0.53300  1.0000
  S   S13       1.0  0.25000  0.66800  0.53900  1.0000
  S   S14       1.0  0.75000  0.66800  0.53900  1.0000
