data_image0
_chemical_formula_structural       Cl15P3
_chemical_formula_sum              "Cl15 P3"
_cell_length_a       8.46192
_cell_length_b       8.56128
_cell_length_c       8.82102
_cell_angle_alpha    118.561
_cell_angle_beta     90
_cell_angle_gamma    119.617

_space_group_name_H-M_alt    "P 1"
_space_group_IT_number       1

loop_
  _space_group_symop_operation_xyz
  'x, y, z'

loop_
  _atom_site_type_symbol
  _atom_site_label
  _atom_site_symmetry_multiplicity
  _atom_site_fract_x
  _atom_site_fract_y
  _atom_site_fract_z
  _atom_site_occupancy
  Cl  Cl1       1.0  0.00000  0.00000  0.00000  1.0000
  Cl  Cl2       1.0  0.80500  0.61000  0.08200  1.0000
  Cl  Cl3       1.0  0.46200  0.30400  0.16900  1.0000
  Cl  Cl4       1.0  0.84200  0.30400  0.16900  1.0000
  Cl  Cl5       1.0  0.28100  0.92100  0.29900  1.0000
  Cl  Cl6       1.0  0.64100  0.92100  0.29900  1.0000
  Cl  Cl7       1.0  0.33400  0.66800  0.42300  1.0000
  Cl  Cl8       1.0  0.85800  0.71700  0.48500  1.0000
  Cl  Cl9       1.0  0.14200  0.28300  0.51500  1.0000
  Cl  Cl10      1.0  0.66600  0.33200  0.57700  1.0000
  Cl  Cl11      1.0  0.35900  0.07850  0.70100  1.0000
  Cl  Cl12      1.0  0.71900  0.07850  0.70100  1.0000
  Cl  Cl13      1.0  0.15800  0.69600  0.83100  1.0000
  Cl  Cl14      1.0  0.53800  0.69600  0.83100  1.0000
  Cl  Cl15      1.0  0.19500  0.39000  0.91800  1.0000
  P   P1        1.0  0.74100  0.48300  0.22600  1.0000
  P   P2        1.0  0.50000  0.00000  0.50000  1.0000
  P   P3        1.0  0.25900  0.51700  0.77400  1.0000
