data_image0
_chemical_formula_structural       Ba8Hg4S12
_chemical_formula_sum              "Ba8 Hg4 S12"
_cell_length_a       9.04248
_cell_length_b       4.40172
_cell_length_c       17.4896
_cell_angle_alpha    90
_cell_angle_beta     90
_cell_angle_gamma    90

_space_group_name_H-M_alt    "P 1"
_space_group_IT_number       1

loop_
  _space_group_symop_operation_xyz
  'x, y, z'

loop_
  _atom_site_type_symbol
  _atom_site_label
  _atom_site_symmetry_multiplicity
  _atom_site_fract_x
  _atom_site_fract_y
  _atom_site_fract_z
  _atom_site_occupancy
  Ba  Ba1       1.0  0.26000  0.25000  0.03940  1.0000
  Ba  Ba2       1.0  0.57700  0.75000  0.21600  1.0000
  Ba  Ba3       1.0  0.07660  0.75000  0.28400  1.0000
  Ba  Ba4       1.0  0.76000  0.25000  0.46100  1.0000
  Ba  Ba5       1.0  0.24000  0.75000  0.53900  1.0000
  Ba  Ba6       1.0  0.92300  0.25000  0.71600  1.0000
  Ba  Ba7       1.0  0.42300  0.25000  0.78400  1.0000
  Ba  Ba8       1.0  0.74000  0.75000  0.96100  1.0000
  Hg  Hg1       1.0  0.87600  0.25000  0.13300  1.0000
  Hg  Hg2       1.0  0.37600  0.25000  0.36700  1.0000
  Hg  Hg3       1.0  0.62400  0.75000  0.63300  1.0000
  Hg  Hg4       1.0  0.12400  0.75000  0.86700  1.0000
  S   S1        1.0  0.61700  0.25000  0.07150  1.0000
  S   S2        1.0  0.01610  0.75000  0.09610  1.0000
  S   S3        1.0  0.31300  0.25000  0.22200  1.0000
  S   S4        1.0  0.81300  0.25000  0.27800  1.0000
  S   S5        1.0  0.51600  0.75000  0.40400  1.0000
  S   S6        1.0  0.11700  0.25000  0.42800  1.0000
  S   S7        1.0  0.88300  0.75000  0.57200  1.0000
  S   S8        1.0  0.48400  0.25000  0.59600  1.0000
  S   S9        1.0  0.18700  0.75000  0.72200  1.0000
  S   S10       1.0  0.68700  0.75000  0.77800  1.0000
  S   S11       1.0  0.98400  0.25000  0.90400  1.0000
  S   S12       1.0  0.38300  0.75000  0.92800  1.0000
