data_image0
_chemical_formula_structural       O12W11
_chemical_formula_sum              "O12 W11"
_cell_length_a       3.94924
_cell_length_b       7.66263
_cell_length_c       10.672
_cell_angle_alpha    68.9608
_cell_angle_beta     90
_cell_angle_gamma    90

_space_group_name_H-M_alt    "P 1"
_space_group_IT_number       1

loop_
  _space_group_symop_operation_xyz
  'x, y, z'

loop_
  _atom_site_type_symbol
  _atom_site_label
  _atom_site_symmetry_multiplicity
  _atom_site_fract_x
  _atom_site_fract_y
  _atom_site_fract_z
  _atom_site_occupancy
  O   O1        1.0  0.96400  0.00000  0.00000  1.0000
  O   O2        1.0  0.27400  0.50000  0.00000  1.0000
  O   O3        1.0  0.03420  0.18800  0.17500  1.0000
  O   O4        1.0  0.03420  0.63700  0.17500  1.0000
  O   O5        1.0  0.22400  0.84700  0.30500  1.0000
  O   O6        1.0  0.94800  0.27000  0.46000  1.0000
  O   O7        1.0  0.44900  0.00000  0.50000  1.0000
  O   O8        1.0  0.44900  0.50000  0.50000  1.0000
  O   O9        1.0  0.94800  0.73000  0.54000  1.0000
  O   O10       1.0  0.22400  0.15300  0.69500  1.0000
  O   O11       1.0  0.03420  0.36300  0.82500  1.0000
  O   O12       1.0  0.03420  0.81200  0.82500  1.0000
  W   W1        1.0  0.42800  0.00000  0.00000  1.0000
  W   W2        1.0  0.53400  0.25500  0.13200  1.0000
  W   W3        1.0  0.53400  0.61300  0.13200  1.0000
  W   W4        1.0  0.70900  0.88200  0.23600  1.0000
  W   W5        1.0  0.99700  0.36500  0.27000  1.0000
  W   W6        1.0  0.45400  0.75800  0.48400  1.0000
  W   W7        1.0  0.45400  0.24200  0.51600  1.0000
  W   W8        1.0  0.99700  0.63500  0.73000  1.0000
  W   W9        1.0  0.70900  0.11800  0.76400  1.0000
  W   W10       1.0  0.53400  0.38700  0.86800  1.0000
  W   W11       1.0  0.53400  0.74500  0.86800  1.0000
