data_image0
_chemical_formula_structural       Al6Y10
_chemical_formula_sum              "Al6 Y10"
_cell_length_a       8.85885
_cell_length_b       8.85885
_cell_length_c       6.44576
_cell_angle_alpha    90
_cell_angle_beta     90
_cell_angle_gamma    120

_space_group_name_H-M_alt    "P 1"
_space_group_IT_number       1

loop_
  _space_group_symop_operation_xyz
  'x, y, z'

loop_
  _atom_site_type_symbol
  _atom_site_label
  _atom_site_symmetry_multiplicity
  _atom_site_fract_x
  _atom_site_fract_y
  _atom_site_fract_z
  _atom_site_occupancy
  Al  Al1       1.0  0.59800  0.00000  0.25000  1.0000
  Al  Al2       1.0  0.00000  0.59800  0.25000  1.0000
  Al  Al3       1.0  0.40200  0.40200  0.25000  1.0000
  Al  Al4       1.0  0.40200  0.00000  0.75000  1.0000
  Al  Al5       1.0  0.00000  0.40200  0.75000  1.0000
  Al  Al6       1.0  0.59800  0.59800  0.75000  1.0000
  Y   Y1        1.0  0.66700  0.33300  0.00000  1.0000
  Y   Y2        1.0  0.33300  0.66700  0.00000  1.0000
  Y   Y3        1.0  0.75900  0.75900  0.25000  1.0000
  Y   Y4        1.0  0.24100  0.00000  0.25000  1.0000
  Y   Y5        1.0  0.00000  0.24100  0.25000  1.0000
  Y   Y6        1.0  0.66700  0.33300  0.50000  1.0000
  Y   Y7        1.0  0.33300  0.66700  0.50000  1.0000
  Y   Y8        1.0  0.24100  0.24100  0.75000  1.0000
  Y   Y9        1.0  0.75900  0.00000  0.75000  1.0000
  Y   Y10       1.0  0.00000  0.75900  0.75000  1.0000
