data_image0
_chemical_formula_structural       As16Ti8
_chemical_formula_sum              "As16 Ti8"
_cell_length_a       13.273
_cell_length_b       8.94584
_cell_length_c       3.49742
_cell_angle_alpha    90
_cell_angle_beta     90
_cell_angle_gamma    90

_space_group_name_H-M_alt    "P 1"
_space_group_IT_number       1

loop_
  _space_group_symop_operation_xyz
  'x, y, z'

loop_
  _atom_site_type_symbol
  _atom_site_label
  _atom_site_symmetry_multiplicity
  _atom_site_fract_x
  _atom_site_fract_y
  _atom_site_fract_z
  _atom_site_occupancy
  As  As1       1.0  0.40000  0.01160  0.00000  1.0000
  As  As2       1.0  0.83900  0.16500  0.00000  1.0000
  As  As3       1.0  0.19800  0.22500  0.00000  1.0000
  As  As4       1.0  0.55800  0.38600  0.00000  1.0000
  As  As5       1.0  0.44200  0.61400  0.00000  1.0000
  As  As6       1.0  0.80200  0.77500  0.00000  1.0000
  As  As7       1.0  0.16100  0.83500  0.00000  1.0000
  As  As8       1.0  0.60000  0.98800  0.00000  1.0000
  As  As9       1.0  0.05820  0.11400  0.50000  1.0000
  As  As10      1.0  0.69800  0.27500  0.50000  1.0000
  As  As11      1.0  0.33900  0.33500  0.50000  1.0000
  As  As12      1.0  0.90000  0.48800  0.50000  1.0000
  As  As13      1.0  0.10000  0.51200  0.50000  1.0000
  As  As14      1.0  0.66100  0.66500  0.50000  1.0000
  As  As15      1.0  0.30200  0.72500  0.50000  1.0000
  As  As16      1.0  0.94200  0.88600  0.50000  1.0000
  Ti  Ti1       1.0  0.00716  0.32800  0.00000  1.0000
  Ti  Ti2       1.0  0.75300  0.48200  0.00000  1.0000
  Ti  Ti3       1.0  0.24700  0.51800  0.00000  1.0000
  Ti  Ti4       1.0  0.99300  0.67200  0.00000  1.0000
  Ti  Ti5       1.0  0.25300  0.01820  0.50000  1.0000
  Ti  Ti6       1.0  0.50700  0.17200  0.50000  1.0000
  Ti  Ti7       1.0  0.49300  0.82800  0.50000  1.0000
  Ti  Ti8       1.0  0.74700  0.98200  0.50000  1.0000
