data_image0
_chemical_formula_structural       Cl12Mo4S8
_chemical_formula_sum              "Cl12 Mo4 S8"
_cell_length_a       6.20919
_cell_length_b       7.32208
_cell_length_c       13.5284
_cell_angle_alpha    90
_cell_angle_beta     115.829
_cell_angle_gamma    90

_space_group_name_H-M_alt    "P 1"
_space_group_IT_number       1

loop_
  _space_group_symop_operation_xyz
  'x, y, z'

loop_
  _atom_site_type_symbol
  _atom_site_label
  _atom_site_symmetry_multiplicity
  _atom_site_fract_x
  _atom_site_fract_y
  _atom_site_fract_z
  _atom_site_occupancy
  Cl  Cl1       1.0  0.23000  0.15200  0.09040  1.0000
  Cl  Cl2       1.0  0.15100  0.57700  0.11900  1.0000
  Cl  Cl3       1.0  0.77200  0.83800  0.14500  1.0000
  Cl  Cl4       1.0  0.22800  0.33800  0.35500  1.0000
  Cl  Cl5       1.0  0.84900  0.07750  0.38100  1.0000
  Cl  Cl6       1.0  0.77000  0.65200  0.41000  1.0000
  Cl  Cl7       1.0  0.23000  0.34800  0.59000  1.0000
  Cl  Cl8       1.0  0.15100  0.92300  0.61900  1.0000
  Cl  Cl9       1.0  0.77200  0.66200  0.64500  1.0000
  Cl  Cl10      1.0  0.22800  0.16200  0.85500  1.0000
  Cl  Cl11      1.0  0.84900  0.42300  0.88100  1.0000
  Cl  Cl12      1.0  0.77000  0.84800  0.91000  1.0000
  Mo  Mo1       1.0  0.70200  0.59900  0.00598  1.0000
  Mo  Mo2       1.0  0.29800  0.09860  0.49400  1.0000
  Mo  Mo3       1.0  0.70200  0.90100  0.50600  1.0000
  Mo  Mo4       1.0  0.29800  0.40100  0.99400  1.0000
  S   S1        1.0  0.69200  0.27300  0.05130  1.0000
  S   S2        1.0  0.67000  0.44700  0.16000  1.0000
  S   S3        1.0  0.33000  0.94700  0.34000  1.0000
  S   S4        1.0  0.30800  0.77300  0.44900  1.0000
  S   S5        1.0  0.69200  0.22700  0.55100  1.0000
  S   S6        1.0  0.67000  0.05320  0.66000  1.0000
  S   S7        1.0  0.33000  0.55300  0.84000  1.0000
  S   S8        1.0  0.30800  0.72700  0.94900  1.0000
