data_image0
_chemical_formula_structural       Mn2Mo2O8
_chemical_formula_sum              "Mn2 Mo2 O8"
_cell_length_a       4.79951
_cell_length_b       5.75014
_cell_length_c       4.96861
_cell_angle_alpha    90
_cell_angle_beta     90.6108
_cell_angle_gamma    90

_space_group_name_H-M_alt    "P 1"
_space_group_IT_number       1

loop_
  _space_group_symop_operation_xyz
  'x, y, z'

loop_
  _atom_site_type_symbol
  _atom_site_label
  _atom_site_symmetry_multiplicity
  _atom_site_fract_x
  _atom_site_fract_y
  _atom_site_fract_z
  _atom_site_occupancy
  Mn  Mn1       1.0  0.00000  0.18700  0.25000  1.0000
  Mn  Mn2       1.0  0.00000  0.81300  0.75000  1.0000
  Mo  Mo1       1.0  0.50000  0.68800  0.25000  1.0000
  Mo  Mo2       1.0  0.50000  0.31200  0.75000  1.0000
  O   O1        1.0  0.28500  0.39800  0.05490  1.0000
  O   O2        1.0  0.24600  0.88000  0.10100  1.0000
  O   O3        1.0  0.75400  0.88000  0.39900  1.0000
  O   O4        1.0  0.71500  0.39800  0.44500  1.0000
  O   O5        1.0  0.28500  0.60200  0.55500  1.0000
  O   O6        1.0  0.24600  0.12000  0.60100  1.0000
  O   O7        1.0  0.75400  0.12000  0.89900  1.0000
  O   O8        1.0  0.71500  0.60200  0.94500  1.0000
