data_image0
_chemical_formula_structural       Cl12Cu4K8
_chemical_formula_sum              "Cl12 Cu4 K8"
_cell_length_a       12.0929
_cell_length_b       12.5906
_cell_length_c       4.14479
_cell_angle_alpha    90
_cell_angle_beta     90
_cell_angle_gamma    90

_space_group_name_H-M_alt    "P 1"
_space_group_IT_number       1

loop_
  _space_group_symop_operation_xyz
  'x, y, z'

loop_
  _atom_site_type_symbol
  _atom_site_label
  _atom_site_symmetry_multiplicity
  _atom_site_fract_x
  _atom_site_fract_y
  _atom_site_fract_z
  _atom_site_occupancy
  Cl  Cl1       1.0  0.13300  0.05210  0.25000  1.0000
  Cl  Cl2       1.0  0.43800  0.14000  0.25000  1.0000
  Cl  Cl3       1.0  0.93800  0.36000  0.25000  1.0000
  Cl  Cl4       1.0  0.63300  0.44800  0.25000  1.0000
  Cl  Cl5       1.0  0.77600  0.71100  0.25000  1.0000
  Cl  Cl6       1.0  0.27600  0.78900  0.25000  1.0000
  Cl  Cl7       1.0  0.72400  0.21100  0.75000  1.0000
  Cl  Cl8       1.0  0.22400  0.28900  0.75000  1.0000
  Cl  Cl9       1.0  0.36700  0.55200  0.75000  1.0000
  Cl  Cl10      1.0  0.06240  0.64000  0.75000  1.0000
  Cl  Cl11      1.0  0.56200  0.86000  0.75000  1.0000
  Cl  Cl12      1.0  0.86700  0.94800  0.75000  1.0000
  Cu  Cu1       1.0  0.25200  0.19900  0.25000  1.0000
  Cu  Cu2       1.0  0.75200  0.30100  0.25000  1.0000
  Cu  Cu3       1.0  0.24800  0.69900  0.75000  1.0000
  Cu  Cu4       1.0  0.74800  0.80100  0.75000  1.0000
  K   K1        1.0  0.67300  0.01920  0.25000  1.0000
  K   K2        1.0  0.17300  0.48100  0.25000  1.0000
  K   K3        1.0  0.51300  0.67500  0.25000  1.0000
  K   K4        1.0  0.01280  0.82500  0.25000  1.0000
  K   K5        1.0  0.98700  0.17500  0.75000  1.0000
  K   K6        1.0  0.48700  0.32500  0.75000  1.0000
  K   K7        1.0  0.82700  0.51900  0.75000  1.0000
  K   K8        1.0  0.32700  0.98100  0.75000  1.0000
