data_image0
_chemical_formula_structural       As4O16P4
_chemical_formula_sum              "As4 O16 P4"
_cell_length_a       8.28028
_cell_length_b       5.03055
_cell_length_c       7.13082
_cell_angle_alpha    90
_cell_angle_beta     90
_cell_angle_gamma    90

_space_group_name_H-M_alt    "P 1"
_space_group_IT_number       1

loop_
  _space_group_symop_operation_xyz
  'x, y, z'

loop_
  _atom_site_type_symbol
  _atom_site_label
  _atom_site_symmetry_multiplicity
  _atom_site_fract_x
  _atom_site_fract_y
  _atom_site_fract_z
  _atom_site_occupancy
  As  As1       1.0  0.75300  0.75000  0.19900  1.0000
  As  As2       1.0  0.25300  0.75000  0.30100  1.0000
  As  As3       1.0  0.74700  0.25000  0.69900  1.0000
  As  As4       1.0  0.24700  0.25000  0.80100  1.0000
  O   O1        1.0  0.23300  0.25000  0.05820  1.0000
  O   O2        1.0  0.91700  0.25000  0.08420  1.0000
  O   O3        1.0  0.59300  0.00290  0.18300  1.0000
  O   O4        1.0  0.59300  0.49700  0.18300  1.0000
  O   O5        1.0  0.09320  0.00290  0.31700  1.0000
  O   O6        1.0  0.09320  0.49700  0.31700  1.0000
  O   O7        1.0  0.41700  0.25000  0.41600  1.0000
  O   O8        1.0  0.73300  0.25000  0.44200  1.0000
  O   O9        1.0  0.26700  0.75000  0.55800  1.0000
  O   O10       1.0  0.58300  0.75000  0.58400  1.0000
  O   O11       1.0  0.90700  0.50300  0.68300  1.0000
  O   O12       1.0  0.90700  0.99700  0.68300  1.0000
  O   O13       1.0  0.40700  0.50300  0.81700  1.0000
  O   O14       1.0  0.40700  0.99700  0.81700  1.0000
  O   O15       1.0  0.08320  0.75000  0.91600  1.0000
  O   O16       1.0  0.76700  0.75000  0.94200  1.0000
  P   P1        1.0  0.07560  0.25000  0.18400  1.0000
  P   P2        1.0  0.57600  0.25000  0.31600  1.0000
  P   P3        1.0  0.42400  0.75000  0.68400  1.0000
  P   P4        1.0  0.92400  0.75000  0.81600  1.0000
