data_image0
_chemical_formula_structural       Ag4Cs8I12
_chemical_formula_sum              "Ag4 Cs8 I12"
_cell_length_a       14.7235
_cell_length_b       15.3919
_cell_length_c       5.04685
_cell_angle_alpha    90
_cell_angle_beta     90
_cell_angle_gamma    90

_space_group_name_H-M_alt    "P 1"
_space_group_IT_number       1

loop_
  _space_group_symop_operation_xyz
  'x, y, z'

loop_
  _atom_site_type_symbol
  _atom_site_label
  _atom_site_symmetry_multiplicity
  _atom_site_fract_x
  _atom_site_fract_y
  _atom_site_fract_z
  _atom_site_occupancy
  Ag  Ag1       1.0  0.25500  0.19600  0.25000  1.0000
  Ag  Ag2       1.0  0.75500  0.30400  0.25000  1.0000
  Ag  Ag3       1.0  0.24500  0.69600  0.75000  1.0000
  Ag  Ag4       1.0  0.74500  0.80400  0.75000  1.0000
  Cs  Cs1       1.0  0.67600  0.01590  0.25000  1.0000
  Cs  Cs2       1.0  0.17600  0.48400  0.25000  1.0000
  Cs  Cs3       1.0  0.51400  0.67600  0.25000  1.0000
  Cs  Cs4       1.0  0.01350  0.82400  0.25000  1.0000
  Cs  Cs5       1.0  0.98600  0.17600  0.75000  1.0000
  Cs  Cs6       1.0  0.48600  0.32400  0.75000  1.0000
  Cs  Cs7       1.0  0.82400  0.51600  0.75000  1.0000
  Cs  Cs8       1.0  0.32400  0.98400  0.75000  1.0000
  I   I1        1.0  0.13400  0.05020  0.25000  1.0000
  I   I2        1.0  0.44100  0.13900  0.25000  1.0000
  I   I3        1.0  0.94100  0.36100  0.25000  1.0000
  I   I4        1.0  0.63400  0.45000  0.25000  1.0000
  I   I5        1.0  0.77700  0.71200  0.25000  1.0000
  I   I6        1.0  0.27700  0.78800  0.25000  1.0000
  I   I7        1.0  0.72300  0.21200  0.75000  1.0000
  I   I8        1.0  0.22300  0.28800  0.75000  1.0000
  I   I9        1.0  0.36600  0.55000  0.75000  1.0000
  I   I10       1.0  0.05910  0.63900  0.75000  1.0000
  I   I11       1.0  0.55900  0.86100  0.75000  1.0000
  I   I12       1.0  0.86600  0.95000  0.75000  1.0000
