data_image0
_chemical_formula_structural       B6Na6O12
_chemical_formula_sum              "B6 Na6 O12"
_cell_length_a       6.30898
_cell_length_b       7.1468
_cell_length_c       7.1468
_cell_angle_alpha    111.723
_cell_angle_beta     107.113
_cell_angle_gamma    107.113

_space_group_name_H-M_alt    "P 1"
_space_group_IT_number       1

loop_
  _space_group_symop_operation_xyz
  'x, y, z'

loop_
  _atom_site_type_symbol
  _atom_site_label
  _atom_site_symmetry_multiplicity
  _atom_site_fract_x
  _atom_site_fract_y
  _atom_site_fract_z
  _atom_site_occupancy
  B   B1        1.0  0.75000  0.87800  0.12200  1.0000
  B   B2        1.0  0.87200  0.24400  0.12200  1.0000
  B   B3        1.0  0.37200  0.12200  0.24400  1.0000
  B   B4        1.0  0.62800  0.87800  0.75600  1.0000
  B   B5        1.0  0.12800  0.75600  0.87800  1.0000
  B   B6        1.0  0.25000  0.12200  0.87800  1.0000
  Na  Na1       1.0  0.31300  0.56300  0.12500  1.0000
  Na  Na2       1.0  0.18700  0.87500  0.43700  1.0000
  Na  Na3       1.0  0.75000  0.56300  0.43700  1.0000
  Na  Na4       1.0  0.25000  0.43700  0.56300  1.0000
  Na  Na5       1.0  0.81300  0.12500  0.56300  1.0000
  Na  Na6       1.0  0.68700  0.43700  0.87500  1.0000
  O   O1        1.0  0.25000  0.88300  0.11700  1.0000
  O   O2        1.0  0.36700  0.23500  0.11700  1.0000
  O   O3        1.0  0.75000  0.76700  0.23300  1.0000
  O   O4        1.0  0.98300  0.46600  0.23300  1.0000
  O   O5        1.0  0.86700  0.11700  0.23500  1.0000
  O   O6        1.0  0.48300  0.23300  0.46600  1.0000
  O   O7        1.0  0.51700  0.76700  0.53400  1.0000
  O   O8        1.0  0.13300  0.88300  0.76500  1.0000
  O   O9        1.0  0.01700  0.53400  0.76700  1.0000
  O   O10       1.0  0.25000  0.23300  0.76700  1.0000
  O   O11       1.0  0.63300  0.76500  0.88300  1.0000
  O   O12       1.0  0.75000  0.11700  0.88300  1.0000
