data_image0
_chemical_formula_structural       Be4Gd4Ge2O14
_chemical_formula_sum              "Be4 Gd4 Ge2 O14"
_cell_length_a       7.43546
_cell_length_b       7.43546
_cell_length_c       4.80737
_cell_angle_alpha    90
_cell_angle_beta     90
_cell_angle_gamma    90

_space_group_name_H-M_alt    "P 1"
_space_group_IT_number       1

loop_
  _space_group_symop_operation_xyz
  'x, y, z'

loop_
  _atom_site_type_symbol
  _atom_site_label
  _atom_site_symmetry_multiplicity
  _atom_site_fract_x
  _atom_site_fract_y
  _atom_site_fract_z
  _atom_site_occupancy
  Be  Be1       1.0  0.36500  0.13500  0.04640  1.0000
  Be  Be2       1.0  0.63500  0.86500  0.04640  1.0000
  Be  Be3       1.0  0.86500  0.36500  0.95400  1.0000
  Be  Be4       1.0  0.13500  0.63500  0.95400  1.0000
  Gd  Gd1       1.0  0.15800  0.34200  0.49500  1.0000
  Gd  Gd2       1.0  0.84200  0.65800  0.49500  1.0000
  Gd  Gd3       1.0  0.65800  0.15800  0.50500  1.0000
  Gd  Gd4       1.0  0.34200  0.84200  0.50500  1.0000
  Ge  Ge1       1.0  0.00000  0.00000  0.00000  1.0000
  Ge  Ge2       1.0  0.50000  0.50000  0.00000  1.0000
  O   O1        1.0  0.50000  0.00000  0.18100  1.0000
  O   O2        1.0  0.17200  0.08010  0.21600  1.0000
  O   O3        1.0  0.42000  0.32800  0.21600  1.0000
  O   O4        1.0  0.58000  0.67200  0.21600  1.0000
  O   O5        1.0  0.82800  0.92000  0.21600  1.0000
  O   O6        1.0  0.85800  0.35800  0.28200  1.0000
  O   O7        1.0  0.14200  0.64200  0.28200  1.0000
  O   O8        1.0  0.35800  0.14200  0.71800  1.0000
  O   O9        1.0  0.64200  0.85800  0.71800  1.0000
  O   O10       1.0  0.92000  0.17200  0.78400  1.0000
  O   O11       1.0  0.67200  0.42000  0.78400  1.0000
  O   O12       1.0  0.32800  0.58000  0.78400  1.0000
  O   O13       1.0  0.08010  0.82800  0.78400  1.0000
  O   O14       1.0  0.00000  0.50000  0.81900  1.0000
