data_image0
_chemical_formula_structural       Ga2Li2O16W4
_chemical_formula_sum              "Ga2 Li2 O16 W4"
_cell_length_a       9.25357
_cell_length_b       5.6482
_cell_length_c       4.89148
_cell_angle_alpha    90
_cell_angle_beta     90.05
_cell_angle_gamma    90

_space_group_name_H-M_alt    "P 1"
_space_group_IT_number       1

loop_
  _space_group_symop_operation_xyz
  'x, y, z'

loop_
  _atom_site_type_symbol
  _atom_site_label
  _atom_site_symmetry_multiplicity
  _atom_site_fract_x
  _atom_site_fract_y
  _atom_site_fract_z
  _atom_site_occupancy
  Ga  Ga1       1.0  0.00000  0.67000  0.25000  1.0000
  Ga  Ga2       1.0  0.00000  0.33000  0.75000  1.0000
  Li  Li1       1.0  0.50000  0.66400  0.25000  1.0000
  Li  Li2       1.0  0.50000  0.33600  0.75000  1.0000
  O   O1        1.0  0.64600  0.89900  0.06570  1.0000
  O   O2        1.0  0.13100  0.88300  0.07270  1.0000
  O   O3        1.0  0.11500  0.38400  0.08810  1.0000
  O   O4        1.0  0.62500  0.38500  0.10100  1.0000
  O   O5        1.0  0.37500  0.38500  0.39900  1.0000
  O   O6        1.0  0.88500  0.38400  0.41200  1.0000
  O   O7        1.0  0.86900  0.88300  0.42700  1.0000
  O   O8        1.0  0.35400  0.89900  0.43400  1.0000
  O   O9        1.0  0.64600  0.10100  0.56600  1.0000
  O   O10       1.0  0.13100  0.11600  0.57300  1.0000
  O   O11       1.0  0.11500  0.61600  0.58800  1.0000
  O   O12       1.0  0.62500  0.61500  0.60100  1.0000
  O   O13       1.0  0.37500  0.61500  0.89900  1.0000
  O   O14       1.0  0.88500  0.61600  0.91200  1.0000
  O   O15       1.0  0.86900  0.11600  0.92700  1.0000
  O   O16       1.0  0.35400  0.10100  0.93400  1.0000
  W   W1        1.0  0.74700  0.18400  0.24700  1.0000
  W   W2        1.0  0.25300  0.18400  0.25300  1.0000
  W   W3        1.0  0.74700  0.81600  0.74700  1.0000
  W   W4        1.0  0.25300  0.81600  0.75300  1.0000
