data_image0
_chemical_formula_structural       Be6K8O10
_chemical_formula_sum              "Be6 K8 O10"
_cell_length_a       6.27137
_cell_length_b       6.27137
_cell_length_c       10.1076
_cell_angle_alpha    101.481
_cell_angle_beta     102.281
_cell_angle_gamma    109.657

_space_group_name_H-M_alt    "P 1"
_space_group_IT_number       1

loop_
  _space_group_symop_operation_xyz
  'x, y, z'

loop_
  _atom_site_type_symbol
  _atom_site_label
  _atom_site_symmetry_multiplicity
  _atom_site_fract_x
  _atom_site_fract_y
  _atom_site_fract_z
  _atom_site_occupancy
  Be  Be1       1.0  0.27000  0.02050  0.25000  1.0000
  Be  Be2       1.0  0.56000  0.31000  0.25000  1.0000
  Be  Be3       1.0  0.98200  0.73200  0.25000  1.0000
  Be  Be4       1.0  0.01810  0.26800  0.75000  1.0000
  Be  Be5       1.0  0.44000  0.69000  0.75000  1.0000
  Be  Be6       1.0  0.73000  0.98000  0.75000  1.0000
  K   K1        1.0  0.98400  0.25500  0.07510  1.0000
  K   K2        1.0  0.53700  0.77200  0.09400  1.0000
  K   K3        1.0  0.17800  0.44300  0.40600  1.0000
  K   K4        1.0  0.68000  0.90900  0.42500  1.0000
  K   K5        1.0  0.32000  0.09080  0.57500  1.0000
  K   K6        1.0  0.82200  0.55700  0.59400  1.0000
  K   K7        1.0  0.46300  0.22800  0.90600  1.0000
  K   K8        1.0  0.01570  0.74500  0.92500  1.0000
  O   O1        1.0  0.34800  0.12600  0.12100  1.0000
  O   O2        1.0  0.22100  0.73200  0.23000  1.0000
  O   O3        1.0  0.77100  0.52100  0.25000  1.0000
  O   O4        1.0  0.00172  0.99100  0.27000  1.0000
  O   O5        1.0  0.50500  0.22700  0.37900  1.0000
  O   O6        1.0  0.49500  0.77300  0.62100  1.0000
  O   O7        1.0  0.99800  0.00904  0.73000  1.0000
  O   O8        1.0  0.22900  0.47900  0.75000  1.0000
  O   O9        1.0  0.77900  0.26800  0.77000  1.0000
  O   O10       1.0  0.65200  0.87400  0.87900  1.0000
