data_image0
_chemical_formula_structural       O12Rb8Ti4
_chemical_formula_sum              "O12 Rb8 Ti4"
_cell_length_a       6.00964
_cell_length_b       6.63913
_cell_length_c       13.2864
_cell_angle_alpha    90
_cell_angle_beta     90
_cell_angle_gamma    63.0899

_space_group_name_H-M_alt    "P 1"
_space_group_IT_number       1

loop_
  _space_group_symop_operation_xyz
  'x, y, z'

loop_
  _atom_site_type_symbol
  _atom_site_label
  _atom_site_symmetry_multiplicity
  _atom_site_fract_x
  _atom_site_fract_y
  _atom_site_fract_z
  _atom_site_occupancy
  O   O1        1.0  0.16700  0.66500  0.05810  1.0000
  O   O2        1.0  0.40300  0.19500  0.13800  1.0000
  O   O3        1.0  0.47000  0.56000  0.25000  1.0000
  O   O4        1.0  0.97000  0.56000  0.25000  1.0000
  O   O5        1.0  0.90300  0.19500  0.36200  1.0000
  O   O6        1.0  0.66700  0.66500  0.44200  1.0000
  O   O7        1.0  0.33300  0.33500  0.55800  1.0000
  O   O8        1.0  0.09750  0.80500  0.63800  1.0000
  O   O9        1.0  0.03010  0.44000  0.75000  1.0000
  O   O10       1.0  0.53000  0.44000  0.75000  1.0000
  O   O11       1.0  0.59700  0.80500  0.86200  1.0000
  O   O12       1.0  0.83300  0.33500  0.94200  1.0000
  Rb  Rb1       1.0  0.63200  0.73700  0.07420  1.0000
  Rb  Rb2       1.0  0.94400  0.11200  0.13800  1.0000
  Rb  Rb3       1.0  0.44400  0.11200  0.36200  1.0000
  Rb  Rb4       1.0  0.13200  0.73700  0.42600  1.0000
  Rb  Rb5       1.0  0.86800  0.26300  0.57400  1.0000
  Rb  Rb6       1.0  0.55600  0.88800  0.63800  1.0000
  Rb  Rb7       1.0  0.05610  0.88800  0.86200  1.0000
  Rb  Rb8       1.0  0.36800  0.26300  0.92600  1.0000
  Ti  Ti1       1.0  0.25500  0.49100  0.16900  1.0000
  Ti  Ti2       1.0  0.75500  0.49100  0.33100  1.0000
  Ti  Ti3       1.0  0.24500  0.50900  0.66900  1.0000
  Ti  Ti4       1.0  0.74500  0.50900  0.83100  1.0000
