data_image0
_chemical_formula_structural       Mn12Ni8Si4
_chemical_formula_sum              "Mn12 Ni8 Si4"
_cell_length_a       7.53034
_cell_length_b       7.53034
_cell_length_c       7.53034
_cell_angle_alpha    120
_cell_angle_beta     90
_cell_angle_gamma    120

_space_group_name_H-M_alt    "P 1"
_space_group_IT_number       1

loop_
  _space_group_symop_operation_xyz
  'x, y, z'

loop_
  _atom_site_type_symbol
  _atom_site_label
  _atom_site_symmetry_multiplicity
  _atom_site_fract_x
  _atom_site_fract_y
  _atom_site_fract_z
  _atom_site_occupancy
  Mn  Mn1       1.0  0.55900  0.50000  0.05940  1.0000
  Mn  Mn2       1.0  0.55900  0.11900  0.05940  1.0000
  Mn  Mn3       1.0  0.94100  0.50000  0.05940  1.0000
  Mn  Mn4       1.0  0.19100  0.00000  0.19100  1.0000
  Mn  Mn5       1.0  0.80900  0.00000  0.19100  1.0000
  Mn  Mn6       1.0  0.19100  0.38100  0.19100  1.0000
  Mn  Mn7       1.0  0.94100  0.50000  0.44100  1.0000
  Mn  Mn8       1.0  0.94100  0.88100  0.44100  1.0000
  Mn  Mn9       1.0  0.55900  0.50000  0.44100  1.0000
  Mn  Mn10      1.0  0.19100  0.00000  0.80900  1.0000
  Mn  Mn11      1.0  0.80900  0.61900  0.80900  1.0000
  Mn  Mn12      1.0  0.80900  0.00000  0.80900  1.0000
  Ni  Ni1       1.0  0.58600  0.17300  0.41400  1.0000
  Ni  Ni2       1.0  0.24100  0.82700  0.41400  1.0000
  Ni  Ni3       1.0  0.58600  0.82700  0.41400  1.0000
  Ni  Ni4       1.0  0.16400  0.32700  0.49100  1.0000
  Ni  Ni5       1.0  0.58600  0.17300  0.75900  1.0000
  Ni  Ni6       1.0  0.16400  0.32700  0.83600  1.0000
  Ni  Ni7       1.0  0.16400  0.67300  0.83600  1.0000
  Ni  Ni8       1.0  0.50900  0.67300  0.83600  1.0000
  Si  Si1       1.0  0.37500  0.75000  0.12500  1.0000
  Si  Si2       1.0  0.37500  0.25000  0.62500  1.0000
  Si  Si3       1.0  0.87500  0.25000  0.62500  1.0000
  Si  Si4       1.0  0.37500  0.75000  0.62500  1.0000
