data_image0
_chemical_formula_structural       Ba2Ga8S14
_chemical_formula_sum              "Ba2 Ga8 S14"
_cell_length_a       14.8837
_cell_length_b       6.27626
_cell_length_c       5.98351
_cell_angle_alpha    90
_cell_angle_beta     90
_cell_angle_gamma    90

_space_group_name_H-M_alt    "P 1"
_space_group_IT_number       1

loop_
  _space_group_symop_operation_xyz
  'x, y, z'

loop_
  _atom_site_type_symbol
  _atom_site_label
  _atom_site_symmetry_multiplicity
  _atom_site_fract_x
  _atom_site_fract_y
  _atom_site_fract_z
  _atom_site_occupancy
  Ba  Ba1       1.0  0.00000  0.33500  0.00515  1.0000
  Ba  Ba2       1.0  0.50000  0.66500  0.50500  1.0000
  Ga  Ga1       1.0  0.12000  0.82600  0.39900  1.0000
  Ga  Ga2       1.0  0.88000  0.82600  0.39900  1.0000
  Ga  Ga3       1.0  0.24800  0.31200  0.41700  1.0000
  Ga  Ga4       1.0  0.75200  0.31200  0.41700  1.0000
  Ga  Ga5       1.0  0.38000  0.17400  0.89900  1.0000
  Ga  Ga6       1.0  0.62000  0.17400  0.89900  1.0000
  Ga  Ga7       1.0  0.25200  0.68800  0.91700  1.0000
  Ga  Ga8       1.0  0.74800  0.68800  0.91700  1.0000
  S   S1        1.0  0.38700  0.82600  0.00461  1.0000
  S   S2        1.0  0.61300  0.82600  0.00461  1.0000
  S   S3        1.0  0.50000  0.36900  0.01600  1.0000
  S   S4        1.0  0.11500  0.80600  0.01720  1.0000
  S   S5        1.0  0.88500  0.80600  0.01720  1.0000
  S   S6        1.0  0.24600  0.32900  0.02310  1.0000
  S   S7        1.0  0.75400  0.32900  0.02310  1.0000
  S   S8        1.0  0.11300  0.17400  0.50500  1.0000
  S   S9        1.0  0.88700  0.17400  0.50500  1.0000
  S   S10       1.0  0.00000  0.63100  0.51600  1.0000
  S   S11       1.0  0.38500  0.19400  0.51700  1.0000
  S   S12       1.0  0.61500  0.19400  0.51700  1.0000
  S   S13       1.0  0.25400  0.67100  0.52300  1.0000
  S   S14       1.0  0.74600  0.67100  0.52300  1.0000
