data_image0
_chemical_formula_structural       Cs2K4O8
_chemical_formula_sum              "Cs2 K4 O8"
_cell_length_a       6.82619
_cell_length_b       6.82619
_cell_length_c       6.82619
_cell_angle_alpha    113.701
_cell_angle_beta     101.307
_cell_angle_gamma    113.701

_space_group_name_H-M_alt    "P 1"
_space_group_IT_number       1

loop_
  _space_group_symop_operation_xyz
  'x, y, z'

loop_
  _atom_site_type_symbol
  _atom_site_label
  _atom_site_symmetry_multiplicity
  _atom_site_fract_x
  _atom_site_fract_y
  _atom_site_fract_z
  _atom_site_occupancy
  Cs  Cs1       1.0  0.00000  0.00000  0.00000  1.0000
  Cs  Cs2       1.0  0.75000  0.50000  0.25000  1.0000
  K   K1        1.0  0.37500  0.75000  0.12500  1.0000
  K   K2        1.0  0.37500  0.75000  0.62500  1.0000
  K   K3        1.0  0.87500  0.25000  0.62500  1.0000
  K   K4        1.0  0.37500  0.25000  0.62500  1.0000
  O   O1        1.0  0.52800  0.23000  0.29800  1.0000
  O   O2        1.0  0.06820  0.77000  0.29800  1.0000
  O   O3        1.0  0.04810  0.27000  0.31800  1.0000
  O   O4        1.0  0.70200  0.77000  0.47200  1.0000
  O   O5        1.0  0.04810  0.73000  0.77800  1.0000
  O   O6        1.0  0.70200  0.23000  0.93200  1.0000
  O   O7        1.0  0.22200  0.27000  0.95200  1.0000
  O   O8        1.0  0.68200  0.73000  0.95200  1.0000
