data_image0
_chemical_formula_structural       Nb12Ni8Si4
_chemical_formula_sum              "Nb12 Ni8 Si4"
_cell_length_a       7.91302
_cell_length_b       7.91302
_cell_length_c       7.91302
_cell_angle_alpha    120
_cell_angle_beta     90
_cell_angle_gamma    120

_space_group_name_H-M_alt    "P 1"
_space_group_IT_number       1

loop_
  _space_group_symop_operation_xyz
  'x, y, z'

loop_
  _atom_site_type_symbol
  _atom_site_label
  _atom_site_symmetry_multiplicity
  _atom_site_fract_x
  _atom_site_fract_y
  _atom_site_fract_z
  _atom_site_occupancy
  Nb  Nb1       1.0  0.95200  0.50000  0.04800  1.0000
  Nb  Nb2       1.0  0.54800  0.09600  0.04800  1.0000
  Nb  Nb3       1.0  0.54800  0.50000  0.04800  1.0000
  Nb  Nb4       1.0  0.20200  0.00000  0.20200  1.0000
  Nb  Nb5       1.0  0.20200  0.40400  0.20200  1.0000
  Nb  Nb6       1.0  0.79800  0.00000  0.20200  1.0000
  Nb  Nb7       1.0  0.54800  0.50000  0.45200  1.0000
  Nb  Nb8       1.0  0.95200  0.50000  0.45200  1.0000
  Nb  Nb9       1.0  0.95200  0.90400  0.45200  1.0000
  Nb  Nb10      1.0  0.20200  0.00000  0.79800  1.0000
  Nb  Nb11      1.0  0.79800  0.00000  0.79800  1.0000
  Nb  Nb12      1.0  0.79800  0.59600  0.79800  1.0000
  Ni  Ni1       1.0  0.58200  0.16500  0.41800  1.0000
  Ni  Ni2       1.0  0.25300  0.83500  0.41800  1.0000
  Ni  Ni3       1.0  0.58200  0.83500  0.41800  1.0000
  Ni  Ni4       1.0  0.16800  0.33500  0.50300  1.0000
  Ni  Ni5       1.0  0.58200  0.16500  0.74700  1.0000
  Ni  Ni6       1.0  0.16800  0.33500  0.83200  1.0000
  Ni  Ni7       1.0  0.16800  0.66500  0.83200  1.0000
  Ni  Ni8       1.0  0.49700  0.66500  0.83200  1.0000
  Si  Si1       1.0  0.37500  0.75000  0.12500  1.0000
  Si  Si2       1.0  0.87500  0.25000  0.62500  1.0000
  Si  Si3       1.0  0.37500  0.25000  0.62500  1.0000
  Si  Si4       1.0  0.37500  0.75000  0.62500  1.0000
