data_image0
_chemical_formula_structural       C8Cu4K4N8
_chemical_formula_sum              "C8 Cu4 K4 N8"
_cell_length_a       7.47037
_cell_length_b       7.72616
_cell_length_c       7.29402
_cell_angle_alpha    90
_cell_angle_beta     102.932
_cell_angle_gamma    90

_space_group_name_H-M_alt    "P 1"
_space_group_IT_number       1

loop_
  _space_group_symop_operation_xyz
  'x, y, z'

loop_
  _atom_site_type_symbol
  _atom_site_label
  _atom_site_symmetry_multiplicity
  _atom_site_fract_x
  _atom_site_fract_y
  _atom_site_fract_z
  _atom_site_occupancy
  C   C1        1.0  0.33100  0.19700  0.03260  1.0000
  C   C2        1.0  0.06190  0.91900  0.22900  1.0000
  C   C3        1.0  0.93800  0.41900  0.27100  1.0000
  C   C4        1.0  0.66900  0.69700  0.46700  1.0000
  C   C5        1.0  0.33100  0.30300  0.53300  1.0000
  C   C6        1.0  0.06190  0.58100  0.72900  1.0000
  C   C7        1.0  0.93800  0.08100  0.77100  1.0000
  C   C8        1.0  0.66900  0.80300  0.96700  1.0000
  Cu  Cu1       1.0  0.11300  0.11700  0.09620  1.0000
  Cu  Cu2       1.0  0.88700  0.61700  0.40400  1.0000
  Cu  Cu3       1.0  0.11300  0.38300  0.59600  1.0000
  Cu  Cu4       1.0  0.88700  0.88300  0.90400  1.0000
  K   K1        1.0  0.30600  0.56900  0.18800  1.0000
  K   K2        1.0  0.69400  0.06880  0.31200  1.0000
  K   K3        1.0  0.30600  0.93100  0.68800  1.0000
  K   K4        1.0  0.69400  0.43100  0.81200  1.0000
  N   N1        1.0  0.53200  0.74900  0.00193  1.0000
  N   N2        1.0  0.96400  0.31300  0.16200  1.0000
  N   N3        1.0  0.03580  0.81300  0.33800  1.0000
  N   N4        1.0  0.46800  0.24900  0.49800  1.0000
  N   N5        1.0  0.53200  0.75100  0.50200  1.0000
  N   N6        1.0  0.96400  0.18700  0.66200  1.0000
  N   N7        1.0  0.03580  0.68700  0.83800  1.0000
  N   N8        1.0  0.46800  0.25100  0.99800  1.0000
