data_image0
_chemical_formula_structural       Cl14Cu4Rb6
_chemical_formula_sum              "Cl14 Cu4 Rb6"
_cell_length_a       7.19517
_cell_length_b       7.19572
_cell_length_c       12.9843
_cell_angle_alpha    90
_cell_angle_beta     106.085
_cell_angle_gamma    90

_space_group_name_H-M_alt    "P 1"
_space_group_IT_number       1

loop_
  _space_group_symop_operation_xyz
  'x, y, z'

loop_
  _atom_site_type_symbol
  _atom_site_label
  _atom_site_symmetry_multiplicity
  _atom_site_fract_x
  _atom_site_fract_y
  _atom_site_fract_z
  _atom_site_occupancy
  Cl  Cl1       1.0  0.75000  0.25000  0.00000  1.0000
  Cl  Cl2       1.0  0.25000  0.75000  0.00000  1.0000
  Cl  Cl3       1.0  0.06270  0.02920  0.18400  1.0000
  Cl  Cl4       1.0  0.62100  0.47100  0.18400  1.0000
  Cl  Cl5       1.0  0.12100  0.52900  0.18400  1.0000
  Cl  Cl6       1.0  0.56300  0.97100  0.18400  1.0000
  Cl  Cl7       1.0  0.94000  0.25000  0.38100  1.0000
  Cl  Cl8       1.0  0.44000  0.75000  0.38100  1.0000
  Cl  Cl9       1.0  0.56000  0.25000  0.61900  1.0000
  Cl  Cl10      1.0  0.05950  0.75000  0.61900  1.0000
  Cl  Cl11      1.0  0.43700  0.02920  0.81600  1.0000
  Cl  Cl12      1.0  0.87900  0.47100  0.81600  1.0000
  Cl  Cl13      1.0  0.37900  0.52900  0.81600  1.0000
  Cl  Cl14      1.0  0.93700  0.97100  0.81600  1.0000
  Cu  Cu1       1.0  0.84600  0.25000  0.19100  1.0000
  Cu  Cu2       1.0  0.34600  0.75000  0.19100  1.0000
  Cu  Cu3       1.0  0.65400  0.25000  0.80900  1.0000
  Cu  Cu4       1.0  0.15400  0.75000  0.80900  1.0000
  Rb  Rb1       1.0  0.25000  0.25000  0.00000  1.0000
  Rb  Rb2       1.0  0.75000  0.75000  0.00000  1.0000
  Rb  Rb3       1.0  0.43000  0.25000  0.35900  1.0000
  Rb  Rb4       1.0  0.93000  0.75000  0.35900  1.0000
  Rb  Rb5       1.0  0.07030  0.25000  0.64100  1.0000
  Rb  Rb6       1.0  0.57000  0.75000  0.64100  1.0000
