data_image0
_chemical_formula_structural       Pd8Sn16
_chemical_formula_sum              "Pd8 Sn16"
_cell_length_a       6.56589
_cell_length_b       6.56589
_cell_length_c       13.1776
_cell_angle_alpha    104.426
_cell_angle_beta     104.426
_cell_angle_gamma    90

_space_group_name_H-M_alt    "P 1"
_space_group_IT_number       1

loop_
  _space_group_symop_operation_xyz
  'x, y, z'

loop_
  _atom_site_type_symbol
  _atom_site_label
  _atom_site_symmetry_multiplicity
  _atom_site_fract_x
  _atom_site_fract_y
  _atom_site_fract_z
  _atom_site_occupancy
  Pd  Pd1       1.0  0.05840  0.05840  0.11700  1.0000
  Pd  Pd2       1.0  0.55800  0.55800  0.11700  1.0000
  Pd  Pd3       1.0  0.69200  0.19200  0.38300  1.0000
  Pd  Pd4       1.0  0.19200  0.69200  0.38300  1.0000
  Pd  Pd5       1.0  0.80800  0.30800  0.61700  1.0000
  Pd  Pd6       1.0  0.30800  0.80800  0.61700  1.0000
  Pd  Pd7       1.0  0.44200  0.44200  0.88300  1.0000
  Pd  Pd8       1.0  0.94200  0.94200  0.88300  1.0000
  Sn  Sn1       1.0  0.34200  0.15800  0.00000  1.0000
  Sn  Sn2       1.0  0.84200  0.34200  0.00000  1.0000
  Sn  Sn3       1.0  0.15800  0.65800  0.00000  1.0000
  Sn  Sn4       1.0  0.65800  0.84200  0.00000  1.0000
  Sn  Sn5       1.0  0.87500  0.37400  0.25000  1.0000
  Sn  Sn6       1.0  0.37500  0.37600  0.25000  1.0000
  Sn  Sn7       1.0  0.87500  0.87400  0.25000  1.0000
  Sn  Sn8       1.0  0.37500  0.87600  0.25000  1.0000
  Sn  Sn9       1.0  0.09190  0.09190  0.50000  1.0000
  Sn  Sn10      1.0  0.40800  0.40800  0.50000  1.0000
  Sn  Sn11      1.0  0.90800  0.59200  0.50000  1.0000
  Sn  Sn12      1.0  0.59200  0.90800  0.50000  1.0000
  Sn  Sn13      1.0  0.12400  0.12500  0.75000  1.0000
  Sn  Sn14      1.0  0.62400  0.12500  0.75000  1.0000
  Sn  Sn15      1.0  0.12600  0.62500  0.75000  1.0000
  Sn  Sn16      1.0  0.62600  0.62500  0.75000  1.0000
