data_image0
_chemical_formula_structural       Ni8Si4V12
_chemical_formula_sum              "Ni8 Si4 V12"
_cell_length_a       7.4952
_cell_length_b       7.4952
_cell_length_c       7.4952
_cell_angle_alpha    120
_cell_angle_beta     90
_cell_angle_gamma    120

_space_group_name_H-M_alt    "P 1"
_space_group_IT_number       1

loop_
  _space_group_symop_operation_xyz
  'x, y, z'

loop_
  _atom_site_type_symbol
  _atom_site_label
  _atom_site_symmetry_multiplicity
  _atom_site_fract_x
  _atom_site_fract_y
  _atom_site_fract_z
  _atom_site_occupancy
  Ni  Ni1       1.0  0.58700  0.17400  0.41300  1.0000
  Ni  Ni2       1.0  0.58700  0.82600  0.41300  1.0000
  Ni  Ni3       1.0  0.23900  0.82600  0.41300  1.0000
  Ni  Ni4       1.0  0.16300  0.32600  0.48900  1.0000
  Ni  Ni5       1.0  0.58700  0.17400  0.76100  1.0000
  Ni  Ni6       1.0  0.16300  0.32600  0.83700  1.0000
  Ni  Ni7       1.0  0.16300  0.67400  0.83700  1.0000
  Ni  Ni8       1.0  0.51100  0.67400  0.83700  1.0000
  Si  Si1       1.0  0.37500  0.75000  0.12500  1.0000
  Si  Si2       1.0  0.87500  0.25000  0.62500  1.0000
  Si  Si3       1.0  0.37500  0.25000  0.62500  1.0000
  Si  Si4       1.0  0.37500  0.75000  0.62500  1.0000
  V   V1        1.0  0.94900  0.50000  0.05150  1.0000
  V   V2        1.0  0.55100  0.10300  0.05150  1.0000
  V   V3        1.0  0.55100  0.50000  0.05150  1.0000
  V   V4        1.0  0.19900  0.00000  0.19900  1.0000
  V   V5        1.0  0.19900  0.39700  0.19900  1.0000
  V   V6        1.0  0.80100  0.00000  0.19900  1.0000
  V   V7        1.0  0.55100  0.50000  0.44900  1.0000
  V   V8        1.0  0.94900  0.50000  0.44900  1.0000
  V   V9        1.0  0.94900  0.89700  0.44900  1.0000
  V   V10       1.0  0.19900  0.00000  0.80100  1.0000
  V   V11       1.0  0.80100  0.00000  0.80100  1.0000
  V   V12       1.0  0.80100  0.60300  0.80100  1.0000
