data_image0
_chemical_formula_structural       Au4Cl4O12Se4
_chemical_formula_sum              "Au4 Cl4 O12 Se4"
_cell_length_a       4.15382
_cell_length_b       9.79207
_cell_length_c       10.6257
_cell_angle_alpha    79.47
_cell_angle_beta     88.3748
_cell_angle_gamma    87.4154

_space_group_name_H-M_alt    "P 1"
_space_group_IT_number       1

loop_
  _space_group_symop_operation_xyz
  'x, y, z'

loop_
  _atom_site_type_symbol
  _atom_site_label
  _atom_site_symmetry_multiplicity
  _atom_site_fract_x
  _atom_site_fract_y
  _atom_site_fract_z
  _atom_site_occupancy
  Au  Au1       1.0  0.00000  0.00000  0.00000  1.0000
  Au  Au2       1.0  0.01040  0.57600  0.19100  1.0000
  Au  Au3       1.0  0.00000  0.00000  0.50000  1.0000
  Au  Au4       1.0  0.99000  0.42400  0.80900  1.0000
  Cl  Cl1       1.0  0.65200  0.49800  0.35300  1.0000
  Cl  Cl2       1.0  0.28100  0.20000  0.43700  1.0000
  Cl  Cl3       1.0  0.71900  0.80000  0.56300  1.0000
  Cl  Cl4       1.0  0.34800  0.50200  0.64700  1.0000
  O   O1        1.0  0.35000  0.64500  0.05160  1.0000
  O   O2        1.0  0.09340  0.17000  0.07200  1.0000
  O   O3        1.0  0.62000  0.95000  0.12200  1.0000
  O   O4        1.0  0.07610  0.39300  0.13200  1.0000
  O   O5        1.0  0.04220  0.76000  0.25000  1.0000
  O   O6        1.0  0.92400  0.99500  0.31500  1.0000
  O   O7        1.0  0.07610  0.00521  0.68500  1.0000
  O   O8        1.0  0.95800  0.24000  0.75000  1.0000
  O   O9        1.0  0.92400  0.60700  0.86800  1.0000
  O   O10       1.0  0.38000  0.05010  0.87800  1.0000
  O   O11       1.0  0.90700  0.83000  0.92800  1.0000
  O   O12       1.0  0.65000  0.35500  0.94800  1.0000
  Se  Se1       1.0  0.77600  0.28500  0.10200  1.0000
  Se  Se2       1.0  0.69800  0.86200  0.27600  1.0000
  Se  Se3       1.0  0.30200  0.13800  0.72400  1.0000
  Se  Se4       1.0  0.22400  0.71500  0.89800  1.0000
