data_image0
_chemical_formula_structural       Ge4Na8S12
_chemical_formula_sum              "Ge4 Na8 S12"
_cell_length_a       6.90502
_cell_length_b       15.4416
_cell_length_c       5.81426
_cell_angle_alpha    90
_cell_angle_beta     114.361
_cell_angle_gamma    90

_space_group_name_H-M_alt    "P 1"
_space_group_IT_number       1

loop_
  _space_group_symop_operation_xyz
  'x, y, z'

loop_
  _atom_site_type_symbol
  _atom_site_label
  _atom_site_symmetry_multiplicity
  _atom_site_fract_x
  _atom_site_fract_y
  _atom_site_fract_z
  _atom_site_occupancy
  Ge  Ge1       1.0  0.95900  0.67000  0.15600  1.0000
  Ge  Ge2       1.0  0.04060  0.17000  0.34400  1.0000
  Ge  Ge3       1.0  0.95900  0.83000  0.65600  1.0000
  Ge  Ge4       1.0  0.04060  0.33000  0.84400  1.0000
  Na  Na1       1.0  0.55800  0.83300  0.01920  1.0000
  Na  Na2       1.0  0.78100  0.47100  0.16100  1.0000
  Na  Na3       1.0  0.21900  0.97100  0.33900  1.0000
  Na  Na4       1.0  0.44200  0.33300  0.48100  1.0000
  Na  Na5       1.0  0.55800  0.66700  0.51900  1.0000
  Na  Na6       1.0  0.78100  0.02920  0.66100  1.0000
  Na  Na7       1.0  0.21900  0.52900  0.83900  1.0000
  Na  Na8       1.0  0.44200  0.16700  0.98100  1.0000
  S   S1        1.0  0.62000  0.64400  0.05090  1.0000
  S   S2        1.0  0.81700  0.06470  0.16500  1.0000
  S   S3        1.0  0.96500  0.30700  0.18800  1.0000
  S   S4        1.0  0.03530  0.80700  0.31200  1.0000
  S   S5        1.0  0.18300  0.56500  0.33500  1.0000
  S   S6        1.0  0.38000  0.14400  0.44900  1.0000
  S   S7        1.0  0.62000  0.85600  0.55100  1.0000
  S   S8        1.0  0.81700  0.43500  0.66500  1.0000
  S   S9        1.0  0.96500  0.19300  0.68800  1.0000
  S   S10       1.0  0.03530  0.69300  0.81200  1.0000
  S   S11       1.0  0.18300  0.93500  0.83500  1.0000
  S   S12       1.0  0.38000  0.35600  0.94900  1.0000
