data_image0
_chemical_formula_structural       B3Ce3O15Si3
_chemical_formula_sum              "B3 Ce3 O15 Si3"
_cell_length_a       6.86006
_cell_length_b       6.86006
_cell_length_c       6.68708
_cell_angle_alpha    90
_cell_angle_beta     90
_cell_angle_gamma    120

_space_group_name_H-M_alt    "P 1"
_space_group_IT_number       1

loop_
  _space_group_symop_operation_xyz
  'x, y, z'

loop_
  _atom_site_type_symbol
  _atom_site_label
  _atom_site_symmetry_multiplicity
  _atom_site_fract_x
  _atom_site_fract_y
  _atom_site_fract_z
  _atom_site_occupancy
  B   B1        1.0  0.98600  0.10100  0.30800  1.0000
  B   B2        1.0  0.89900  0.88500  0.64200  1.0000
  B   B3        1.0  0.11500  0.01400  0.97500  1.0000
  Ce  Ce1       1.0  0.00115  0.58700  0.33100  1.0000
  Ce  Ce2       1.0  0.41300  0.41400  0.66500  1.0000
  Ce  Ce3       1.0  0.58600  0.99900  0.99800  1.0000
  O   O1        1.0  0.35100  0.19400  0.02580  1.0000
  O   O2        1.0  0.94600  0.00508  0.11000  1.0000
  O   O3        1.0  0.19200  0.33300  0.31600  1.0000
  O   O4        1.0  0.60900  0.47700  0.33000  1.0000
  O   O5        1.0  0.39800  0.85300  0.33300  1.0000
  O   O6        1.0  0.80600  0.15600  0.35900  1.0000
  O   O7        1.0  0.99500  0.94100  0.44300  1.0000
  O   O8        1.0  0.66700  0.85800  0.64900  1.0000
  O   O9        1.0  0.52300  0.13200  0.66300  1.0000
  O   O10       1.0  0.14700  0.54500  0.66600  1.0000
  O   O11       1.0  0.84400  0.64900  0.69200  1.0000
  O   O12       1.0  0.05910  0.05400  0.77600  1.0000
  O   O13       1.0  0.14200  0.80800  0.98200  1.0000
  O   O14       1.0  0.86800  0.39100  0.99700  1.0000
  O   O15       1.0  0.45500  0.60200  0.99900  1.0000
  Si  Si1       1.0  0.41600  0.41800  0.16700  1.0000
  Si  Si2       1.0  0.58200  0.99700  0.50100  1.0000
  Si  Si3       1.0  0.00257  0.58400  0.83400  1.0000
