data_image0
_chemical_formula_structural       BBe2H3O5
_chemical_formula_sum              "B1 Be2 H3 O5"
_cell_length_a       4.41654
_cell_length_b       4.40366
_cell_length_c       5.17443
_cell_angle_alpha    88.9337
_cell_angle_beta     89.5954
_cell_angle_gamma    119.814

_space_group_name_H-M_alt    "P 1"
_space_group_IT_number       1

loop_
  _space_group_symop_operation_xyz
  'x, y, z'

loop_
  _atom_site_type_symbol
  _atom_site_label
  _atom_site_symmetry_multiplicity
  _atom_site_fract_x
  _atom_site_fract_y
  _atom_site_fract_z
  _atom_site_occupancy
  B   B1        1.0  0.99400  0.99700  0.50800  1.0000
  Be  Be1       1.0  0.32700  0.66400  0.39900  1.0000
  Be  Be2       1.0  0.65300  0.32600  0.60900  1.0000
  H   H1        1.0  0.09220  0.54500  0.02180  1.0000
  H   H2        1.0  0.49800  0.44600  0.99800  1.0000
  H   H3        1.0  0.50100  0.05670  0.99900  1.0000
  O   O1        1.0  0.33200  0.66000  0.08730  1.0000
  O   O2        1.0  0.30400  0.99800  0.50100  1.0000
  O   O3        1.0  0.68400  0.68800  0.50400  1.0000
  O   O4        1.0  0.99400  0.30800  0.51900  1.0000
  O   O5        1.0  0.62100  0.31300  0.92800  1.0000
