data_image0
_chemical_formula_structural       Ge4O14Sr4Zn2
_chemical_formula_sum              "Ge4 O14 Sr4 Zn2"
_cell_length_a       8.14427
_cell_length_b       8.14427
_cell_length_c       5.31605
_cell_angle_alpha    90
_cell_angle_beta     90
_cell_angle_gamma    90

_space_group_name_H-M_alt    "P 1"
_space_group_IT_number       1

loop_
  _space_group_symop_operation_xyz
  'x, y, z'

loop_
  _atom_site_type_symbol
  _atom_site_label
  _atom_site_symmetry_multiplicity
  _atom_site_fract_x
  _atom_site_fract_y
  _atom_site_fract_z
  _atom_site_occupancy
  Ge  Ge1       1.0  0.64400  0.14400  0.04660  1.0000
  Ge  Ge2       1.0  0.35600  0.85600  0.04660  1.0000
  Ge  Ge3       1.0  0.14400  0.35600  0.95300  1.0000
  Ge  Ge4       1.0  0.85600  0.64400  0.95300  1.0000
  O   O1        1.0  0.50000  0.00000  0.18100  1.0000
  O   O2        1.0  0.82200  0.08200  0.21300  1.0000
  O   O3        1.0  0.58200  0.32200  0.21300  1.0000
  O   O4        1.0  0.41800  0.67800  0.21300  1.0000
  O   O5        1.0  0.17800  0.91800  0.21300  1.0000
  O   O6        1.0  0.13800  0.36200  0.27900  1.0000
  O   O7        1.0  0.86200  0.63800  0.27900  1.0000
  O   O8        1.0  0.63800  0.13800  0.72100  1.0000
  O   O9        1.0  0.36200  0.86200  0.72100  1.0000
  O   O10       1.0  0.08200  0.17800  0.78700  1.0000
  O   O11       1.0  0.32200  0.41800  0.78700  1.0000
  O   O12       1.0  0.67800  0.58200  0.78700  1.0000
  O   O13       1.0  0.91800  0.82200  0.78700  1.0000
  O   O14       1.0  0.00000  0.50000  0.81900  1.0000
  Sr  Sr1       1.0  0.83500  0.33500  0.49400  1.0000
  Sr  Sr2       1.0  0.16500  0.66500  0.49400  1.0000
  Sr  Sr3       1.0  0.33500  0.16500  0.50600  1.0000
  Sr  Sr4       1.0  0.66500  0.83500  0.50600  1.0000
  Zn  Zn1       1.0  0.00000  0.00000  0.00000  1.0000
  Zn  Zn2       1.0  0.50000  0.50000  0.00000  1.0000
