data_image0
_chemical_formula_structural       Cl6S16Sb2
_chemical_formula_sum              "Cl6 S16 Sb2"
_cell_length_a       8.17317
_cell_length_b       8.79616
_cell_length_c       10.8511
_cell_angle_alpha    94.7999
_cell_angle_beta     107.387
_cell_angle_gamma    111.236

_space_group_name_H-M_alt    "P 1"
_space_group_IT_number       1

loop_
  _space_group_symop_operation_xyz
  'x, y, z'

loop_
  _atom_site_type_symbol
  _atom_site_label
  _atom_site_symmetry_multiplicity
  _atom_site_fract_x
  _atom_site_fract_y
  _atom_site_fract_z
  _atom_site_occupancy
  Cl  Cl1       1.0  0.77200  0.89100  0.00526  1.0000
  Cl  Cl2       1.0  0.51000  0.95800  0.21000  1.0000
  Cl  Cl3       1.0  0.25000  0.15400  0.32400  1.0000
  Cl  Cl4       1.0  0.75000  0.84600  0.67600  1.0000
  Cl  Cl5       1.0  0.49000  0.04180  0.79000  1.0000
  Cl  Cl6       1.0  0.22800  0.10900  0.99500  1.0000
  S   S1        1.0  0.71300  0.46300  0.09260  1.0000
  S   S2        1.0  0.87900  0.33100  0.13900  1.0000
  S   S3        1.0  0.15700  0.49300  0.18200  1.0000
  S   S4        1.0  0.65600  0.52600  0.25700  1.0000
  S   S5        1.0  0.84000  0.76900  0.35100  1.0000
  S   S6        1.0  0.28600  0.57100  0.38400  1.0000
  S   S7        1.0  0.28200  0.79900  0.43800  1.0000
  S   S8        1.0  0.93900  0.23300  0.49700  1.0000
  S   S9        1.0  0.06110  0.76700  0.50300  1.0000
  S   S10       1.0  0.71800  0.20100  0.56200  1.0000
  S   S11       1.0  0.71400  0.42900  0.61600  1.0000
  S   S12       1.0  0.16000  0.23100  0.64900  1.0000
  S   S13       1.0  0.34400  0.47400  0.74300  1.0000
  S   S14       1.0  0.84300  0.50700  0.81800  1.0000
  S   S15       1.0  0.12100  0.66900  0.86100  1.0000
  S   S16       1.0  0.28700  0.53700  0.90700  1.0000
  Sb  Sb1       1.0  0.19200  0.93000  0.15400  1.0000
  Sb  Sb2       1.0  0.80800  0.07030  0.84600  1.0000
