data_image0
_chemical_formula_structural       Cu4H6N2O10
_chemical_formula_sum              "Cu4 H6 N2 O10"
_cell_length_a       5.54426
_cell_length_b       5.98791
_cell_length_c       6.4491
_cell_angle_alpha    90.3153
_cell_angle_beta     97.0256
_cell_angle_gamma    89.5811

_space_group_name_H-M_alt    "P 1"
_space_group_IT_number       1

loop_
  _space_group_symop_operation_xyz
  'x, y, z'

loop_
  _atom_site_type_symbol
  _atom_site_label
  _atom_site_symmetry_multiplicity
  _atom_site_fract_x
  _atom_site_fract_y
  _atom_site_fract_z
  _atom_site_occupancy
  Cu  Cu1       1.0  0.00000  0.00000  0.00000  1.0000
  Cu  Cu2       1.0  0.00000  0.50000  0.00000  1.0000
  Cu  Cu3       1.0  0.50400  0.74800  0.01150  1.0000
  Cu  Cu4       1.0  0.49600  0.25200  0.98900  1.0000
  H   H1        1.0  0.35500  0.46600  0.27800  1.0000
  H   H2        1.0  0.35900  0.02100  0.28100  1.0000
  H   H3        1.0  0.97500  0.25500  0.30500  1.0000
  H   H4        1.0  0.02480  0.74500  0.69500  1.0000
  H   H5        1.0  0.64100  0.97900  0.71900  1.0000
  H   H6        1.0  0.64500  0.53400  0.72200  1.0000
  N   N1        1.0  0.84000  0.73300  0.45100  1.0000
  N   N2        1.0  0.16000  0.26700  0.54900  1.0000
  O   O1        1.0  0.33400  0.49500  0.12500  1.0000
  O   O2        1.0  0.34100  0.00591  0.12800  1.0000
  O   O3        1.0  0.90300  0.25300  0.15500  1.0000
  O   O4        1.0  0.86900  0.76200  0.26200  1.0000
  O   O5        1.0  0.62300  0.70200  0.48800  1.0000
  O   O6        1.0  0.37700  0.29800  0.51200  1.0000
  O   O7        1.0  0.13100  0.23800  0.73800  1.0000
  O   O8        1.0  0.09670  0.74700  0.84500  1.0000
  O   O9        1.0  0.65900  0.99400  0.87200  1.0000
  O   O10       1.0  0.66600  0.50500  0.87500  1.0000
