data_image0
_chemical_formula_structural       Ca2CuLa2O10Ti2
_chemical_formula_sum              "Ca2 Cu1 La2 O10 Ti2"
_cell_length_a       3.84582
_cell_length_b       3.84582
_cell_length_c       14.2701
_cell_angle_alpha    97.7442
_cell_angle_beta     97.7442
_cell_angle_gamma    90

_space_group_name_H-M_alt    "P 1"
_space_group_IT_number       1

loop_
  _space_group_symop_operation_xyz
  'x, y, z'

loop_
  _atom_site_type_symbol
  _atom_site_label
  _atom_site_symmetry_multiplicity
  _atom_site_fract_x
  _atom_site_fract_y
  _atom_site_fract_z
  _atom_site_occupancy
  Ca  Ca1       1.0  0.70500  0.70500  0.40900  1.0000
  Ca  Ca2       1.0  0.29500  0.29500  0.59100  1.0000
  Cu  Cu1       1.0  0.00000  0.00000  0.00000  1.0000
  La  La1       1.0  0.56500  0.56500  0.13000  1.0000
  La  La2       1.0  0.43500  0.43500  0.87000  1.0000
  O   O1        1.0  0.50000  0.00000  0.00000  1.0000
  O   O2        1.0  0.00000  0.50000  0.00000  1.0000
  O   O3        1.0  0.07640  0.07640  0.15300  1.0000
  O   O4        1.0  0.64500  0.14500  0.28900  1.0000
  O   O5        1.0  0.14500  0.64500  0.28900  1.0000
  O   O6        1.0  0.21600  0.21600  0.43200  1.0000
  O   O7        1.0  0.78400  0.78400  0.56800  1.0000
  O   O8        1.0  0.85500  0.35500  0.71100  1.0000
  O   O9        1.0  0.35500  0.85500  0.71100  1.0000
  O   O10       1.0  0.92400  0.92400  0.84700  1.0000
  Ti  Ti1       1.0  0.14700  0.14700  0.29300  1.0000
  Ti  Ti2       1.0  0.85300  0.85300  0.70700  1.0000
