data_image0
_chemical_formula_structural       Ni8Si4Zn12
_chemical_formula_sum              "Ni8 Si4 Zn12"
_cell_length_a       7.56742
_cell_length_b       7.56742
_cell_length_c       7.56742
_cell_angle_alpha    120
_cell_angle_beta     90
_cell_angle_gamma    120

_space_group_name_H-M_alt    "P 1"
_space_group_IT_number       1

loop_
  _space_group_symop_operation_xyz
  'x, y, z'

loop_
  _atom_site_type_symbol
  _atom_site_label
  _atom_site_symmetry_multiplicity
  _atom_site_fract_x
  _atom_site_fract_y
  _atom_site_fract_z
  _atom_site_occupancy
  Ni  Ni1       1.0  0.24100  0.82800  0.41400  1.0000
  Ni  Ni2       1.0  0.58600  0.17200  0.41400  1.0000
  Ni  Ni3       1.0  0.58600  0.82800  0.41400  1.0000
  Ni  Ni4       1.0  0.16400  0.32800  0.49100  1.0000
  Ni  Ni5       1.0  0.58600  0.17200  0.75900  1.0000
  Ni  Ni6       1.0  0.16400  0.32800  0.83600  1.0000
  Ni  Ni7       1.0  0.16400  0.67200  0.83600  1.0000
  Ni  Ni8       1.0  0.50900  0.67200  0.83600  1.0000
  Si  Si1       1.0  0.37500  0.75000  0.12500  1.0000
  Si  Si2       1.0  0.37500  0.25000  0.62500  1.0000
  Si  Si3       1.0  0.37500  0.75000  0.62500  1.0000
  Si  Si4       1.0  0.87500  0.25000  0.62500  1.0000
  Zn  Zn1       1.0  0.56400  0.12800  0.06390  1.0000
  Zn  Zn2       1.0  0.56400  0.50000  0.06390  1.0000
  Zn  Zn3       1.0  0.93600  0.50000  0.06390  1.0000
  Zn  Zn4       1.0  0.18600  0.00000  0.18600  1.0000
  Zn  Zn5       1.0  0.18600  0.37200  0.18600  1.0000
  Zn  Zn6       1.0  0.81400  0.00000  0.18600  1.0000
  Zn  Zn7       1.0  0.56400  0.50000  0.43600  1.0000
  Zn  Zn8       1.0  0.93600  0.50000  0.43600  1.0000
  Zn  Zn9       1.0  0.93600  0.87200  0.43600  1.0000
  Zn  Zn10      1.0  0.81400  0.00000  0.81400  1.0000
  Zn  Zn11      1.0  0.18600  0.00000  0.81400  1.0000
  Zn  Zn12      1.0  0.81400  0.62800  0.81400  1.0000
