data_image0
_chemical_formula_structural       Cu2Ho2O16W4
_chemical_formula_sum              "Cu2 Ho2 O16 W4"
_cell_length_a       9.9881
_cell_length_b       5.78104
_cell_length_c       5.00076
_cell_angle_alpha    90
_cell_angle_beta     94.2876
_cell_angle_gamma    90

_space_group_name_H-M_alt    "P 1"
_space_group_IT_number       1

loop_
  _space_group_symop_operation_xyz
  'x, y, z'

loop_
  _atom_site_type_symbol
  _atom_site_label
  _atom_site_symmetry_multiplicity
  _atom_site_fract_x
  _atom_site_fract_y
  _atom_site_fract_z
  _atom_site_occupancy
  Cu  Cu1       1.0  0.75000  0.72100  0.25000  1.0000
  Cu  Cu2       1.0  0.25000  0.27900  0.75000  1.0000
  Ho  Ho1       1.0  0.25000  0.70000  0.25000  1.0000
  Ho  Ho2       1.0  0.75000  0.30000  0.75000  1.0000
  O   O1        1.0  0.88300  0.92100  0.03030  1.0000
  O   O2        1.0  0.40700  0.88600  0.05270  1.0000
  O   O3        1.0  0.36100  0.37600  0.08940  1.0000
  O   O4        1.0  0.89200  0.38000  0.10200  1.0000
  O   O5        1.0  0.60800  0.38000  0.39800  1.0000
  O   O6        1.0  0.13900  0.37600  0.41100  1.0000
  O   O7        1.0  0.09330  0.88600  0.44700  1.0000
  O   O8        1.0  0.61700  0.92100  0.47000  1.0000
  O   O9        1.0  0.38300  0.07890  0.53000  1.0000
  O   O10       1.0  0.90700  0.11400  0.55300  1.0000
  O   O11       1.0  0.86100  0.62400  0.58900  1.0000
  O   O12       1.0  0.39200  0.62000  0.60200  1.0000
  O   O13       1.0  0.10800  0.62000  0.89800  1.0000
  O   O14       1.0  0.63900  0.62400  0.91100  1.0000
  O   O15       1.0  0.59300  0.11400  0.94700  1.0000
  O   O16       1.0  0.11700  0.07890  0.97000  1.0000
  W   W1        1.0  0.48400  0.18200  0.24900  1.0000
  W   W2        1.0  0.01560  0.18200  0.25100  1.0000
  W   W3        1.0  0.98400  0.81800  0.74900  1.0000
  W   W4        1.0  0.51600  0.81800  0.75100  1.0000
