data_image0
_chemical_formula_structural       Sb16Zr8
_chemical_formula_sum              "Sb16 Zr8"
_cell_length_a       15.085
_cell_length_b       10.0668
_cell_length_c       3.93056
_cell_angle_alpha    90
_cell_angle_beta     90
_cell_angle_gamma    90

_space_group_name_H-M_alt    "P 1"
_space_group_IT_number       1

loop_
  _space_group_symop_operation_xyz
  'x, y, z'

loop_
  _atom_site_type_symbol
  _atom_site_label
  _atom_site_symmetry_multiplicity
  _atom_site_fract_x
  _atom_site_fract_y
  _atom_site_fract_z
  _atom_site_occupancy
  Sb  Sb1       1.0  0.05820  0.11700  0.00000  1.0000
  Sb  Sb2       1.0  0.69900  0.26900  0.00000  1.0000
  Sb  Sb3       1.0  0.34400  0.34100  0.00000  1.0000
  Sb  Sb4       1.0  0.89700  0.48800  0.00000  1.0000
  Sb  Sb5       1.0  0.10300  0.51200  0.00000  1.0000
  Sb  Sb6       1.0  0.65600  0.65900  0.00000  1.0000
  Sb  Sb7       1.0  0.30100  0.73100  0.00000  1.0000
  Sb  Sb8       1.0  0.94200  0.88300  0.00000  1.0000
  Sb  Sb9       1.0  0.39700  0.01170  0.50000  1.0000
  Sb  Sb10      1.0  0.84400  0.15900  0.50000  1.0000
  Sb  Sb11      1.0  0.19900  0.23100  0.50000  1.0000
  Sb  Sb12      1.0  0.55800  0.38300  0.50000  1.0000
  Sb  Sb13      1.0  0.44200  0.61700  0.50000  1.0000
  Sb  Sb14      1.0  0.80100  0.76900  0.50000  1.0000
  Sb  Sb15      1.0  0.15600  0.84100  0.50000  1.0000
  Sb  Sb16      1.0  0.60300  0.98800  0.50000  1.0000
  Zr  Zr1       1.0  0.25100  0.02180  0.00000  1.0000
  Zr  Zr2       1.0  0.50700  0.16800  0.00000  1.0000
  Zr  Zr3       1.0  0.49300  0.83200  0.00000  1.0000
  Zr  Zr4       1.0  0.74900  0.97800  0.00000  1.0000
  Zr  Zr5       1.0  0.00675  0.33200  0.50000  1.0000
  Zr  Zr6       1.0  0.75100  0.47800  0.50000  1.0000
  Zr  Zr7       1.0  0.24900  0.52200  0.50000  1.0000
  Zr  Zr8       1.0  0.99300  0.66800  0.50000  1.0000
