data_image0
_chemical_formula_structural       Cl16F4Sb4
_chemical_formula_sum              "Cl16 F4 Sb4"
_cell_length_a       7.82364
_cell_length_b       9.95858
_cell_length_c       9.95858
_cell_angle_alpha    98.8762
_cell_angle_beta     113.129
_cell_angle_gamma    66.8706

_space_group_name_H-M_alt    "P 1"
_space_group_IT_number       1

loop_
  _space_group_symop_operation_xyz
  'x, y, z'

loop_
  _atom_site_type_symbol
  _atom_site_label
  _atom_site_symmetry_multiplicity
  _atom_site_fract_x
  _atom_site_fract_y
  _atom_site_fract_z
  _atom_site_occupancy
  Cl  Cl1       1.0  0.77700  0.51400  0.10100  1.0000
  Cl  Cl2       1.0  0.65800  0.23000  0.15000  1.0000
  Cl  Cl3       1.0  0.24600  0.25000  0.16900  1.0000
  Cl  Cl4       1.0  0.49200  0.85000  0.23000  1.0000
  Cl  Cl5       1.0  0.92300  0.83100  0.25000  1.0000
  Cl  Cl6       1.0  0.39100  0.56900  0.30900  1.0000
  Cl  Cl7       1.0  0.04060  0.30900  0.43100  1.0000
  Cl  Cl8       1.0  0.70900  0.10100  0.48600  1.0000
  Cl  Cl9       1.0  0.32400  0.89900  0.51400  1.0000
  Cl  Cl10      1.0  0.91800  0.69100  0.56900  1.0000
  Cl  Cl11      1.0  0.65100  0.43100  0.69100  1.0000
  Cl  Cl12      1.0  0.50300  0.16900  0.75000  1.0000
  Cl  Cl13      1.0  0.11200  0.15000  0.77000  1.0000
  Cl  Cl14      1.0  0.32700  0.75000  0.83100  1.0000
  Cl  Cl15      1.0  0.73900  0.77000  0.85000  1.0000
  Cl  Cl16      1.0  0.19000  0.48600  0.89900  1.0000
  F   F1        1.0  0.12700  0.79400  0.04290  1.0000
  F   F2        1.0  0.07910  0.04290  0.20600  1.0000
  F   F3        1.0  0.91600  0.95700  0.79400  1.0000
  F   F4        1.0  0.87800  0.20600  0.95700  1.0000
  Sb  Sb1       1.0  0.94400  0.27300  0.18000  1.0000
  Sb  Sb2       1.0  0.23600  0.82000  0.27300  1.0000
  Sb  Sb3       1.0  0.78300  0.18000  0.72700  1.0000
  Sb  Sb4       1.0  0.03670  0.72700  0.82000  1.0000
