data_image0
_chemical_formula_structural       F14I2Pb8
_chemical_formula_sum              "F14 I2 Pb8"
_cell_length_a       5.94892
_cell_length_b       6.00087
_cell_length_c       12.6216
_cell_angle_alpha    76.2478
_cell_angle_beta     90
_cell_angle_gamma    90

_space_group_name_H-M_alt    "P 1"
_space_group_IT_number       1

loop_
  _space_group_symop_operation_xyz
  'x, y, z'

loop_
  _atom_site_type_symbol
  _atom_site_label
  _atom_site_symmetry_multiplicity
  _atom_site_fract_x
  _atom_site_fract_y
  _atom_site_fract_z
  _atom_site_occupancy
  F   F1        1.0  0.00000  0.22600  0.00000  1.0000
  F   F2        1.0  0.50000  0.22600  0.00000  1.0000
  F   F3        1.0  0.00000  0.77400  0.00000  1.0000
  F   F4        1.0  0.50000  0.77400  0.00000  1.0000
  F   F5        1.0  0.25000  0.43500  0.12900  1.0000
  F   F6        1.0  0.52200  0.10900  0.24800  1.0000
  F   F7        1.0  0.97800  0.10900  0.24800  1.0000
  F   F8        1.0  0.52200  0.64200  0.24800  1.0000
  F   F9        1.0  0.97800  0.64200  0.24800  1.0000
  F   F10       1.0  0.02240  0.35800  0.75200  1.0000
  F   F11       1.0  0.47800  0.35800  0.75200  1.0000
  F   F12       1.0  0.02240  0.89100  0.75200  1.0000
  F   F13       1.0  0.47800  0.89100  0.75200  1.0000
  F   F14       1.0  0.75000  0.56500  0.87100  1.0000
  I   I1        1.0  0.25000  0.75000  0.49900  1.0000
  I   I2        1.0  0.75000  0.25000  0.50100  1.0000
  Pb  Pb1       1.0  0.75000  0.45000  0.10100  1.0000
  Pb  Pb2       1.0  0.25000  0.94000  0.12000  1.0000
  Pb  Pb3       1.0  0.25000  0.34200  0.31500  1.0000
  Pb  Pb4       1.0  0.75000  0.82000  0.36000  1.0000
  Pb  Pb5       1.0  0.25000  0.18000  0.64000  1.0000
  Pb  Pb6       1.0  0.75000  0.65800  0.68500  1.0000
  Pb  Pb7       1.0  0.75000  0.06000  0.88000  1.0000
  Pb  Pb8       1.0  0.25000  0.55000  0.89900  1.0000
