data_image0
_chemical_formula_structural       O16Pb4Se4
_chemical_formula_sum              "O16 Pb4 Se4"
_cell_length_a       7.13131
_cell_length_b       7.39035
_cell_length_c       6.93295
_cell_angle_alpha    90
_cell_angle_beta     103.228
_cell_angle_gamma    90

_space_group_name_H-M_alt    "P 1"
_space_group_IT_number       1

loop_
  _space_group_symop_operation_xyz
  'x, y, z'

loop_
  _atom_site_type_symbol
  _atom_site_label
  _atom_site_symmetry_multiplicity
  _atom_site_fract_x
  _atom_site_fract_y
  _atom_site_fract_z
  _atom_site_occupancy
  O   O1        1.0  0.88400  0.65600  0.01180  1.0000
  O   O2        1.0  0.24100  0.00179  0.05270  1.0000
  O   O3        1.0  0.52300  0.39000  0.18100  1.0000
  O   O4        1.0  0.61600  0.79200  0.21600  1.0000
  O   O5        1.0  0.88400  0.29200  0.28400  1.0000
  O   O6        1.0  0.97700  0.89000  0.31900  1.0000
  O   O7        1.0  0.25900  0.50200  0.44700  1.0000
  O   O8        1.0  0.61600  0.15600  0.48800  1.0000
  O   O9        1.0  0.38400  0.84400  0.51200  1.0000
  O   O10       1.0  0.74100  0.49800  0.55300  1.0000
  O   O11       1.0  0.02320  0.11000  0.68100  1.0000
  O   O12       1.0  0.11600  0.70800  0.71600  1.0000
  O   O13       1.0  0.38400  0.20800  0.78400  1.0000
  O   O14       1.0  0.47700  0.61000  0.81900  1.0000
  O   O15       1.0  0.75900  0.99800  0.94700  1.0000
  O   O16       1.0  0.11600  0.34400  0.98800  1.0000
  Pb  Pb1       1.0  0.28100  0.65000  0.09810  1.0000
  Pb  Pb2       1.0  0.21900  0.15000  0.40200  1.0000
  Pb  Pb3       1.0  0.78100  0.85000  0.59800  1.0000
  Pb  Pb4       1.0  0.71900  0.35000  0.90200  1.0000
  Se  Se1       1.0  0.80400  0.83600  0.11800  1.0000
  Se  Se2       1.0  0.69600  0.33600  0.38200  1.0000
  Se  Se3       1.0  0.30400  0.66400  0.61800  1.0000
  Se  Se4       1.0  0.19600  0.16400  0.88200  1.0000
