data_image0
_chemical_formula_structural       Al4Br12N4S4
_chemical_formula_sum              "Al4 Br12 N4 S4"
_cell_length_a       9.68816
_cell_length_b       10.1957
_cell_length_c       7.55432
_cell_angle_alpha    90
_cell_angle_beta     111.035
_cell_angle_gamma    90

_space_group_name_H-M_alt    "P 1"
_space_group_IT_number       1

loop_
  _space_group_symop_operation_xyz
  'x, y, z'

loop_
  _atom_site_type_symbol
  _atom_site_label
  _atom_site_symmetry_multiplicity
  _atom_site_fract_x
  _atom_site_fract_y
  _atom_site_fract_z
  _atom_site_occupancy
  Al  Al1       1.0  0.83900  0.87300  0.11400  1.0000
  Al  Al2       1.0  0.66100  0.37300  0.38600  1.0000
  Al  Al3       1.0  0.33900  0.62700  0.61400  1.0000
  Al  Al4       1.0  0.16100  0.12700  0.88600  1.0000
  Br  Br1       1.0  0.94800  0.68300  0.07980  1.0000
  Br  Br2       1.0  0.21100  0.97200  0.12200  1.0000
  Br  Br3       1.0  0.63700  0.83800  0.20500  1.0000
  Br  Br4       1.0  0.86300  0.33800  0.29500  1.0000
  Br  Br5       1.0  0.28900  0.47200  0.37800  1.0000
  Br  Br6       1.0  0.55200  0.18300  0.42000  1.0000
  Br  Br7       1.0  0.44800  0.81700  0.58000  1.0000
  Br  Br8       1.0  0.71100  0.52800  0.62200  1.0000
  Br  Br9       1.0  0.13700  0.66200  0.70500  1.0000
  Br  Br10      1.0  0.36300  0.16200  0.79500  1.0000
  Br  Br11      1.0  0.78900  0.02840  0.87800  1.0000
  Br  Br12      1.0  0.05180  0.31700  0.92000  1.0000
  N   N1        1.0  0.54700  0.45700  0.14500  1.0000
  N   N2        1.0  0.95300  0.95700  0.35500  1.0000
  N   N3        1.0  0.04750  0.04290  0.64500  1.0000
  N   N4        1.0  0.45300  0.54300  0.85500  1.0000
  S   S1        1.0  0.38600  0.53000  0.02830  1.0000
  S   S2        1.0  0.11400  0.03010  0.47200  1.0000
  S   S3        1.0  0.88600  0.97000  0.52800  1.0000
  S   S4        1.0  0.61400  0.47000  0.97200  1.0000
