data_image0
_chemical_formula_structural       Ag8O12Si4
_chemical_formula_sum              "Ag8 O12 Si4"
_cell_length_a       4.56207
_cell_length_b       7.07498
_cell_length_c       9.99967
_cell_angle_alpha    90
_cell_angle_beta     90
_cell_angle_gamma    90

_space_group_name_H-M_alt    "P 1"
_space_group_IT_number       1

loop_
  _space_group_symop_operation_xyz
  'x, y, z'

loop_
  _atom_site_type_symbol
  _atom_site_label
  _atom_site_symmetry_multiplicity
  _atom_site_fract_x
  _atom_site_fract_y
  _atom_site_fract_z
  _atom_site_occupancy
  Ag  Ag1       1.0  0.10000  0.13300  0.11700  1.0000
  Ag  Ag2       1.0  0.52200  0.40600  0.22100  1.0000
  Ag  Ag3       1.0  0.47800  0.90600  0.27900  1.0000
  Ag  Ag4       1.0  0.90000  0.63300  0.38300  1.0000
  Ag  Ag5       1.0  0.40000  0.86700  0.61700  1.0000
  Ag  Ag6       1.0  0.97800  0.59400  0.72100  1.0000
  Ag  Ag7       1.0  0.02220  0.09400  0.77900  1.0000
  Ag  Ag8       1.0  0.60000  0.36700  0.88300  1.0000
  O   O1        1.0  0.91200  0.43500  0.03690  1.0000
  O   O2        1.0  0.80300  0.81100  0.05200  1.0000
  O   O3        1.0  0.20500  0.65300  0.21200  1.0000
  O   O4        1.0  0.79500  0.15300  0.28800  1.0000
  O   O5        1.0  0.19700  0.31100  0.44800  1.0000
  O   O6        1.0  0.08830  0.93500  0.46300  1.0000
  O   O7        1.0  0.58800  0.56500  0.53700  1.0000
  O   O8        1.0  0.69700  0.18900  0.55200  1.0000
  O   O9        1.0  0.29500  0.34700  0.71200  1.0000
  O   O10       1.0  0.70500  0.84700  0.78800  1.0000
  O   O11       1.0  0.30300  0.68900  0.94800  1.0000
  O   O12       1.0  0.41200  0.06540  0.96300  1.0000
  Si  Si1       1.0  0.05160  0.64100  0.06340  1.0000
  Si  Si2       1.0  0.94800  0.14100  0.43700  1.0000
  Si  Si3       1.0  0.44800  0.35900  0.56300  1.0000
  Si  Si4       1.0  0.55200  0.85900  0.93700  1.0000
