data_image0
_chemical_formula_structural       Ba2Ca2Cu3O10Tl2
_chemical_formula_sum              "Ba2 Ca2 Cu3 O10 Tl2"
_cell_length_a       20.238
_cell_length_b       3.80027
_cell_length_c       3.80027
_cell_angle_alpha    90
_cell_angle_beta     95.3874
_cell_angle_gamma    95.3874

_space_group_name_H-M_alt    "P 1"
_space_group_IT_number       1

loop_
  _space_group_symop_operation_xyz
  'x, y, z'

loop_
  _atom_site_type_symbol
  _atom_site_label
  _atom_site_symmetry_multiplicity
  _atom_site_fract_x
  _atom_site_fract_y
  _atom_site_fract_z
  _atom_site_occupancy
  Ba  Ba1       1.0  0.30000  0.15000  0.15000  1.0000
  Ba  Ba2       1.0  0.70000  0.85000  0.85000  1.0000
  Ca  Ca1       1.0  0.87900  0.44000  0.44000  1.0000
  Ca  Ca2       1.0  0.12100  0.56000  0.56000  1.0000
  Cu  Cu1       1.0  0.76500  0.38300  0.38300  1.0000
  Cu  Cu2       1.0  0.00000  0.50000  0.50000  1.0000
  Cu  Cu3       1.0  0.23500  0.61700  0.61700  1.0000
  O   O1        1.0  0.00000  0.50000  0.00000  1.0000
  O   O2        1.0  0.20200  0.60100  0.10100  1.0000
  O   O3        1.0  0.45000  0.22500  0.22500  1.0000
  O   O4        1.0  0.66200  0.33100  0.33100  1.0000
  O   O5        1.0  0.79800  0.89900  0.39900  1.0000
  O   O6        1.0  0.00000  0.00000  0.50000  1.0000
  O   O7        1.0  0.20200  0.10100  0.60100  1.0000
  O   O8        1.0  0.33800  0.66900  0.66900  1.0000
  O   O9        1.0  0.55000  0.77500  0.77500  1.0000
  O   O10       1.0  0.79800  0.39900  0.89900  1.0000
  Tl  Tl1       1.0  0.55700  0.27900  0.27900  1.0000
  Tl  Tl2       1.0  0.44300  0.72100  0.72100  1.0000
