data_image0
_chemical_formula_structural       Be4Er4Ge2O14
_chemical_formula_sum              "Be4 Er4 Ge2 O14"
_cell_length_a       7.33453
_cell_length_b       7.33453
_cell_length_c       4.75479
_cell_angle_alpha    90
_cell_angle_beta     90
_cell_angle_gamma    90

_space_group_name_H-M_alt    "P 1"
_space_group_IT_number       1

loop_
  _space_group_symop_operation_xyz
  'x, y, z'

loop_
  _atom_site_type_symbol
  _atom_site_label
  _atom_site_symmetry_multiplicity
  _atom_site_fract_x
  _atom_site_fract_y
  _atom_site_fract_z
  _atom_site_occupancy
  Be  Be1       1.0  0.36400  0.13600  0.04930  1.0000
  Be  Be2       1.0  0.63600  0.86400  0.04930  1.0000
  Be  Be3       1.0  0.86400  0.36400  0.95100  1.0000
  Be  Be4       1.0  0.13600  0.63600  0.95100  1.0000
  Er  Er1       1.0  0.15800  0.34200  0.49400  1.0000
  Er  Er2       1.0  0.84200  0.65800  0.49400  1.0000
  Er  Er3       1.0  0.65800  0.15800  0.50600  1.0000
  Er  Er4       1.0  0.34200  0.84200  0.50600  1.0000
  Ge  Ge1       1.0  0.00000  0.00000  0.00000  1.0000
  Ge  Ge2       1.0  0.50000  0.50000  0.00000  1.0000
  O   O1        1.0  0.50000  0.00000  0.18800  1.0000
  O   O2        1.0  0.17100  0.08260  0.22200  1.0000
  O   O3        1.0  0.41700  0.32900  0.22200  1.0000
  O   O4        1.0  0.58300  0.67100  0.22200  1.0000
  O   O5        1.0  0.82900  0.91700  0.22200  1.0000
  O   O6        1.0  0.85700  0.35700  0.28300  1.0000
  O   O7        1.0  0.14300  0.64300  0.28300  1.0000
  O   O8        1.0  0.35700  0.14300  0.71700  1.0000
  O   O9        1.0  0.64300  0.85700  0.71700  1.0000
  O   O10       1.0  0.91700  0.17100  0.77800  1.0000
  O   O11       1.0  0.67100  0.41700  0.77800  1.0000
  O   O12       1.0  0.32900  0.58300  0.77800  1.0000
  O   O13       1.0  0.08260  0.82900  0.77800  1.0000
  O   O14       1.0  0.00000  0.50000  0.81200  1.0000
