data_image0
_chemical_formula_structural       Br16In8
_chemical_formula_sum              "Br16 In8"
_cell_length_a       7.98563
_cell_length_b       10.4257
_cell_length_c       10.48
_cell_angle_alpha    90
_cell_angle_beta     90
_cell_angle_gamma    90

_space_group_name_H-M_alt    "P 1"
_space_group_IT_number       1

loop_
  _space_group_symop_operation_xyz
  'x, y, z'

loop_
  _atom_site_type_symbol
  _atom_site_label
  _atom_site_symmetry_multiplicity
  _atom_site_fract_x
  _atom_site_fract_y
  _atom_site_fract_z
  _atom_site_occupancy
  Br  Br1       1.0  0.34600  0.19000  0.04650  1.0000
  Br  Br2       1.0  0.15400  0.81000  0.04650  1.0000
  Br  Br3       1.0  0.99600  0.45300  0.17800  1.0000
  Br  Br4       1.0  0.50400  0.54700  0.17800  1.0000
  Br  Br5       1.0  0.99600  0.04680  0.32200  1.0000
  Br  Br6       1.0  0.50400  0.95300  0.32200  1.0000
  Br  Br7       1.0  0.34600  0.31000  0.45300  1.0000
  Br  Br8       1.0  0.15400  0.69000  0.45300  1.0000
  Br  Br9       1.0  0.84600  0.31000  0.54700  1.0000
  Br  Br10      1.0  0.65400  0.69000  0.54700  1.0000
  Br  Br11      1.0  0.49600  0.04680  0.67800  1.0000
  Br  Br12      1.0  0.00439  0.95300  0.67800  1.0000
  Br  Br13      1.0  0.49600  0.45300  0.82200  1.0000
  Br  Br14      1.0  0.00439  0.54700  0.82200  1.0000
  Br  Br15      1.0  0.84600  0.19000  0.95300  1.0000
  Br  Br16      1.0  0.65400  0.81000  0.95300  1.0000
  In  In1       1.0  0.25000  0.00000  0.18200  1.0000
  In  In2       1.0  0.67600  0.25000  0.25000  1.0000
  In  In3       1.0  0.82400  0.75000  0.25000  1.0000
  In  In4       1.0  0.25000  0.50000  0.31800  1.0000
  In  In5       1.0  0.75000  0.50000  0.68200  1.0000
  In  In6       1.0  0.17600  0.25000  0.75000  1.0000
  In  In7       1.0  0.32400  0.75000  0.75000  1.0000
  In  In8       1.0  0.75000  0.00000  0.81800  1.0000
