data_image0
_chemical_formula_structural       P16Zn8
_chemical_formula_sum              "P16 Zn8"
_cell_length_a       5.0568
_cell_length_b       5.0568
_cell_length_c       18.4665
_cell_angle_alpha    90
_cell_angle_beta     90
_cell_angle_gamma    90

_space_group_name_H-M_alt    "P 1"
_space_group_IT_number       1

loop_
  _space_group_symop_operation_xyz
  'x, y, z'

loop_
  _atom_site_type_symbol
  _atom_site_label
  _atom_site_symmetry_multiplicity
  _atom_site_fract_x
  _atom_site_fract_y
  _atom_site_fract_z
  _atom_site_occupancy
  P   P1        1.0  0.69800  0.81900  0.69100  1.0000
  P   P2        1.0  0.68100  0.19800  0.44100  1.0000
  P   P3        1.0  0.31900  0.80200  0.94100  1.0000
  P   P4        1.0  0.81900  0.69800  0.30900  1.0000
  P   P5        1.0  0.18100  0.30200  0.80900  1.0000
  P   P6        1.0  0.98100  0.00772  0.12400  1.0000
  P   P7        1.0  0.01900  0.99200  0.62400  1.0000
  P   P8        1.0  0.48100  0.49200  0.12600  1.0000
  P   P9        1.0  0.51900  0.50800  0.62600  1.0000
  P   P10       1.0  0.99200  0.01900  0.37600  1.0000
  P   P11       1.0  0.00772  0.98100  0.87600  1.0000
  P   P12       1.0  0.50800  0.51900  0.37400  1.0000
  P   P13       1.0  0.49200  0.48100  0.87400  1.0000
  P   P14       1.0  0.80200  0.31900  0.05920  1.0000
  P   P15       1.0  0.19800  0.68100  0.55900  1.0000
  P   P16       1.0  0.30200  0.18100  0.19100  1.0000
  Zn  Zn1       1.0  0.13600  0.65200  0.05010  1.0000
  Zn  Zn2       1.0  0.86400  0.34800  0.55000  1.0000
  Zn  Zn3       1.0  0.63600  0.84800  0.20000  1.0000
  Zn  Zn4       1.0  0.36400  0.15200  0.70000  1.0000
  Zn  Zn5       1.0  0.34800  0.86400  0.45000  1.0000
  Zn  Zn6       1.0  0.65200  0.13600  0.95000  1.0000
  Zn  Zn7       1.0  0.15200  0.36400  0.30000  1.0000
  Zn  Zn8       1.0  0.84800  0.63600  0.80000  1.0000
