data_image0
_chemical_formula_structural       Cl16I4K4
_chemical_formula_sum              "Cl16 I4 K4"
_cell_length_a       12.9915
_cell_length_b       14.0259
_cell_length_c       4.40981
_cell_angle_alpha    90
_cell_angle_beta     95.5699
_cell_angle_gamma    90

_space_group_name_H-M_alt    "P 1"
_space_group_IT_number       1

loop_
  _space_group_symop_operation_xyz
  'x, y, z'

loop_
  _atom_site_type_symbol
  _atom_site_label
  _atom_site_symmetry_multiplicity
  _atom_site_fract_x
  _atom_site_fract_y
  _atom_site_fract_z
  _atom_site_occupancy
  Cl  Cl1       1.0  0.46500  0.87500  0.23600  1.0000
  Cl  Cl2       1.0  0.61200  0.51800  0.24100  1.0000
  Cl  Cl3       1.0  0.32000  0.08520  0.24900  1.0000
  Cl  Cl4       1.0  0.76800  0.73700  0.24900  1.0000
  Cl  Cl5       1.0  0.73200  0.23700  0.25100  1.0000
  Cl  Cl6       1.0  0.18000  0.58500  0.25100  1.0000
  Cl  Cl7       1.0  0.88800  0.01830  0.25900  1.0000
  Cl  Cl8       1.0  0.03510  0.37500  0.26400  1.0000
  Cl  Cl9       1.0  0.96500  0.62500  0.73600  1.0000
  Cl  Cl10      1.0  0.11200  0.98200  0.74100  1.0000
  Cl  Cl11      1.0  0.82000  0.41500  0.74900  1.0000
  Cl  Cl12      1.0  0.26800  0.76300  0.74900  1.0000
  Cl  Cl13      1.0  0.23200  0.26300  0.75100  1.0000
  Cl  Cl14      1.0  0.68000  0.91500  0.75100  1.0000
  Cl  Cl15      1.0  0.38800  0.48200  0.75900  1.0000
  Cl  Cl16      1.0  0.53500  0.12500  0.76400  1.0000
  I   I1        1.0  0.70400  0.07270  0.00489  1.0000
  I   I2        1.0  0.79600  0.57300  0.49500  1.0000
  I   I3        1.0  0.20400  0.42700  0.50500  1.0000
  I   I4        1.0  0.29600  0.92700  0.99500  1.0000
  K   K1        1.0  0.08820  0.15400  0.22000  1.0000
  K   K2        1.0  0.41200  0.65400  0.28000  1.0000
  K   K3        1.0  0.58800  0.34600  0.72000  1.0000
  K   K4        1.0  0.91200  0.84600  0.78000  1.0000
