data_image0
_chemical_formula_structural       Ge4K4Na4O12
_chemical_formula_sum              "Ge4 K4 Na4 O12"
_cell_length_a       10.6397
_cell_length_b       6.83544
_cell_length_c       4.76877
_cell_angle_alpha    90
_cell_angle_beta     90
_cell_angle_gamma    90

_space_group_name_H-M_alt    "P 1"
_space_group_IT_number       1

loop_
  _space_group_symop_operation_xyz
  'x, y, z'

loop_
  _atom_site_type_symbol
  _atom_site_label
  _atom_site_symmetry_multiplicity
  _atom_site_fract_x
  _atom_site_fract_y
  _atom_site_fract_z
  _atom_site_occupancy
  Ge  Ge1       1.0  0.54900  0.36800  0.00183  1.0000
  Ge  Ge2       1.0  0.95100  0.86800  0.00183  1.0000
  Ge  Ge3       1.0  0.04930  0.13200  0.50200  1.0000
  Ge  Ge4       1.0  0.45100  0.63200  0.50200  1.0000
  K   K1        1.0  0.23400  0.38500  0.02400  1.0000
  K   K2        1.0  0.26600  0.88500  0.02400  1.0000
  K   K3        1.0  0.73400  0.11500  0.52400  1.0000
  K   K4        1.0  0.76600  0.61500  0.52400  1.0000
  Na  Na1       1.0  0.91700  0.37900  0.03850  1.0000
  Na  Na2       1.0  0.58300  0.87900  0.03850  1.0000
  Na  Na3       1.0  0.41700  0.12100  0.53900  1.0000
  Na  Na4       1.0  0.08340  0.62100  0.53900  1.0000
  O   O1        1.0  0.45800  0.16000  0.05870  1.0000
  O   O2        1.0  0.04200  0.66000  0.05870  1.0000
  O   O3        1.0  0.70800  0.36200  0.06940  1.0000
  O   O4        1.0  0.79200  0.86200  0.06940  1.0000
  O   O5        1.0  0.03240  0.08710  0.12200  1.0000
  O   O6        1.0  0.46800  0.58700  0.12200  1.0000
  O   O7        1.0  0.95800  0.34000  0.55900  1.0000
  O   O8        1.0  0.54200  0.84000  0.55900  1.0000
  O   O9        1.0  0.20800  0.13800  0.56900  1.0000
  O   O10       1.0  0.29200  0.63800  0.56900  1.0000
  O   O11       1.0  0.53200  0.41300  0.62200  1.0000
  O   O12       1.0  0.96800  0.91300  0.62200  1.0000
