data_image0
_chemical_formula_structural       Ba4Cu2O14Si4
_chemical_formula_sum              "Ba4 Cu2 O14 Si4"
_cell_length_a       6.76399
_cell_length_b       6.76399
_cell_length_c       8.54551
_cell_angle_alpha    102.917
_cell_angle_beta     102.917
_cell_angle_gamma    102.018

_space_group_name_H-M_alt    "P 1"
_space_group_IT_number       1

loop_
  _space_group_symop_operation_xyz
  'x, y, z'

loop_
  _atom_site_type_symbol
  _atom_site_label
  _atom_site_symmetry_multiplicity
  _atom_site_fract_x
  _atom_site_fract_y
  _atom_site_fract_z
  _atom_site_occupancy
  Ba  Ba1       1.0  0.73200  0.81400  0.02700  1.0000
  Ba  Ba2       1.0  0.18600  0.26800  0.47300  1.0000
  Ba  Ba3       1.0  0.81400  0.73200  0.52700  1.0000
  Ba  Ba4       1.0  0.26800  0.18600  0.97300  1.0000
  Cu  Cu1       1.0  0.26800  0.73200  0.25000  1.0000
  Cu  Cu2       1.0  0.73200  0.26800  0.75000  1.0000
  O   O1        1.0  0.31500  0.62400  0.04030  1.0000
  O   O2        1.0  0.98400  0.22600  0.13700  1.0000
  O   O3        1.0  0.96700  0.63400  0.23800  1.0000
  O   O4        1.0  0.66700  0.33300  0.25000  1.0000
  O   O5        1.0  0.36600  0.03310  0.26200  1.0000
  O   O6        1.0  0.77400  0.01570  0.36300  1.0000
  O   O7        1.0  0.37600  0.68500  0.46000  1.0000
  O   O8        1.0  0.62400  0.31500  0.54000  1.0000
  O   O9        1.0  0.22600  0.98400  0.63700  1.0000
  O   O10       1.0  0.63400  0.96700  0.73800  1.0000
  O   O11       1.0  0.33300  0.66700  0.75000  1.0000
  O   O12       1.0  0.03310  0.36600  0.76200  1.0000
  O   O13       1.0  0.01570  0.77400  0.86300  1.0000
  O   O14       1.0  0.68500  0.37600  0.96000  1.0000
  Si  Si1       1.0  0.84100  0.38800  0.14100  1.0000
  Si  Si2       1.0  0.61200  0.15900  0.35900  1.0000
  Si  Si3       1.0  0.38800  0.84100  0.64100  1.0000
  Si  Si4       1.0  0.15900  0.61200  0.85900  1.0000
