data_image0
_chemical_formula_structural       Cl16Yb8
_chemical_formula_sum              "Cl16 Yb8"
_cell_length_a       13.0079
_cell_length_b       6.81256
_cell_length_c       6.61637
_cell_angle_alpha    90
_cell_angle_beta     90
_cell_angle_gamma    90

_space_group_name_H-M_alt    "P 1"
_space_group_IT_number       1

loop_
  _space_group_symop_operation_xyz
  'x, y, z'

loop_
  _atom_site_type_symbol
  _atom_site_label
  _atom_site_symmetry_multiplicity
  _atom_site_fract_x
  _atom_site_fract_y
  _atom_site_fract_z
  _atom_site_occupancy
  Cl  Cl1       1.0  0.97200  0.26300  0.00012  1.0000
  Cl  Cl2       1.0  0.52800  0.76300  0.00012  1.0000
  Cl  Cl3       1.0  0.20700  0.11800  0.14300  1.0000
  Cl  Cl4       1.0  0.29300  0.61800  0.14300  1.0000
  Cl  Cl5       1.0  0.70700  0.11800  0.35700  1.0000
  Cl  Cl6       1.0  0.79300  0.61800  0.35700  1.0000
  Cl  Cl7       1.0  0.47200  0.26300  0.50000  1.0000
  Cl  Cl8       1.0  0.02770  0.76300  0.50000  1.0000
  Cl  Cl9       1.0  0.97200  0.23700  0.50000  1.0000
  Cl  Cl10      1.0  0.52800  0.73700  0.50000  1.0000
  Cl  Cl11      1.0  0.20700  0.38200  0.64300  1.0000
  Cl  Cl12      1.0  0.29300  0.88200  0.64300  1.0000
  Cl  Cl13      1.0  0.70700  0.38200  0.85700  1.0000
  Cl  Cl14      1.0  0.79300  0.88200  0.85700  1.0000
  Cl  Cl15      1.0  0.47200  0.23700  0.00000  1.0000
  Cl  Cl16      1.0  0.02770  0.73700  0.00000  1.0000
  Yb  Yb1       1.0  0.61200  0.45600  0.23100  1.0000
  Yb  Yb2       1.0  0.88800  0.95600  0.23100  1.0000
  Yb  Yb3       1.0  0.11200  0.45600  0.26900  1.0000
  Yb  Yb4       1.0  0.38800  0.95600  0.26900  1.0000
  Yb  Yb5       1.0  0.61200  0.04410  0.73100  1.0000
  Yb  Yb6       1.0  0.88800  0.54400  0.73100  1.0000
  Yb  Yb7       1.0  0.11200  0.04410  0.76900  1.0000
  Yb  Yb8       1.0  0.38800  0.54400  0.76900  1.0000
