data_image0
_chemical_formula_structural       C12Cr4Sc8
_chemical_formula_sum              "C12 Cr4 Sc8"
_cell_length_a       14.0793
_cell_length_b       5.78751
_cell_length_c       3.26904
_cell_angle_alpha    90
_cell_angle_beta     90
_cell_angle_gamma    90

_space_group_name_H-M_alt    "P 1"
_space_group_IT_number       1

loop_
  _space_group_symop_operation_xyz
  'x, y, z'

loop_
  _atom_site_type_symbol
  _atom_site_label
  _atom_site_symmetry_multiplicity
  _atom_site_fract_x
  _atom_site_fract_y
  _atom_site_fract_z
  _atom_site_occupancy
  C   C1        1.0  0.59200  0.18100  0.00000  1.0000
  C   C2        1.0  0.09220  0.31900  0.00000  1.0000
  C   C3        1.0  0.90800  0.68100  0.00000  1.0000
  C   C4        1.0  0.40800  0.81900  0.00000  1.0000
  C   C5        1.0  0.77900  0.10800  0.50000  1.0000
  C   C6        1.0  0.88300  0.13900  0.50000  1.0000
  C   C7        1.0  0.38300  0.36100  0.50000  1.0000
  C   C8        1.0  0.27900  0.39200  0.50000  1.0000
  C   C9        1.0  0.72100  0.60800  0.50000  1.0000
  C   C10       1.0  0.61700  0.63900  0.50000  1.0000
  C   C11       1.0  0.11700  0.86100  0.50000  1.0000
  C   C12       1.0  0.22100  0.89200  0.50000  1.0000
  Cr  Cr1       1.0  0.15400  0.20000  0.50000  1.0000
  Cr  Cr2       1.0  0.65400  0.30000  0.50000  1.0000
  Cr  Cr3       1.0  0.34600  0.70000  0.50000  1.0000
  Cr  Cr4       1.0  0.84600  0.80000  0.50000  1.0000
  Sc  Sc1       1.0  0.00000  0.00000  0.00000  1.0000
  Sc  Sc2       1.0  0.31200  0.12100  0.00000  1.0000
  Sc  Sc3       1.0  0.81200  0.37900  0.00000  1.0000
  Sc  Sc4       1.0  0.50000  0.50000  0.00000  1.0000
  Sc  Sc5       1.0  0.18800  0.62100  0.00000  1.0000
  Sc  Sc6       1.0  0.68800  0.87900  0.00000  1.0000
  Sc  Sc7       1.0  0.50000  0.00000  0.50000  1.0000
  Sc  Sc8       1.0  0.00000  0.50000  0.50000  1.0000
