data_image0
_chemical_formula_structural       Ag4C4K4O12
_chemical_formula_sum              "Ag4 C4 K4 O12"
_cell_length_a       5.69407
_cell_length_b       5.79294
_cell_length_c       10.9123
_cell_angle_alpha    105.393
_cell_angle_beta     105.124
_cell_angle_gamma    90

_space_group_name_H-M_alt    "P 1"
_space_group_IT_number       1

loop_
  _space_group_symop_operation_xyz
  'x, y, z'

loop_
  _atom_site_type_symbol
  _atom_site_label
  _atom_site_symmetry_multiplicity
  _atom_site_fract_x
  _atom_site_fract_y
  _atom_site_fract_z
  _atom_site_occupancy
  Ag  Ag1       1.0  0.25000  0.14000  0.00000  1.0000
  Ag  Ag2       1.0  0.75000  0.36000  0.00000  1.0000
  Ag  Ag3       1.0  0.25000  0.64000  0.00000  1.0000
  Ag  Ag4       1.0  0.75000  0.86000  0.00000  1.0000
  C   C1        1.0  0.62500  0.37500  0.25000  1.0000
  C   C2        1.0  0.12500  0.87500  0.25000  1.0000
  C   C3        1.0  0.87500  0.12500  0.75000  1.0000
  C   C4        1.0  0.37500  0.62500  0.75000  1.0000
  K   K1        1.0  0.18100  0.43100  0.36300  1.0000
  K   K2        1.0  0.68100  0.93100  0.36300  1.0000
  K   K3        1.0  0.31900  0.06870  0.63700  1.0000
  K   K4        1.0  0.81900  0.56900  0.63700  1.0000
  O   O1        1.0  0.75200  0.22300  0.18700  1.0000
  O   O2        1.0  0.43500  0.46400  0.18700  1.0000
  O   O3        1.0  0.93500  0.72300  0.18700  1.0000
  O   O4        1.0  0.25200  0.96400  0.18700  1.0000
  O   O5        1.0  0.68900  0.43900  0.37700  1.0000
  O   O6        1.0  0.18900  0.93900  0.37700  1.0000
  O   O7        1.0  0.81100  0.06140  0.62300  1.0000
  O   O8        1.0  0.31100  0.56100  0.62300  1.0000
  O   O9        1.0  0.74800  0.03640  0.81300  1.0000
  O   O10       1.0  0.06520  0.27700  0.81300  1.0000
  O   O11       1.0  0.56500  0.53600  0.81300  1.0000
  O   O12       1.0  0.24800  0.77700  0.81300  1.0000
