data_image0
_chemical_formula_structural       Hg4I4N4O12
_chemical_formula_sum              "Hg4 I4 N4 O12"
_cell_length_a       7.31126
_cell_length_b       5.26542
_cell_length_c       12.2238
_cell_angle_alpha    90
_cell_angle_beta     90
_cell_angle_gamma    90

_space_group_name_H-M_alt    "P 1"
_space_group_IT_number       1

loop_
  _space_group_symop_operation_xyz
  'x, y, z'

loop_
  _atom_site_type_symbol
  _atom_site_label
  _atom_site_symmetry_multiplicity
  _atom_site_fract_x
  _atom_site_fract_y
  _atom_site_fract_z
  _atom_site_occupancy
  Hg  Hg1       1.0  0.09550  0.75000  0.22100  1.0000
  Hg  Hg2       1.0  0.59500  0.75000  0.27900  1.0000
  Hg  Hg3       1.0  0.40500  0.25000  0.72100  1.0000
  Hg  Hg4       1.0  0.90500  0.25000  0.77900  1.0000
  I   I1        1.0  0.39500  0.75000  0.09240  1.0000
  I   I2        1.0  0.89500  0.75000  0.40800  1.0000
  I   I3        1.0  0.10500  0.25000  0.59200  1.0000
  I   I4        1.0  0.60500  0.25000  0.90800  1.0000
  N   N1        1.0  0.93200  0.25000  0.14100  1.0000
  N   N2        1.0  0.43200  0.25000  0.35900  1.0000
  N   N3        1.0  0.56800  0.75000  0.64100  1.0000
  N   N4        1.0  0.06810  0.75000  0.85900  1.0000
  O   O1        1.0  0.86400  0.04050  0.11000  1.0000
  O   O2        1.0  0.86400  0.45900  0.11000  1.0000
  O   O3        1.0  0.07190  0.25000  0.20400  1.0000
  O   O4        1.0  0.57200  0.25000  0.29600  1.0000
  O   O5        1.0  0.36400  0.04050  0.39000  1.0000
  O   O6        1.0  0.36400  0.45900  0.39000  1.0000
  O   O7        1.0  0.63600  0.54100  0.61000  1.0000
  O   O8        1.0  0.63600  0.95900  0.61000  1.0000
  O   O9        1.0  0.42800  0.75000  0.70400  1.0000
  O   O10       1.0  0.92800  0.75000  0.79600  1.0000
  O   O11       1.0  0.13600  0.54100  0.89000  1.0000
  O   O12       1.0  0.13600  0.95900  0.89000  1.0000
