data_image0
_chemical_formula_structural       Mn8O14Si2
_chemical_formula_sum              "Mn8 O14 Si2"
_cell_length_a       8.0364
_cell_length_b       8.03641
_cell_length_c       4.88616
_cell_angle_alpha    90
_cell_angle_beta     90
_cell_angle_gamma    120

_space_group_name_H-M_alt    "P 1"
_space_group_IT_number       1

loop_
  _space_group_symop_operation_xyz
  'x, y, z'

loop_
  _atom_site_type_symbol
  _atom_site_label
  _atom_site_symmetry_multiplicity
  _atom_site_fract_x
  _atom_site_fract_y
  _atom_site_fract_z
  _atom_site_occupancy
  Mn  Mn1       1.0  0.59100  0.70500  0.00314  1.0000
  Mn  Mn2       1.0  0.11500  0.40900  0.00315  1.0000
  Mn  Mn3       1.0  0.29500  0.88500  0.00315  1.0000
  Mn  Mn4       1.0  0.00000  0.00000  0.01180  1.0000
  Mn  Mn5       1.0  0.40900  0.29500  0.50300  1.0000
  Mn  Mn6       1.0  0.70500  0.11500  0.50300  1.0000
  Mn  Mn7       1.0  0.88500  0.59100  0.50300  1.0000
  Mn  Mn8       1.0  0.00000  0.00000  0.51200  1.0000
  O   O1        1.0  0.84400  0.79200  0.26200  1.0000
  O   O2        1.0  0.20800  0.05130  0.26200  1.0000
  O   O3        1.0  0.94900  0.15600  0.26200  1.0000
  O   O4        1.0  0.66700  0.33300  0.27200  1.0000
  O   O5        1.0  0.12900  0.62500  0.29700  1.0000
  O   O6        1.0  0.37500  0.50400  0.29700  1.0000
  O   O7        1.0  0.49600  0.87100  0.29700  1.0000
  O   O8        1.0  0.15600  0.20800  0.76200  1.0000
  O   O9        1.0  0.05130  0.84400  0.76200  1.0000
  O   O10       1.0  0.79200  0.94900  0.76200  1.0000
  O   O11       1.0  0.33300  0.66700  0.77200  1.0000
  O   O12       1.0  0.87100  0.37500  0.79700  1.0000
  O   O13       1.0  0.62500  0.49600  0.79700  1.0000
  O   O14       1.0  0.50400  0.12900  0.79700  1.0000
  Si  Si1       1.0  0.33300  0.66700  0.43800  1.0000
  Si  Si2       1.0  0.66700  0.33300  0.93800  1.0000
