data_image0
_chemical_formula_structural       Cs4N4O12Os4
_chemical_formula_sum              "Cs4 N4 O12 Os4"
_cell_length_a       8.30536
_cell_length_b       7.15793
_cell_length_c       7.97771
_cell_angle_alpha    90
_cell_angle_beta     90
_cell_angle_gamma    90

_space_group_name_H-M_alt    "P 1"
_space_group_IT_number       1

loop_
  _space_group_symop_operation_xyz
  'x, y, z'

loop_
  _atom_site_type_symbol
  _atom_site_label
  _atom_site_symmetry_multiplicity
  _atom_site_fract_x
  _atom_site_fract_y
  _atom_site_fract_z
  _atom_site_occupancy
  Cs  Cs1       1.0  0.63100  0.25000  0.15400  1.0000
  Cs  Cs2       1.0  0.13100  0.25000  0.34600  1.0000
  Cs  Cs3       1.0  0.86900  0.75000  0.65400  1.0000
  Cs  Cs4       1.0  0.36900  0.75000  0.84600  1.0000
  N   N1        1.0  0.70800  0.75000  0.04170  1.0000
  N   N2        1.0  0.20800  0.75000  0.45800  1.0000
  N   N3        1.0  0.79200  0.25000  0.54200  1.0000
  N   N4        1.0  0.29200  0.25000  0.95800  1.0000
  O   O1        1.0  0.04460  0.75000  0.01780  1.0000
  O   O2        1.0  0.37800  0.54800  0.21600  1.0000
  O   O3        1.0  0.37800  0.95200  0.21600  1.0000
  O   O4        1.0  0.87800  0.54800  0.28400  1.0000
  O   O5        1.0  0.87800  0.95200  0.28400  1.0000
  O   O6        1.0  0.54500  0.75000  0.48200  1.0000
  O   O7        1.0  0.45500  0.25000  0.51800  1.0000
  O   O8        1.0  0.12200  0.04840  0.71600  1.0000
  O   O9        1.0  0.12200  0.45200  0.71600  1.0000
  O   O10       1.0  0.62200  0.04840  0.78400  1.0000
  O   O11       1.0  0.62200  0.45200  0.78400  1.0000
  O   O12       1.0  0.95500  0.25000  0.98200  1.0000
  Os  Os1       1.0  0.88000  0.75000  0.15700  1.0000
  Os  Os2       1.0  0.38000  0.75000  0.34300  1.0000
  Os  Os3       1.0  0.62000  0.25000  0.65700  1.0000
  Os  Os4       1.0  0.12000  0.25000  0.84300  1.0000
