data_image0
_chemical_formula_structural       Os8Si16
_chemical_formula_sum              "Os8 Si16"
_cell_length_a       6.53072
_cell_length_b       6.53072
_cell_length_c       8.26476
_cell_angle_alpha    90
_cell_angle_beta     90
_cell_angle_gamma    102.84

_space_group_name_H-M_alt    "P 1"
_space_group_IT_number       1

loop_
  _space_group_symop_operation_xyz
  'x, y, z'

loop_
  _atom_site_type_symbol
  _atom_site_label
  _atom_site_symmetry_multiplicity
  _atom_site_fract_x
  _atom_site_fract_y
  _atom_site_fract_z
  _atom_site_occupancy
  Os  Os1       1.0  0.78500  0.21500  0.00000  1.0000
  Os  Os2       1.0  0.21500  0.78500  0.00000  1.0000
  Os  Os3       1.0  0.81200  0.81200  0.18200  1.0000
  Os  Os4       1.0  0.31200  0.31200  0.31800  1.0000
  Os  Os5       1.0  0.71500  0.28500  0.50000  1.0000
  Os  Os6       1.0  0.28500  0.71500  0.50000  1.0000
  Os  Os7       1.0  0.68800  0.68800  0.68200  1.0000
  Os  Os8       1.0  0.18800  0.18800  0.81800  1.0000
  Si  Si1       1.0  0.40600  0.15000  0.05840  1.0000
  Si  Si2       1.0  0.15000  0.40600  0.05840  1.0000
  Si  Si3       1.0  0.67900  0.42600  0.22400  1.0000
  Si  Si4       1.0  0.42600  0.67900  0.22400  1.0000
  Si  Si5       1.0  0.92600  0.17900  0.27600  1.0000
  Si  Si6       1.0  0.17900  0.92600  0.27600  1.0000
  Si  Si7       1.0  0.90600  0.65000  0.44200  1.0000
  Si  Si8       1.0  0.65000  0.90600  0.44200  1.0000
  Si  Si9       1.0  0.35000  0.09430  0.55800  1.0000
  Si  Si10      1.0  0.09430  0.35000  0.55800  1.0000
  Si  Si11      1.0  0.82100  0.07450  0.72400  1.0000
  Si  Si12      1.0  0.07450  0.82100  0.72400  1.0000
  Si  Si13      1.0  0.57400  0.32100  0.77600  1.0000
  Si  Si14      1.0  0.32100  0.57400  0.77600  1.0000
  Si  Si15      1.0  0.85000  0.59400  0.94200  1.0000
  Si  Si16      1.0  0.59400  0.85000  0.94200  1.0000
