data_image0
_chemical_formula_structural       Ag4Cl12Cs8
_chemical_formula_sum              "Ag4 Cl12 Cs8"
_cell_length_a       13.3651
_cell_length_b       13.8204
_cell_length_c       4.61398
_cell_angle_alpha    90
_cell_angle_beta     90
_cell_angle_gamma    90

_space_group_name_H-M_alt    "P 1"
_space_group_IT_number       1

loop_
  _space_group_symop_operation_xyz
  'x, y, z'

loop_
  _atom_site_type_symbol
  _atom_site_label
  _atom_site_symmetry_multiplicity
  _atom_site_fract_x
  _atom_site_fract_y
  _atom_site_fract_z
  _atom_site_occupancy
  Ag  Ag1       1.0  0.25400  0.19900  0.25000  1.0000
  Ag  Ag2       1.0  0.75400  0.30100  0.25000  1.0000
  Ag  Ag3       1.0  0.24600  0.69900  0.75000  1.0000
  Ag  Ag4       1.0  0.74600  0.80100  0.75000  1.0000
  Cl  Cl1       1.0  0.13700  0.04950  0.25000  1.0000
  Cl  Cl2       1.0  0.44100  0.14100  0.25000  1.0000
  Cl  Cl3       1.0  0.94100  0.35900  0.25000  1.0000
  Cl  Cl4       1.0  0.63700  0.45100  0.25000  1.0000
  Cl  Cl5       1.0  0.77500  0.71300  0.25000  1.0000
  Cl  Cl6       1.0  0.27500  0.78700  0.25000  1.0000
  Cl  Cl7       1.0  0.72500  0.21300  0.75000  1.0000
  Cl  Cl8       1.0  0.22500  0.28700  0.75000  1.0000
  Cl  Cl9       1.0  0.36300  0.54900  0.75000  1.0000
  Cl  Cl10      1.0  0.05940  0.64100  0.75000  1.0000
  Cl  Cl11      1.0  0.55900  0.85900  0.75000  1.0000
  Cl  Cl12      1.0  0.86300  0.95100  0.75000  1.0000
  Cs  Cs1       1.0  0.67200  0.01800  0.25000  1.0000
  Cs  Cs2       1.0  0.17200  0.48200  0.25000  1.0000
  Cs  Cs3       1.0  0.51100  0.67300  0.25000  1.0000
  Cs  Cs4       1.0  0.01120  0.82700  0.25000  1.0000
  Cs  Cs5       1.0  0.98900  0.17300  0.75000  1.0000
  Cs  Cs6       1.0  0.48900  0.32700  0.75000  1.0000
  Cs  Cs7       1.0  0.82800  0.51800  0.75000  1.0000
  Cs  Cs8       1.0  0.32800  0.98200  0.75000  1.0000
