data_image0
_chemical_formula_structural       O16Se4Sr4
_chemical_formula_sum              "O16 Se4 Sr4"
_cell_length_a       7.06706
_cell_length_b       7.30959
_cell_length_c       6.84333
_cell_angle_alpha    90
_cell_angle_beta     103.475
_cell_angle_gamma    90

_space_group_name_H-M_alt    "P 1"
_space_group_IT_number       1

loop_
  _space_group_symop_operation_xyz
  'x, y, z'

loop_
  _atom_site_type_symbol
  _atom_site_label
  _atom_site_symmetry_multiplicity
  _atom_site_fract_x
  _atom_site_fract_y
  _atom_site_fract_z
  _atom_site_occupancy
  O   O1        1.0  0.11300  0.34100  0.00181  1.0000
  O   O2        1.0  0.25100  0.00295  0.05990  1.0000
  O   O3        1.0  0.51600  0.38900  0.18700  1.0000
  O   O4        1.0  0.62100  0.78400  0.21600  1.0000
  O   O5        1.0  0.87900  0.28400  0.28400  1.0000
  O   O6        1.0  0.98400  0.88900  0.31300  1.0000
  O   O7        1.0  0.24900  0.50300  0.44000  1.0000
  O   O8        1.0  0.38700  0.84100  0.49800  1.0000
  O   O9        1.0  0.61300  0.15900  0.50200  1.0000
  O   O10       1.0  0.75100  0.49700  0.56000  1.0000
  O   O11       1.0  0.01580  0.11100  0.68700  1.0000
  O   O12       1.0  0.12100  0.71600  0.71600  1.0000
  O   O13       1.0  0.37900  0.21600  0.78400  1.0000
  O   O14       1.0  0.48400  0.61100  0.81300  1.0000
  O   O15       1.0  0.74900  0.99700  0.94000  1.0000
  O   O16       1.0  0.88700  0.65900  0.99800  1.0000
  Se  Se1       1.0  0.80600  0.83500  0.11500  1.0000
  Se  Se2       1.0  0.69400  0.33500  0.38500  1.0000
  Se  Se3       1.0  0.30600  0.66500  0.61500  1.0000
  Se  Se4       1.0  0.19400  0.16500  0.88500  1.0000
  Sr  Sr1       1.0  0.27800  0.65700  0.10100  1.0000
  Sr  Sr2       1.0  0.22200  0.15700  0.39900  1.0000
  Sr  Sr3       1.0  0.77800  0.84300  0.60100  1.0000
  Sr  Sr4       1.0  0.72200  0.34300  0.89900  1.0000
