data_image0
_chemical_formula_structural       Ba8Mn4O12
_chemical_formula_sum              "Ba8 Mn4 O12"
_cell_length_a       5.89592
_cell_length_b       6.50731
_cell_length_c       12.7334
_cell_angle_alpha    91.7171
_cell_angle_beta     93.7925
_cell_angle_gamma    63.0622

_space_group_name_H-M_alt    "P 1"
_space_group_IT_number       1

loop_
  _space_group_symop_operation_xyz
  'x, y, z'

loop_
  _atom_site_type_symbol
  _atom_site_label
  _atom_site_symmetry_multiplicity
  _atom_site_fract_x
  _atom_site_fract_y
  _atom_site_fract_z
  _atom_site_occupancy
  Ba  Ba1       1.0  0.58400  0.78800  0.02240  1.0000
  Ba  Ba2       1.0  0.89300  0.21100  0.17300  1.0000
  Ba  Ba3       1.0  0.21400  0.58600  0.24900  1.0000
  Ba  Ba4       1.0  0.67600  0.58800  0.44700  1.0000
  Ba  Ba5       1.0  0.37200  0.21200  0.52200  1.0000
  Ba  Ba6       1.0  0.10400  0.78900  0.67300  1.0000
  Ba  Ba7       1.0  0.80000  0.41400  0.74900  1.0000
  Ba  Ba8       1.0  0.26400  0.41200  0.94700  1.0000
  Mn  Mn1       1.0  0.51800  0.99200  0.26100  1.0000
  Mn  Mn2       1.0  0.96600  0.99400  0.43500  1.0000
  Mn  Mn3       1.0  0.51000  0.00805  0.76100  1.0000
  Mn  Mn4       1.0  0.96000  0.00645  0.93500  1.0000
  O   O1        1.0  0.11600  0.79900  0.06560  1.0000
  O   O2        1.0  0.36500  0.19800  0.13000  1.0000
  O   O3        1.0  0.73700  0.64900  0.22900  1.0000
  O   O4        1.0  0.24600  0.98500  0.34800  1.0000
  O   O5        1.0  0.63500  0.20700  0.34800  1.0000
  O   O6        1.0  0.08990  0.65100  0.46700  1.0000
  O   O7        1.0  0.91500  0.20100  0.56600  1.0000
  O   O8        1.0  0.56300  0.80200  0.63000  1.0000
  O   O9        1.0  0.38600  0.35100  0.72900  1.0000
  O   O10       1.0  0.23100  0.01470  0.84800  1.0000
  O   O11       1.0  0.84200  0.79300  0.84800  1.0000
  O   O12       1.0  0.74100  0.34900  0.96700  1.0000
