data_image0
_chemical_formula_structural       Cl20P2U2
_chemical_formula_sum              "Cl20 P2 U2"
_cell_length_a       7.0766
_cell_length_b       7.41017
_cell_length_c       13.7676
_cell_angle_alpha    89.356
_cell_angle_beta     88.6297
_cell_angle_gamma    105.241

_space_group_name_H-M_alt    "P 1"
_space_group_IT_number       1

loop_
  _space_group_symop_operation_xyz
  'x, y, z'

loop_
  _atom_site_type_symbol
  _atom_site_label
  _atom_site_symmetry_multiplicity
  _atom_site_fract_x
  _atom_site_fract_y
  _atom_site_fract_z
  _atom_site_occupancy
  Cl  Cl1       1.0  0.24300  0.31300  0.02490  1.0000
  Cl  Cl2       1.0  0.25000  0.83000  0.05380  1.0000
  Cl  Cl3       1.0  0.88400  0.99600  0.17400  1.0000
  Cl  Cl4       1.0  0.87100  0.48100  0.19400  1.0000
  Cl  Cl5       1.0  0.46900  0.16300  0.22500  1.0000
  Cl  Cl6       1.0  0.47100  0.59300  0.22600  1.0000
  Cl  Cl7       1.0  0.14100  0.81300  0.37800  1.0000
  Cl  Cl8       1.0  0.11700  0.29300  0.39400  1.0000
  Cl  Cl9       1.0  0.65700  0.41800  0.40200  1.0000
  Cl  Cl10      1.0  0.67500  0.91500  0.41700  1.0000
  Cl  Cl11      1.0  0.32500  0.08460  0.58300  1.0000
  Cl  Cl12      1.0  0.34300  0.58200  0.59800  1.0000
  Cl  Cl13      1.0  0.88300  0.70700  0.60600  1.0000
  Cl  Cl14      1.0  0.85900  0.18700  0.62200  1.0000
  Cl  Cl15      1.0  0.52900  0.40700  0.77400  1.0000
  Cl  Cl16      1.0  0.53100  0.83700  0.77500  1.0000
  Cl  Cl17      1.0  0.12900  0.51900  0.80600  1.0000
  Cl  Cl18      1.0  0.11600  0.00367  0.82600  1.0000
  Cl  Cl19      1.0  0.75000  0.17000  0.94600  1.0000
  Cl  Cl20      1.0  0.75700  0.68700  0.97500  1.0000
  P   P1        1.0  0.61700  0.41200  0.26200  1.0000
  P   P2        1.0  0.38300  0.58800  0.73800  1.0000
  U   U1        1.0  0.00000  0.00000  0.00000  1.0000
  U   U2        1.0  0.00000  0.00000  0.50000  1.0000
