data_image0
_chemical_formula_structural       La2Ni2O6
_chemical_formula_sum              "La2 Ni2 O6"
_cell_length_a       5.38601
_cell_length_b       5.38601
_cell_length_c       5.38601
_cell_angle_alpha    119.118
_cell_angle_beta     60.8825
_cell_angle_gamma    119.118

_space_group_name_H-M_alt    "P 1"
_space_group_IT_number       1

loop_
  _space_group_symop_operation_xyz
  'x, y, z'

loop_
  _atom_site_type_symbol
  _atom_site_label
  _atom_site_symmetry_multiplicity
  _atom_site_fract_x
  _atom_site_fract_y
  _atom_site_fract_z
  _atom_site_occupancy
  La  La1       1.0  0.25000  0.75000  0.25000  1.0000
  La  La2       1.0  0.75000  0.25000  0.75000  1.0000
  Ni  Ni1       1.0  0.00000  0.00000  0.00000  1.0000
  Ni  Ni2       1.0  0.50000  0.50000  0.50000  1.0000
  O   O1        1.0  0.75000  0.70300  0.20300  1.0000
  O   O2        1.0  0.70300  0.20300  0.25000  1.0000
  O   O3        1.0  0.20300  0.25000  0.29700  1.0000
  O   O4        1.0  0.79700  0.75000  0.70300  1.0000
  O   O5        1.0  0.29700  0.79700  0.75000  1.0000
  O   O6        1.0  0.25000  0.29700  0.79700  1.0000
