data_image0
_chemical_formula_structural       Br16Cs4Tl4
_chemical_formula_sum              "Br16 Cs4 Tl4"
_cell_length_a       6.85101
_cell_length_b       7.67335
_cell_length_c       17.9102
_cell_angle_alpha    90
_cell_angle_beta     90
_cell_angle_gamma    90

_space_group_name_H-M_alt    "P 1"
_space_group_IT_number       1

loop_
  _space_group_symop_operation_xyz
  'x, y, z'

loop_
  _atom_site_type_symbol
  _atom_site_label
  _atom_site_symmetry_multiplicity
  _atom_site_fract_x
  _atom_site_fract_y
  _atom_site_fract_z
  _atom_site_occupancy
  Br  Br1       1.0  0.57300  0.69900  0.04500  1.0000
  Br  Br2       1.0  0.41700  0.17300  0.05170  1.0000
  Br  Br3       1.0  0.04730  0.53000  0.15900  1.0000
  Br  Br4       1.0  0.41400  0.90200  0.24100  1.0000
  Br  Br5       1.0  0.58600  0.40200  0.25900  1.0000
  Br  Br6       1.0  0.95300  0.02970  0.34100  1.0000
  Br  Br7       1.0  0.58300  0.67300  0.44800  1.0000
  Br  Br8       1.0  0.42700  0.19900  0.45500  1.0000
  Br  Br9       1.0  0.92700  0.30100  0.54500  1.0000
  Br  Br10      1.0  0.08280  0.82700  0.55200  1.0000
  Br  Br11      1.0  0.45300  0.47000  0.65900  1.0000
  Br  Br12      1.0  0.08610  0.09810  0.74100  1.0000
  Br  Br13      1.0  0.91400  0.59800  0.75900  1.0000
  Br  Br14      1.0  0.54700  0.97000  0.84100  1.0000
  Br  Br15      1.0  0.91700  0.32700  0.94800  1.0000
  Br  Br16      1.0  0.07350  0.80100  0.95500  1.0000
  Cs  Cs1       1.0  0.91500  0.03280  0.13100  1.0000
  Cs  Cs2       1.0  0.08530  0.53300  0.36900  1.0000
  Cs  Cs3       1.0  0.58500  0.96700  0.63100  1.0000
  Cs  Cs4       1.0  0.41500  0.46700  0.86900  1.0000
  Tl  Tl1       1.0  0.41800  0.46200  0.13100  1.0000
  Tl  Tl2       1.0  0.58200  0.96200  0.36900  1.0000
  Tl  Tl3       1.0  0.08200  0.53800  0.63100  1.0000
  Tl  Tl4       1.0  0.91800  0.03780  0.86900  1.0000
