data_image0
_chemical_formula_structural       Cs4O14P4Sr2
_chemical_formula_sum              "Cs4 O14 P4 Sr2"
_cell_length_a       6.06352
_cell_length_b       6.06352
_cell_length_c       13.3091
_cell_angle_alpha    102.273
_cell_angle_beta     90.7718
_cell_angle_gamma    120.254

_space_group_name_H-M_alt    "P 1"
_space_group_IT_number       1

loop_
  _space_group_symop_operation_xyz
  'x, y, z'

loop_
  _atom_site_type_symbol
  _atom_site_label
  _atom_site_symmetry_multiplicity
  _atom_site_fract_x
  _atom_site_fract_y
  _atom_site_fract_z
  _atom_site_occupancy
  Cs  Cs1       1.0  0.37200  0.75200  0.16800  1.0000
  Cs  Cs2       1.0  0.08420  0.20400  0.33200  1.0000
  Cs  Cs3       1.0  0.91600  0.79600  0.66800  1.0000
  Cs  Cs4       1.0  0.62800  0.24800  0.83200  1.0000
  O   O1        1.0  0.79000  0.60400  0.06860  1.0000
  O   O2        1.0  0.80500  0.21800  0.10900  1.0000
  O   O3        1.0  0.40400  0.25100  0.13400  1.0000
  O   O4        1.0  0.83800  0.58800  0.25000  1.0000
  O   O5        1.0  0.61700  0.27000  0.36600  1.0000
  O   O6        1.0  0.60800  0.69500  0.39100  1.0000
  O   O7        1.0  0.03520  0.72100  0.43100  1.0000
  O   O8        1.0  0.96500  0.27900  0.56900  1.0000
  O   O9        1.0  0.39200  0.30500  0.60900  1.0000
  O   O10       1.0  0.38300  0.73000  0.63400  1.0000
  O   O11       1.0  0.16200  0.41200  0.75000  1.0000
  O   O12       1.0  0.59600  0.74900  0.86600  1.0000
  O   O13       1.0  0.19500  0.78200  0.89100  1.0000
  O   O14       1.0  0.21000  0.39600  0.93100  1.0000
  P   P1        1.0  0.69600  0.40000  0.13200  1.0000
  P   P2        1.0  0.76700  0.56300  0.36800  1.0000
  P   P3        1.0  0.23300  0.43700  0.63200  1.0000
  P   P4        1.0  0.30400  0.60000  0.86800  1.0000
  Sr  Sr1       1.0  0.00000  0.00000  0.00000  1.0000
  Sr  Sr2       1.0  0.50000  0.00000  0.50000  1.0000
