data_image0
_chemical_formula_structural       Cr4O16Pb4
_chemical_formula_sum              "Cr4 O16 Pb4"
_cell_length_a       8.40886
_cell_length_b       5.56011
_cell_length_c       7.09429
_cell_angle_alpha    90
_cell_angle_beta     90
_cell_angle_gamma    90

_space_group_name_H-M_alt    "P 1"
_space_group_IT_number       1

loop_
  _space_group_symop_operation_xyz
  'x, y, z'

loop_
  _atom_site_type_symbol
  _atom_site_label
  _atom_site_symmetry_multiplicity
  _atom_site_fract_x
  _atom_site_fract_y
  _atom_site_fract_z
  _atom_site_occupancy
  Cr  Cr1       1.0  0.42100  0.75000  0.18700  1.0000
  Cr  Cr2       1.0  0.92100  0.75000  0.31300  1.0000
  Cr  Cr3       1.0  0.07860  0.25000  0.68700  1.0000
  Cr  Cr4       1.0  0.57900  0.25000  0.81300  1.0000
  O   O1        1.0  0.58500  0.75000  0.05190  1.0000
  O   O2        1.0  0.25900  0.75000  0.05460  1.0000
  O   O3        1.0  0.91600  0.50500  0.17600  1.0000
  O   O4        1.0  0.91600  0.99500  0.17600  1.0000
  O   O5        1.0  0.41600  0.50500  0.32400  1.0000
  O   O6        1.0  0.41600  0.99500  0.32400  1.0000
  O   O7        1.0  0.75900  0.75000  0.44500  1.0000
  O   O8        1.0  0.08460  0.75000  0.44800  1.0000
  O   O9        1.0  0.91500  0.25000  0.55200  1.0000
  O   O10       1.0  0.24100  0.25000  0.55500  1.0000
  O   O11       1.0  0.58400  0.00472  0.67600  1.0000
  O   O12       1.0  0.58400  0.49500  0.67600  1.0000
  O   O13       1.0  0.08450  0.00472  0.82400  1.0000
  O   O14       1.0  0.08450  0.49500  0.82400  1.0000
  O   O15       1.0  0.74100  0.25000  0.94500  1.0000
  O   O16       1.0  0.41500  0.25000  0.94800  1.0000
  Pb  Pb1       1.0  0.18500  0.25000  0.16500  1.0000
  Pb  Pb2       1.0  0.68500  0.25000  0.33500  1.0000
  Pb  Pb3       1.0  0.31500  0.75000  0.66500  1.0000
  Pb  Pb4       1.0  0.81500  0.75000  0.83500  1.0000
