data_image0
_chemical_formula_structural       Rh4Si12Tb8
_chemical_formula_sum              "Rh4 Si12 Tb8"
_cell_length_a       8.18756
_cell_length_b       8.18756
_cell_length_c       7.94005
_cell_angle_alpha    90
_cell_angle_beta     90
_cell_angle_gamma    119.991

_space_group_name_H-M_alt    "P 1"
_space_group_IT_number       1

loop_
  _space_group_symop_operation_xyz
  'x, y, z'

loop_
  _atom_site_type_symbol
  _atom_site_label
  _atom_site_symmetry_multiplicity
  _atom_site_fract_x
  _atom_site_fract_y
  _atom_site_fract_z
  _atom_site_occupancy
  Rh  Rh1       1.0  0.33300  0.66700  0.03090  1.0000
  Rh  Rh2       1.0  0.33300  0.66700  0.46900  1.0000
  Rh  Rh3       1.0  0.66700  0.33300  0.53100  1.0000
  Rh  Rh4       1.0  0.66700  0.33300  0.96900  1.0000
  Si  Si1       1.0  0.16700  0.33400  0.00011  1.0000
  Si  Si2       1.0  0.66600  0.83300  0.00011  1.0000
  Si  Si3       1.0  0.16700  0.83300  0.00012  1.0000
  Si  Si4       1.0  0.16700  0.83300  0.50000  1.0000
  Si  Si5       1.0  0.66600  0.83300  0.50000  1.0000
  Si  Si6       1.0  0.16700  0.33400  0.50000  1.0000
  Si  Si7       1.0  0.33400  0.16700  0.50000  1.0000
  Si  Si8       1.0  0.83300  0.66600  0.50000  1.0000
  Si  Si9       1.0  0.83300  0.16700  0.50000  1.0000
  Si  Si10      1.0  0.83300  0.16700  0.00000  1.0000
  Si  Si11      1.0  0.33400  0.16700  0.00000  1.0000
  Si  Si12      1.0  0.83300  0.66600  0.00000  1.0000
  Tb  Tb1       1.0  0.00000  0.00000  0.25000  1.0000
  Tb  Tb2       1.0  0.50800  0.01560  0.25000  1.0000
  Tb  Tb3       1.0  0.98400  0.49200  0.25000  1.0000
  Tb  Tb4       1.0  0.50800  0.49200  0.25000  1.0000
  Tb  Tb5       1.0  0.00000  0.00000  0.75000  1.0000
  Tb  Tb6       1.0  0.01560  0.50800  0.75000  1.0000
  Tb  Tb7       1.0  0.49200  0.50800  0.75000  1.0000
  Tb  Tb8       1.0  0.49200  0.98400  0.75000  1.0000
