data_image0
_chemical_formula_structural       Bi4Nb4O16
_chemical_formula_sum              "Bi4 Nb4 O16"
_cell_length_a       7.62111
_cell_length_b       5.50923
_cell_length_c       7.90382
_cell_angle_alpha    89.9348
_cell_angle_beta     78.4553
_cell_angle_gamma    90.7719

_space_group_name_H-M_alt    "P 1"
_space_group_IT_number       1

loop_
  _space_group_symop_operation_xyz
  'x, y, z'

loop_
  _atom_site_type_symbol
  _atom_site_label
  _atom_site_symmetry_multiplicity
  _atom_site_fract_x
  _atom_site_fract_y
  _atom_site_fract_z
  _atom_site_occupancy
  Bi  Bi1       1.0  0.16700  0.71700  0.12200  1.0000
  Bi  Bi2       1.0  0.87000  0.23600  0.38200  1.0000
  Bi  Bi3       1.0  0.13000  0.76400  0.61800  1.0000
  Bi  Bi4       1.0  0.83300  0.28300  0.87800  1.0000
  Nb  Nb1       1.0  0.67500  0.74800  0.17700  1.0000
  Nb  Nb2       1.0  0.34700  0.22400  0.32300  1.0000
  Nb  Nb3       1.0  0.65300  0.77600  0.67700  1.0000
  Nb  Nb4       1.0  0.32500  0.25200  0.82300  1.0000
  O   O1        1.0  0.33100  0.32400  0.05510  1.0000
  O   O2        1.0  0.82800  0.02860  0.13200  1.0000
  O   O3        1.0  0.89600  0.54200  0.17600  1.0000
  O   O4        1.0  0.44000  0.91000  0.21500  1.0000
  O   O5        1.0  0.55500  0.42600  0.29200  1.0000
  O   O6        1.0  0.10500  0.99900  0.32700  1.0000
  O   O7        1.0  0.15700  0.47100  0.36600  1.0000
  O   O8        1.0  0.67200  0.85700  0.44200  1.0000
  O   O9        1.0  0.32800  0.14300  0.55800  1.0000
  O   O10       1.0  0.84300  0.52900  0.63400  1.0000
  O   O11       1.0  0.89500  0.00105  0.67300  1.0000
  O   O12       1.0  0.44500  0.57400  0.70800  1.0000
  O   O13       1.0  0.56000  0.08980  0.78500  1.0000
  O   O14       1.0  0.10400  0.45800  0.82400  1.0000
  O   O15       1.0  0.17200  0.97100  0.86800  1.0000
  O   O16       1.0  0.66900  0.67600  0.94500  1.0000
