data_image0
_chemical_formula_structural       Ge4Na4O14Zr2
_chemical_formula_sum              "Ge4 Na4 O14 Zr2"
_cell_length_a       5.63364
_cell_length_b       6.63209
_cell_length_c       9.10651
_cell_angle_alpha    70.6636
_cell_angle_beta     88.7331
_cell_angle_gamma    87.0097

_space_group_name_H-M_alt    "P 1"
_space_group_IT_number       1

loop_
  _space_group_symop_operation_xyz
  'x, y, z'

loop_
  _atom_site_type_symbol
  _atom_site_label
  _atom_site_symmetry_multiplicity
  _atom_site_fract_x
  _atom_site_fract_y
  _atom_site_fract_z
  _atom_site_occupancy
  Ge  Ge1       1.0  0.22200  0.64700  0.14500  1.0000
  Ge  Ge2       1.0  0.30700  0.94900  0.33600  1.0000
  Ge  Ge3       1.0  0.69300  0.05090  0.66400  1.0000
  Ge  Ge4       1.0  0.77800  0.35300  0.85500  1.0000
  Na  Na1       1.0  0.72600  0.90500  0.11700  1.0000
  Na  Na2       1.0  0.23000  0.34500  0.49900  1.0000
  Na  Na3       1.0  0.77000  0.65500  0.50100  1.0000
  Na  Na4       1.0  0.27400  0.09540  0.88300  1.0000
  O   O1        1.0  0.79400  0.29900  0.05390  1.0000
  O   O2        1.0  0.28800  0.91300  0.14700  1.0000
  O   O3        1.0  0.94500  0.59400  0.23800  1.0000
  O   O4        1.0  0.45500  0.48100  0.24400  1.0000
  O   O5        1.0  0.10500  0.15400  0.33400  1.0000
  O   O6        1.0  0.61100  0.00026  0.34100  1.0000
  O   O7        1.0  0.25300  0.70700  0.48300  1.0000
  O   O8        1.0  0.74700  0.29300  0.51700  1.0000
  O   O9        1.0  0.38900  1.00000  0.65900  1.0000
  O   O10       1.0  0.89500  0.84600  0.66600  1.0000
  O   O11       1.0  0.54500  0.51900  0.75600  1.0000
  O   O12       1.0  0.05520  0.40600  0.76200  1.0000
  O   O13       1.0  0.71200  0.08750  0.85300  1.0000
  O   O14       1.0  0.20600  0.70100  0.94600  1.0000
  Zr  Zr1       1.0  0.77100  0.30100  0.27800  1.0000
  Zr  Zr2       1.0  0.22900  0.69900  0.72200  1.0000
