data_image0
_chemical_formula_structural       Au4Na12O8
_chemical_formula_sum              "Au4 Na12 O8"
_cell_length_a       9.67938
_cell_length_b       9.67938
_cell_length_c       4.55566
_cell_angle_alpha    90
_cell_angle_beta     90
_cell_angle_gamma    90

_space_group_name_H-M_alt    "P 1"
_space_group_IT_number       1

loop_
  _space_group_symop_operation_xyz
  'x, y, z'

loop_
  _atom_site_type_symbol
  _atom_site_label
  _atom_site_symmetry_multiplicity
  _atom_site_fract_x
  _atom_site_fract_y
  _atom_site_fract_z
  _atom_site_occupancy
  Au  Au1       1.0  0.16600  0.16600  0.00000  1.0000
  Au  Au2       1.0  0.83400  0.83400  0.00000  1.0000
  Au  Au3       1.0  0.66600  0.33400  0.50000  1.0000
  Au  Au4       1.0  0.33400  0.66600  0.50000  1.0000
  Na  Na1       1.0  0.51200  0.15200  0.00000  1.0000
  Na  Na2       1.0  0.83900  0.16100  0.00000  1.0000
  Na  Na3       1.0  0.84800  0.48800  0.00000  1.0000
  Na  Na4       1.0  0.15200  0.51200  0.00000  1.0000
  Na  Na5       1.0  0.16100  0.83900  0.00000  1.0000
  Na  Na6       1.0  0.48800  0.84800  0.00000  1.0000
  Na  Na7       1.0  0.34800  0.01190  0.50000  1.0000
  Na  Na8       1.0  0.33900  0.33900  0.50000  1.0000
  Na  Na9       1.0  0.01190  0.34800  0.50000  1.0000
  Na  Na10      1.0  0.98800  0.65200  0.50000  1.0000
  Na  Na11      1.0  0.66100  0.66100  0.50000  1.0000
  Na  Na12      1.0  0.65200  0.98800  0.50000  1.0000
  O   O1        1.0  0.31000  0.01440  0.00000  1.0000
  O   O2        1.0  0.01440  0.31000  0.00000  1.0000
  O   O3        1.0  0.98600  0.69000  0.00000  1.0000
  O   O4        1.0  0.69000  0.98600  0.00000  1.0000
  O   O5        1.0  0.51400  0.19000  0.50000  1.0000
  O   O6        1.0  0.81000  0.48600  0.50000  1.0000
  O   O7        1.0  0.19000  0.51400  0.50000  1.0000
  O   O8        1.0  0.48600  0.81000  0.50000  1.0000
