data_image0
_chemical_formula_structural       Cu2O16W4Yb2
_chemical_formula_sum              "Cu2 O16 W4 Yb2"
_cell_length_a       9.80226
_cell_length_b       5.80628
_cell_length_c       4.97998
_cell_angle_alpha    90
_cell_angle_beta     93.1834
_cell_angle_gamma    90

_space_group_name_H-M_alt    "P 1"
_space_group_IT_number       1

loop_
  _space_group_symop_operation_xyz
  'x, y, z'

loop_
  _atom_site_type_symbol
  _atom_site_label
  _atom_site_symmetry_multiplicity
  _atom_site_fract_x
  _atom_site_fract_y
  _atom_site_fract_z
  _atom_site_occupancy
  Cu  Cu1       1.0  0.75000  0.70200  0.25000  1.0000
  Cu  Cu2       1.0  0.25000  0.29800  0.75000  1.0000
  O   O1        1.0  0.39900  0.88900  0.04840  1.0000
  O   O2        1.0  0.89200  0.91100  0.05350  1.0000
  O   O3        1.0  0.36000  0.34800  0.07760  1.0000
  O   O4        1.0  0.88900  0.39600  0.11700  1.0000
  O   O5        1.0  0.61100  0.39600  0.38300  1.0000
  O   O6        1.0  0.14000  0.34800  0.42200  1.0000
  O   O7        1.0  0.60800  0.91100  0.44700  1.0000
  O   O8        1.0  0.10100  0.88900  0.45200  1.0000
  O   O9        1.0  0.89900  0.11100  0.54800  1.0000
  O   O10       1.0  0.39200  0.08910  0.55300  1.0000
  O   O11       1.0  0.86000  0.65200  0.57800  1.0000
  O   O12       1.0  0.38900  0.60400  0.61700  1.0000
  O   O13       1.0  0.11100  0.60400  0.88300  1.0000
  O   O14       1.0  0.64000  0.65200  0.92200  1.0000
  O   O15       1.0  0.10800  0.08910  0.94700  1.0000
  O   O16       1.0  0.60100  0.11100  0.95200  1.0000
  W   W1        1.0  0.49700  0.17900  0.24800  1.0000
  W   W2        1.0  0.00343  0.17900  0.25200  1.0000
  W   W3        1.0  0.99700  0.82100  0.74800  1.0000
  W   W4        1.0  0.50300  0.82100  0.75200  1.0000
  Yb  Yb1       1.0  0.25000  0.67300  0.25000  1.0000
  Yb  Yb2       1.0  0.75000  0.32700  0.75000  1.0000
