data_image0
_chemical_formula_structural       Al8B4Re12
_chemical_formula_sum              "Al8 B4 Re12"
_cell_length_a       7.58676
_cell_length_b       7.58676
_cell_length_c       7.58676
_cell_angle_alpha    120
_cell_angle_beta     90
_cell_angle_gamma    120

_space_group_name_H-M_alt    "P 1"
_space_group_IT_number       1

loop_
  _space_group_symop_operation_xyz
  'x, y, z'

loop_
  _atom_site_type_symbol
  _atom_site_label
  _atom_site_symmetry_multiplicity
  _atom_site_fract_x
  _atom_site_fract_y
  _atom_site_fract_z
  _atom_site_occupancy
  Al  Al1       1.0  0.58600  0.17100  0.41400  1.0000
  Al  Al2       1.0  0.24300  0.82900  0.41400  1.0000
  Al  Al3       1.0  0.58600  0.82900  0.41400  1.0000
  Al  Al4       1.0  0.16400  0.32900  0.49300  1.0000
  Al  Al5       1.0  0.58600  0.17100  0.75700  1.0000
  Al  Al6       1.0  0.16400  0.32900  0.83600  1.0000
  Al  Al7       1.0  0.16400  0.67100  0.83600  1.0000
  Al  Al8       1.0  0.50700  0.67100  0.83600  1.0000
  B   B1        1.0  0.37500  0.75000  0.12500  1.0000
  B   B2        1.0  0.37500  0.25000  0.62500  1.0000
  B   B3        1.0  0.87500  0.25000  0.62500  1.0000
  B   B4        1.0  0.37500  0.75000  0.62500  1.0000
  Re  Re1       1.0  0.94200  0.50000  0.05830  1.0000
  Re  Re2       1.0  0.55800  0.11700  0.05830  1.0000
  Re  Re3       1.0  0.55800  0.50000  0.05830  1.0000
  Re  Re4       1.0  0.80800  0.00000  0.19200  1.0000
  Re  Re5       1.0  0.19200  0.00000  0.19200  1.0000
  Re  Re6       1.0  0.19200  0.38300  0.19200  1.0000
  Re  Re7       1.0  0.55800  0.50000  0.44200  1.0000
  Re  Re8       1.0  0.94200  0.50000  0.44200  1.0000
  Re  Re9       1.0  0.94200  0.88300  0.44200  1.0000
  Re  Re10      1.0  0.19200  0.00000  0.80800  1.0000
  Re  Re11      1.0  0.80800  0.00000  0.80800  1.0000
  Re  Re12      1.0  0.80800  0.61700  0.80800  1.0000
