data_image0
_chemical_formula_structural       B4N8Na12
_chemical_formula_sum              "B4 N8 Na12"
_cell_length_a       5.68551
_cell_length_b       7.88565
_cell_length_c       7.80588
_cell_angle_alpha    90
_cell_angle_beta     111.245
_cell_angle_gamma    90

_space_group_name_H-M_alt    "P 1"
_space_group_IT_number       1

loop_
  _space_group_symop_operation_xyz
  'x, y, z'

loop_
  _atom_site_type_symbol
  _atom_site_label
  _atom_site_symmetry_multiplicity
  _atom_site_fract_x
  _atom_site_fract_y
  _atom_site_fract_z
  _atom_site_occupancy
  B   B1        1.0  0.21400  0.32200  0.17700  1.0000
  B   B2        1.0  0.78600  0.82200  0.32300  1.0000
  B   B3        1.0  0.21400  0.17800  0.67700  1.0000
  B   B4        1.0  0.78600  0.67800  0.82300  1.0000
  N   N1        1.0  0.00899  0.22000  0.12900  1.0000
  N   N2        1.0  0.41800  0.42500  0.22400  1.0000
  N   N3        1.0  0.58200  0.92500  0.27600  1.0000
  N   N4        1.0  0.99100  0.72000  0.37100  1.0000
  N   N5        1.0  0.00899  0.28000  0.62900  1.0000
  N   N6        1.0  0.41800  0.07470  0.72400  1.0000
  N   N7        1.0  0.58200  0.57500  0.77600  1.0000
  N   N8        1.0  0.99100  0.78000  0.87100  1.0000
  Na  Na1       1.0  0.74900  0.96900  0.00802  1.0000
  Na  Na2       1.0  0.75900  0.52200  0.12200  1.0000
  Na  Na3       1.0  0.25800  0.70800  0.18700  1.0000
  Na  Na4       1.0  0.74200  0.20800  0.31300  1.0000
  Na  Na5       1.0  0.24100  0.02170  0.37800  1.0000
  Na  Na6       1.0  0.25100  0.46900  0.49200  1.0000
  Na  Na7       1.0  0.74900  0.53100  0.50800  1.0000
  Na  Na8       1.0  0.75900  0.97800  0.62200  1.0000
  Na  Na9       1.0  0.25800  0.79200  0.68700  1.0000
  Na  Na10      1.0  0.74200  0.29200  0.81300  1.0000
  Na  Na11      1.0  0.24100  0.47800  0.87800  1.0000
  Na  Na12      1.0  0.25100  0.03150  0.99200  1.0000
