data_image0
_chemical_formula_structural       K2Nb6O16
_chemical_formula_sum              "K2 Nb6 O16"
_cell_length_a       3.81836
_cell_length_b       8.91746
_cell_length_c       10.7147
_cell_angle_alpha    90
_cell_angle_beta     79.736
_cell_angle_gamma    90

_space_group_name_H-M_alt    "P 1"
_space_group_IT_number       1

loop_
  _space_group_symop_operation_xyz
  'x, y, z'

loop_
  _atom_site_type_symbol
  _atom_site_label
  _atom_site_symmetry_multiplicity
  _atom_site_fract_x
  _atom_site_fract_y
  _atom_site_fract_z
  _atom_site_occupancy
  K   K1        1.0  0.98400  0.25000  0.03140  1.0000
  K   K2        1.0  0.01570  0.75000  0.96900  1.0000
  Nb  Nb1       1.0  0.37100  0.55700  0.25700  1.0000
  Nb  Nb2       1.0  0.37100  0.94300  0.25700  1.0000
  Nb  Nb3       1.0  0.75900  0.75000  0.48200  1.0000
  Nb  Nb4       1.0  0.24100  0.25000  0.51800  1.0000
  Nb  Nb5       1.0  0.62900  0.05670  0.74300  1.0000
  Nb  Nb6       1.0  0.62900  0.44300  0.74300  1.0000
  O   O1        1.0  0.43500  0.07190  0.12900  1.0000
  O   O2        1.0  0.43500  0.42800  0.12900  1.0000
  O   O3        1.0  0.41800  0.75000  0.16300  1.0000
  O   O4        1.0  0.84600  0.59100  0.30900  1.0000
  O   O5        1.0  0.84600  0.90900  0.30900  1.0000
  O   O6        1.0  0.29700  0.09200  0.40700  1.0000
  O   O7        1.0  0.29700  0.40800  0.40700  1.0000
  O   O8        1.0  0.28600  0.75000  0.42700  1.0000
  O   O9        1.0  0.71400  0.25000  0.57300  1.0000
  O   O10       1.0  0.70300  0.59200  0.59300  1.0000
  O   O11       1.0  0.70300  0.90800  0.59300  1.0000
  O   O12       1.0  0.15400  0.09130  0.69100  1.0000
  O   O13       1.0  0.15400  0.40900  0.69100  1.0000
  O   O14       1.0  0.58200  0.25000  0.83700  1.0000
  O   O15       1.0  0.56500  0.57200  0.87100  1.0000
  O   O16       1.0  0.56500  0.92800  0.87100  1.0000
