data_image0
_chemical_formula_structural       Ba8Cd4Se12
_chemical_formula_sum              "Ba8 Cd4 Se12"
_cell_length_a       9.35551
_cell_length_b       4.5434
_cell_length_c       18.1056
_cell_angle_alpha    90
_cell_angle_beta     90
_cell_angle_gamma    90

_space_group_name_H-M_alt    "P 1"
_space_group_IT_number       1

loop_
  _space_group_symop_operation_xyz
  'x, y, z'

loop_
  _atom_site_type_symbol
  _atom_site_label
  _atom_site_symmetry_multiplicity
  _atom_site_fract_x
  _atom_site_fract_y
  _atom_site_fract_z
  _atom_site_occupancy
  Ba  Ba1       1.0  0.76000  0.25000  0.04070  1.0000
  Ba  Ba2       1.0  0.07750  0.75000  0.21500  1.0000
  Ba  Ba3       1.0  0.57700  0.75000  0.28500  1.0000
  Ba  Ba4       1.0  0.26000  0.25000  0.45900  1.0000
  Ba  Ba5       1.0  0.74000  0.75000  0.54100  1.0000
  Ba  Ba6       1.0  0.42300  0.25000  0.71500  1.0000
  Ba  Ba7       1.0  0.92300  0.25000  0.78500  1.0000
  Ba  Ba8       1.0  0.24000  0.75000  0.95900  1.0000
  Cd  Cd1       1.0  0.37600  0.25000  0.13300  1.0000
  Cd  Cd2       1.0  0.87600  0.25000  0.36700  1.0000
  Cd  Cd3       1.0  0.12400  0.75000  0.63300  1.0000
  Cd  Cd4       1.0  0.62400  0.75000  0.86700  1.0000
  Se  Se1       1.0  0.11700  0.25000  0.07190  1.0000
  Se  Se2       1.0  0.51500  0.75000  0.09590  1.0000
  Se  Se3       1.0  0.81300  0.25000  0.22300  1.0000
  Se  Se4       1.0  0.31300  0.25000  0.27700  1.0000
  Se  Se5       1.0  0.01490  0.75000  0.40400  1.0000
  Se  Se6       1.0  0.61700  0.25000  0.42800  1.0000
  Se  Se7       1.0  0.38300  0.75000  0.57200  1.0000
  Se  Se8       1.0  0.98500  0.25000  0.59600  1.0000
  Se  Se9       1.0  0.68700  0.75000  0.72300  1.0000
  Se  Se10      1.0  0.18700  0.75000  0.77700  1.0000
  Se  Se11      1.0  0.48500  0.25000  0.90400  1.0000
  Se  Se12      1.0  0.88300  0.75000  0.92800  1.0000
