data_image0
_chemical_formula_structural       Ba4P12Pt8
_chemical_formula_sum              "Ba4 P12 Pt8"
_cell_length_a       8.40744
_cell_length_b       5.83489
_cell_length_c       11.7717
_cell_angle_alpha    90
_cell_angle_beta     106.747
_cell_angle_gamma    90

_space_group_name_H-M_alt    "P 1"
_space_group_IT_number       1

loop_
  _space_group_symop_operation_xyz
  'x, y, z'

loop_
  _atom_site_type_symbol
  _atom_site_label
  _atom_site_symmetry_multiplicity
  _atom_site_fract_x
  _atom_site_fract_y
  _atom_site_fract_z
  _atom_site_occupancy
  Ba  Ba1       1.0  0.76000  0.58600  0.14800  1.0000
  Ba  Ba2       1.0  0.24000  0.08560  0.35200  1.0000
  Ba  Ba3       1.0  0.76000  0.91400  0.64800  1.0000
  Ba  Ba4       1.0  0.24000  0.41400  0.85200  1.0000
  P   P1        1.0  0.06870  0.38000  0.07040  1.0000
  P   P2        1.0  0.27600  0.88400  0.08270  1.0000
  P   P3        1.0  0.45500  0.15300  0.17500  1.0000
  P   P4        1.0  0.54500  0.65300  0.32500  1.0000
  P   P5        1.0  0.72400  0.38400  0.41700  1.0000
  P   P6        1.0  0.93100  0.88000  0.43000  1.0000
  P   P7        1.0  0.06870  0.12000  0.57000  1.0000
  P   P8        1.0  0.27600  0.61600  0.58300  1.0000
  P   P9        1.0  0.45500  0.34700  0.67500  1.0000
  P   P10       1.0  0.54500  0.84700  0.82500  1.0000
  P   P11       1.0  0.72400  0.11600  0.91700  1.0000
  P   P12       1.0  0.93100  0.62000  0.93000  1.0000
  Pt  Pt1       1.0  0.00000  0.00000  0.00000  1.0000
  Pt  Pt2       1.0  0.50000  0.00000  0.00000  1.0000
  Pt  Pt3       1.0  0.33800  0.51600  0.16100  1.0000
  Pt  Pt4       1.0  0.66200  0.01630  0.33900  1.0000
  Pt  Pt5       1.0  0.50000  0.50000  0.50000  1.0000
  Pt  Pt6       1.0  0.00000  0.50000  0.50000  1.0000
  Pt  Pt7       1.0  0.33800  0.98400  0.66100  1.0000
  Pt  Pt8       1.0  0.66200  0.48400  0.83900  1.0000
