data_image0
_chemical_formula_structural       K12Ni4O8
_chemical_formula_sum              "K12 Ni4 O8"
_cell_length_a       6.04098
_cell_length_b       6.04098
_cell_length_c       13.7068
_cell_angle_alpha    90
_cell_angle_beta     90
_cell_angle_gamma    90

_space_group_name_H-M_alt    "P 1"
_space_group_IT_number       1

loop_
  _space_group_symop_operation_xyz
  'x, y, z'

loop_
  _atom_site_type_symbol
  _atom_site_label
  _atom_site_symmetry_multiplicity
  _atom_site_fract_x
  _atom_site_fract_y
  _atom_site_fract_z
  _atom_site_occupancy
  K   K1        1.0  0.44700  0.44700  0.00000  1.0000
  K   K2        1.0  0.52200  0.97800  0.12400  1.0000
  K   K3        1.0  0.97800  0.47800  0.12600  1.0000
  K   K4        1.0  0.05290  0.94700  0.25000  1.0000
  K   K5        1.0  0.52200  0.02210  0.37400  1.0000
  K   K6        1.0  0.02240  0.47800  0.37600  1.0000
  K   K7        1.0  0.55300  0.55300  0.50000  1.0000
  K   K8        1.0  0.47800  0.02240  0.62400  1.0000
  K   K9        1.0  0.02210  0.52200  0.62600  1.0000
  K   K10       1.0  0.94700  0.05290  0.75000  1.0000
  K   K11       1.0  0.47800  0.97800  0.87400  1.0000
  K   K12       1.0  0.97800  0.52200  0.87600  1.0000
  Ni  Ni1       1.0  0.99700  0.99700  0.00000  1.0000
  Ni  Ni2       1.0  0.50300  0.49700  0.25000  1.0000
  Ni  Ni3       1.0  0.00326  0.00326  0.50000  1.0000
  Ni  Ni4       1.0  0.49700  0.50300  0.75000  1.0000
  O   O1        1.0  0.20100  0.78700  0.01110  1.0000
  O   O2        1.0  0.29900  0.28700  0.23900  1.0000
  O   O3        1.0  0.71300  0.70100  0.26100  1.0000
  O   O4        1.0  0.21300  0.79900  0.48900  1.0000
  O   O5        1.0  0.79900  0.21300  0.51100  1.0000
  O   O6        1.0  0.70100  0.71300  0.73900  1.0000
  O   O7        1.0  0.28700  0.29900  0.76100  1.0000
  O   O8        1.0  0.78700  0.20100  0.98900  1.0000
