data_image0
_chemical_formula_structural       B16Mn4Sm4
_chemical_formula_sum              "B16 Mn4 Sm4"
_cell_length_a       5.97027
_cell_length_b       11.5491
_cell_length_c       3.46634
_cell_angle_alpha    90
_cell_angle_beta     90
_cell_angle_gamma    90

_space_group_name_H-M_alt    "P 1"
_space_group_IT_number       1

loop_
  _space_group_symop_operation_xyz
  'x, y, z'

loop_
  _atom_site_type_symbol
  _atom_site_label
  _atom_site_symmetry_multiplicity
  _atom_site_fract_x
  _atom_site_fract_y
  _atom_site_fract_z
  _atom_site_occupancy
  B   B1        1.0  0.85900  0.03260  0.50000  1.0000
  B   B2        1.0  0.38900  0.04550  0.50000  1.0000
  B   B3        1.0  0.77700  0.18200  0.50000  1.0000
  B   B4        1.0  0.47500  0.18900  0.50000  1.0000
  B   B5        1.0  0.97500  0.31100  0.50000  1.0000
  B   B6        1.0  0.27700  0.31800  0.50000  1.0000
  B   B7        1.0  0.88900  0.45400  0.50000  1.0000
  B   B8        1.0  0.35900  0.46700  0.50000  1.0000
  B   B9        1.0  0.64100  0.53300  0.50000  1.0000
  B   B10       1.0  0.11100  0.54600  0.50000  1.0000
  B   B11       1.0  0.72300  0.68200  0.50000  1.0000
  B   B12       1.0  0.02520  0.68900  0.50000  1.0000
  B   B13       1.0  0.52500  0.81100  0.50000  1.0000
  B   B14       1.0  0.22300  0.81800  0.50000  1.0000
  B   B15       1.0  0.61100  0.95400  0.50000  1.0000
  B   B16       1.0  0.14100  0.96700  0.50000  1.0000
  Mn  Mn1       1.0  0.62600  0.08290  0.00000  1.0000
  Mn  Mn2       1.0  0.12600  0.41700  0.00000  1.0000
  Mn  Mn3       1.0  0.87400  0.58300  0.00000  1.0000
  Mn  Mn4       1.0  0.37400  0.91700  0.00000  1.0000
  Sm  Sm1       1.0  0.12500  0.15100  0.00000  1.0000
  Sm  Sm2       1.0  0.62500  0.34900  0.00000  1.0000
  Sm  Sm3       1.0  0.37500  0.65100  0.00000  1.0000
  Sm  Sm4       1.0  0.87500  0.84900  0.00000  1.0000
