data_image0
_chemical_formula_structural       Ca12Ga2N10
_chemical_formula_sum              "Ca12 Ga2 N10"
_cell_length_a       6.27376
_cell_length_b       6.27376
_cell_length_c       12.1318
_cell_angle_alpha    90
_cell_angle_beta     90
_cell_angle_gamma    119.998

_space_group_name_H-M_alt    "P 1"
_space_group_IT_number       1

loop_
  _space_group_symop_operation_xyz
  'x, y, z'

loop_
  _atom_site_type_symbol
  _atom_site_label
  _atom_site_symmetry_multiplicity
  _atom_site_fract_x
  _atom_site_fract_y
  _atom_site_fract_z
  _atom_site_occupancy
  Ca  Ca1       1.0  0.40800  0.40800  0.12200  1.0000
  Ca  Ca2       1.0  0.59200  0.00000  0.12300  1.0000
  Ca  Ca3       1.0  0.00000  0.59200  0.12300  1.0000
  Ca  Ca4       1.0  0.40800  0.40800  0.37700  1.0000
  Ca  Ca5       1.0  0.59200  0.00000  0.37700  1.0000
  Ca  Ca6       1.0  0.00000  0.59200  0.37700  1.0000
  Ca  Ca7       1.0  0.59200  0.59200  0.62200  1.0000
  Ca  Ca8       1.0  0.40800  0.00000  0.62300  1.0000
  Ca  Ca9       1.0  0.00000  0.40800  0.62300  1.0000
  Ca  Ca10      1.0  0.59200  0.59200  0.87700  1.0000
  Ca  Ca11      1.0  0.40800  0.00000  0.87700  1.0000
  Ca  Ca12      1.0  0.00000  0.40800  0.87700  1.0000
  Ga  Ga1       1.0  0.00000  0.00000  0.25000  1.0000
  Ga  Ga2       1.0  0.00000  0.00000  0.75000  1.0000
  N   N1        1.0  0.66700  0.33300  0.00000  1.0000
  N   N2        1.0  0.33300  0.66700  0.00000  1.0000
  N   N3        1.0  0.70100  0.70100  0.25000  1.0000
  N   N4        1.0  0.29900  0.00000  0.25000  1.0000
  N   N5        1.0  0.00000  0.29900  0.25000  1.0000
  N   N6        1.0  0.66700  0.33300  0.50000  1.0000
  N   N7        1.0  0.33300  0.66700  0.50000  1.0000
  N   N8        1.0  0.29900  0.29900  0.75000  1.0000
  N   N9        1.0  0.70100  0.00000  0.75000  1.0000
  N   N10       1.0  0.00000  0.70100  0.75000  1.0000
