data_image0
_chemical_formula_structural       Cs4O16S4
_chemical_formula_sum              "Cs4 O16 S4"
_cell_length_a       7.94657
_cell_length_b       8.15668
_cell_length_c       6.42615
_cell_angle_alpha    90
_cell_angle_beta     94.775
_cell_angle_gamma    90

_space_group_name_H-M_alt    "P 1"
_space_group_IT_number       1

loop_
  _space_group_symop_operation_xyz
  'x, y, z'

loop_
  _atom_site_type_symbol
  _atom_site_label
  _atom_site_symmetry_multiplicity
  _atom_site_fract_x
  _atom_site_fract_y
  _atom_site_fract_z
  _atom_site_occupancy
  Cs  Cs1       1.0  0.15000  0.12000  0.23100  1.0000
  Cs  Cs2       1.0  0.35000  0.62000  0.26900  1.0000
  Cs  Cs3       1.0  0.65000  0.38000  0.73100  1.0000
  Cs  Cs4       1.0  0.85000  0.88000  0.76900  1.0000
  O   O1        1.0  0.78300  0.15300  0.08010  1.0000
  O   O2        1.0  0.82200  0.58200  0.08080  1.0000
  O   O3        1.0  0.52600  0.98100  0.11300  1.0000
  O   O4        1.0  0.52700  0.28400  0.18700  1.0000
  O   O5        1.0  0.97300  0.78400  0.31300  1.0000
  O   O6        1.0  0.97400  0.48100  0.38700  1.0000
  O   O7        1.0  0.67800  0.08200  0.41900  1.0000
  O   O8        1.0  0.71700  0.65300  0.42000  1.0000
  O   O9        1.0  0.28300  0.34700  0.58000  1.0000
  O   O10       1.0  0.32200  0.91800  0.58100  1.0000
  O   O11       1.0  0.02580  0.51900  0.61300  1.0000
  O   O12       1.0  0.02740  0.21600  0.68700  1.0000
  O   O13       1.0  0.47300  0.71600  0.81300  1.0000
  O   O14       1.0  0.47400  0.01880  0.88700  1.0000
  O   O15       1.0  0.17800  0.41800  0.91900  1.0000
  O   O16       1.0  0.21700  0.84700  0.92000  1.0000
  S   S1        1.0  0.64100  0.14300  0.20900  1.0000
  S   S2        1.0  0.85900  0.64300  0.29100  1.0000
  S   S3        1.0  0.14100  0.35700  0.70900  1.0000
  S   S4        1.0  0.35900  0.85700  0.79100  1.0000
