data_image0
_chemical_formula_structural       La2Mo4O16Rb2
_chemical_formula_sum              "La2 Mo4 O16 Rb2"
_cell_length_a       6.31373
_cell_length_b       6.31373
_cell_length_c       9.65051
_cell_angle_alpha    90
_cell_angle_beta     90
_cell_angle_gamma    90

_space_group_name_H-M_alt    "P 1"
_space_group_IT_number       1

loop_
  _space_group_symop_operation_xyz
  'x, y, z'

loop_
  _atom_site_type_symbol
  _atom_site_label
  _atom_site_symmetry_multiplicity
  _atom_site_fract_x
  _atom_site_fract_y
  _atom_site_fract_z
  _atom_site_occupancy
  La  La1       1.0  0.00000  0.00000  0.00000  1.0000
  La  La2       1.0  0.50000  0.50000  0.50000  1.0000
  Mo  Mo1       1.0  0.50000  0.00000  0.25000  1.0000
  Mo  Mo2       1.0  0.00000  0.50000  0.25000  1.0000
  Mo  Mo3       1.0  0.50000  0.00000  0.75000  1.0000
  Mo  Mo4       1.0  0.00000  0.50000  0.75000  1.0000
  O   O1        1.0  0.69100  0.12100  0.13900  1.0000
  O   O2        1.0  0.12100  0.30900  0.13900  1.0000
  O   O3        1.0  0.87900  0.69100  0.13900  1.0000
  O   O4        1.0  0.30900  0.87900  0.13900  1.0000
  O   O5        1.0  0.37900  0.19100  0.36100  1.0000
  O   O6        1.0  0.80900  0.37900  0.36100  1.0000
  O   O7        1.0  0.19100  0.62100  0.36100  1.0000
  O   O8        1.0  0.62100  0.80900  0.36100  1.0000
  O   O9        1.0  0.62100  0.19100  0.63900  1.0000
  O   O10       1.0  0.19100  0.37900  0.63900  1.0000
  O   O11       1.0  0.80900  0.62100  0.63900  1.0000
  O   O12       1.0  0.37900  0.80900  0.63900  1.0000
  O   O13       1.0  0.30900  0.12100  0.86100  1.0000
  O   O14       1.0  0.87900  0.30900  0.86100  1.0000
  O   O15       1.0  0.12100  0.69100  0.86100  1.0000
  O   O16       1.0  0.69100  0.87900  0.86100  1.0000
  Rb  Rb1       1.0  0.50000  0.50000  0.00000  1.0000
  Rb  Rb2       1.0  0.00000  0.00000  0.50000  1.0000
