data_image0
_chemical_formula_structural       Cl16Fe4Rb4
_chemical_formula_sum              "Cl16 Fe4 Rb4"
_cell_length_a       11.2643
_cell_length_b       7.11096
_cell_length_c       9.28791
_cell_angle_alpha    90
_cell_angle_beta     90
_cell_angle_gamma    90

_space_group_name_H-M_alt    "P 1"
_space_group_IT_number       1

loop_
  _space_group_symop_operation_xyz
  'x, y, z'

loop_
  _atom_site_type_symbol
  _atom_site_label
  _atom_site_symmetry_multiplicity
  _atom_site_fract_x
  _atom_site_fract_y
  _atom_site_fract_z
  _atom_site_occupancy
  Cl  Cl1       1.0  0.78000  0.75000  0.04120  1.0000
  Cl  Cl2       1.0  0.10300  0.75000  0.07550  1.0000
  Cl  Cl3       1.0  0.42000  0.00010  0.17200  1.0000
  Cl  Cl4       1.0  0.42000  0.50000  0.17200  1.0000
  Cl  Cl5       1.0  0.92000  0.00010  0.32800  1.0000
  Cl  Cl6       1.0  0.92000  0.50000  0.32800  1.0000
  Cl  Cl7       1.0  0.60300  0.75000  0.42500  1.0000
  Cl  Cl8       1.0  0.28000  0.75000  0.45900  1.0000
  Cl  Cl9       1.0  0.72000  0.25000  0.54100  1.0000
  Cl  Cl10      1.0  0.39700  0.25000  0.57500  1.0000
  Cl  Cl11      1.0  0.08020  0.50000  0.67200  1.0000
  Cl  Cl12      1.0  0.08020  0.00000  0.67200  1.0000
  Cl  Cl13      1.0  0.58000  0.50000  0.82800  1.0000
  Cl  Cl14      1.0  0.58000  0.00000  0.82800  1.0000
  Cl  Cl15      1.0  0.89700  0.25000  0.92500  1.0000
  Cl  Cl16      1.0  0.22000  0.25000  0.95900  1.0000
  Fe  Fe1       1.0  0.93200  0.75000  0.18800  1.0000
  Fe  Fe2       1.0  0.43200  0.75000  0.31200  1.0000
  Fe  Fe3       1.0  0.56800  0.25000  0.68800  1.0000
  Fe  Fe4       1.0  0.06780  0.25000  0.81200  1.0000
  Rb  Rb1       1.0  0.67900  0.25000  0.16500  1.0000
  Rb  Rb2       1.0  0.17900  0.25000  0.33500  1.0000
  Rb  Rb3       1.0  0.82100  0.75000  0.66500  1.0000
  Rb  Rb4       1.0  0.32100  0.75000  0.83500  1.0000
