data_image0
_chemical_formula_structural       C4K4Li4O12
_chemical_formula_sum              "C4 K4 Li4 O12"
_cell_length_a       7.17381
_cell_length_b       7.05934
_cell_length_c       7.45269
_cell_angle_alpha    90
_cell_angle_beta     127.895
_cell_angle_gamma    90

_space_group_name_H-M_alt    "P 1"
_space_group_IT_number       1

loop_
  _space_group_symop_operation_xyz
  'x, y, z'

loop_
  _atom_site_type_symbol
  _atom_site_label
  _atom_site_symmetry_multiplicity
  _atom_site_fract_x
  _atom_site_fract_y
  _atom_site_fract_z
  _atom_site_occupancy
  C   C1        1.0  0.29100  0.33300  0.20800  1.0000
  C   C2        1.0  0.70900  0.83300  0.29200  1.0000
  C   C3        1.0  0.29100  0.16700  0.70800  1.0000
  C   C4        1.0  0.70900  0.66700  0.79200  1.0000
  K   K1        1.0  0.82500  0.35500  0.16600  1.0000
  K   K2        1.0  0.17500  0.85500  0.33400  1.0000
  K   K3        1.0  0.82500  0.14500  0.66600  1.0000
  K   K4        1.0  0.17500  0.64500  0.83400  1.0000
  Li  Li1       1.0  0.40000  0.06820  0.10400  1.0000
  Li  Li2       1.0  0.60000  0.56800  0.39600  1.0000
  Li  Li3       1.0  0.40000  0.43200  0.60400  1.0000
  Li  Li4       1.0  0.60000  0.93200  0.89600  1.0000
  O   O1        1.0  0.15600  0.18700  0.12900  1.0000
  O   O2        1.0  0.74800  0.98100  0.21500  1.0000
  O   O3        1.0  0.47900  0.33400  0.21600  1.0000
  O   O4        1.0  0.52100  0.83400  0.28400  1.0000
  O   O5        1.0  0.25200  0.48100  0.28500  1.0000
  O   O6        1.0  0.84400  0.68700  0.37100  1.0000
  O   O7        1.0  0.15600  0.31300  0.62900  1.0000
  O   O8        1.0  0.74800  0.51900  0.71500  1.0000
  O   O9        1.0  0.47900  0.16600  0.71600  1.0000
  O   O10       1.0  0.52100  0.66600  0.78400  1.0000
  O   O11       1.0  0.25200  0.01900  0.78500  1.0000
  O   O12       1.0  0.84400  0.81300  0.87100  1.0000
