data_image0
_chemical_formula_structural       Ge8La12Ni4
_chemical_formula_sum              "Ge8 La12 Ni4"
_cell_length_a       12.0448
_cell_length_b       4.36246
_cell_length_c       11.8451
_cell_angle_alpha    90
_cell_angle_beta     90
_cell_angle_gamma    90

_space_group_name_H-M_alt    "P 1"
_space_group_IT_number       1

loop_
  _space_group_symop_operation_xyz
  'x, y, z'

loop_
  _atom_site_type_symbol
  _atom_site_label
  _atom_site_symmetry_multiplicity
  _atom_site_fract_x
  _atom_site_fract_y
  _atom_site_fract_z
  _atom_site_occupancy
  Ge  Ge1       1.0  0.80200  0.25000  0.00605  1.0000
  Ge  Ge2       1.0  0.52500  0.75000  0.18900  1.0000
  Ge  Ge3       1.0  0.02510  0.75000  0.31100  1.0000
  Ge  Ge4       1.0  0.30200  0.25000  0.49400  1.0000
  Ge  Ge5       1.0  0.69800  0.75000  0.50600  1.0000
  Ge  Ge6       1.0  0.97500  0.25000  0.68900  1.0000
  Ge  Ge7       1.0  0.47500  0.25000  0.81100  1.0000
  Ge  Ge8       1.0  0.19800  0.75000  0.99400  1.0000
  La  La1       1.0  0.38300  0.25000  0.05600  1.0000
  La  La2       1.0  0.05780  0.25000  0.12500  1.0000
  La  La3       1.0  0.78200  0.75000  0.19700  1.0000
  La  La4       1.0  0.28200  0.75000  0.30300  1.0000
  La  La5       1.0  0.55800  0.25000  0.37500  1.0000
  La  La6       1.0  0.88300  0.25000  0.44400  1.0000
  La  La7       1.0  0.11700  0.75000  0.55600  1.0000
  La  La8       1.0  0.44200  0.75000  0.62500  1.0000
  La  La9       1.0  0.71800  0.25000  0.69700  1.0000
  La  La10      1.0  0.21800  0.25000  0.80300  1.0000
  La  La11      1.0  0.94200  0.75000  0.87500  1.0000
  La  La12      1.0  0.61700  0.75000  0.94400  1.0000
  Ni  Ni1       1.0  0.62800  0.25000  0.13400  1.0000
  Ni  Ni2       1.0  0.12800  0.25000  0.36600  1.0000
  Ni  Ni3       1.0  0.87200  0.75000  0.63400  1.0000
  Ni  Ni4       1.0  0.37200  0.75000  0.86600  1.0000
