data_image0
_chemical_formula_structural       O16P4Pr4
_chemical_formula_sum              "O16 P4 Pr4"
_cell_length_a       6.75872
_cell_length_b       6.97689
_cell_length_c       6.41925
_cell_angle_alpha    90
_cell_angle_beta     103.47
_cell_angle_gamma    90

_space_group_name_H-M_alt    "P 1"
_space_group_IT_number       1

loop_
  _space_group_symop_operation_xyz
  'x, y, z'

loop_
  _atom_site_type_symbol
  _atom_site_label
  _atom_site_symmetry_multiplicity
  _atom_site_fract_x
  _atom_site_fract_y
  _atom_site_fract_z
  _atom_site_occupancy
  O   O1        1.0  0.11800  0.83300  0.00247  1.0000
  O   O2        1.0  0.25200  0.50400  0.05810  1.0000
  O   O3        1.0  0.52500  0.89300  0.19100  1.0000
  O   O4        1.0  0.62500  0.28600  0.21300  1.0000
  O   O5        1.0  0.87500  0.78600  0.28700  1.0000
  O   O6        1.0  0.97500  0.39300  0.30900  1.0000
  O   O7        1.0  0.24800  0.00432  0.44200  1.0000
  O   O8        1.0  0.38200  0.33300  0.49800  1.0000
  O   O9        1.0  0.61800  0.66700  0.50200  1.0000
  O   O10       1.0  0.75200  0.99600  0.55800  1.0000
  O   O11       1.0  0.02490  0.60700  0.69100  1.0000
  O   O12       1.0  0.12500  0.21400  0.71300  1.0000
  O   O13       1.0  0.37500  0.71400  0.78700  1.0000
  O   O14       1.0  0.47500  0.10700  0.80900  1.0000
  O   O15       1.0  0.74800  0.49600  0.94200  1.0000
  O   O16       1.0  0.88200  0.16700  0.99800  1.0000
  P   P1        1.0  0.80400  0.33700  0.11400  1.0000
  P   P2        1.0  0.69600  0.83700  0.38600  1.0000
  P   P3        1.0  0.30400  0.16300  0.61400  1.0000
  P   P4        1.0  0.19600  0.66300  0.88600  1.0000
  Pr  Pr1       1.0  0.28100  0.15800  0.10100  1.0000
  Pr  Pr2       1.0  0.21900  0.65800  0.39900  1.0000
  Pr  Pr3       1.0  0.78100  0.34200  0.60100  1.0000
  Pr  Pr4       1.0  0.71900  0.84200  0.89900  1.0000
