data_image0
_chemical_formula_structural       Na2Nb6O16
_chemical_formula_sum              "Na2 Nb6 O16"
_cell_length_a       7.0976
_cell_length_b       7.2722
_cell_length_c       7.2722
_cell_angle_alpha    60.6898
_cell_angle_beta     119.209
_cell_angle_gamma    119.209

_space_group_name_H-M_alt    "P 1"
_space_group_IT_number       1

loop_
  _space_group_symop_operation_xyz
  'x, y, z'

loop_
  _atom_site_type_symbol
  _atom_site_label
  _atom_site_symmetry_multiplicity
  _atom_site_fract_x
  _atom_site_fract_y
  _atom_site_fract_z
  _atom_site_occupancy
  Na  Na1       1.0  0.25000  0.00000  0.00000  1.0000
  Na  Na2       1.0  0.75000  0.00000  0.00000  1.0000
  Nb  Nb1       1.0  0.76400  0.51600  0.01210  1.0000
  Nb  Nb2       1.0  0.73600  0.98800  0.48400  1.0000
  Nb  Nb3       1.0  0.25000  0.50000  0.50000  1.0000
  Nb  Nb4       1.0  0.75000  0.50000  0.50000  1.0000
  Nb  Nb5       1.0  0.26400  0.01210  0.51600  1.0000
  Nb  Nb6       1.0  0.23600  0.48400  0.98800  1.0000
  O   O1        1.0  0.16500  0.18000  0.15100  1.0000
  O   O2        1.0  0.15900  0.56100  0.16100  1.0000
  O   O3        1.0  0.56400  0.56100  0.16100  1.0000
  O   O4        1.0  0.66500  0.15100  0.18000  1.0000
  O   O5        1.0  0.92400  0.53100  0.31700  1.0000
  O   O6        1.0  0.34100  0.83900  0.43900  1.0000
  O   O7        1.0  0.93600  0.83900  0.43900  1.0000
  O   O8        1.0  0.57600  0.68300  0.46900  1.0000
  O   O9        1.0  0.42400  0.31700  0.53100  1.0000
  O   O10       1.0  0.06370  0.16100  0.56100  1.0000
  O   O11       1.0  0.65900  0.16100  0.56100  1.0000
  O   O12       1.0  0.07570  0.46900  0.68300  1.0000
  O   O13       1.0  0.33500  0.84900  0.82000  1.0000
  O   O14       1.0  0.43600  0.43900  0.83900  1.0000
  O   O15       1.0  0.84100  0.43900  0.83900  1.0000
  O   O16       1.0  0.83500  0.82000  0.84900  1.0000
