data_image0
_chemical_formula_structural       Na8O4S8Ti4
_chemical_formula_sum              "Na8 O4 S8 Ti4"
_cell_length_a       6.85018
_cell_length_b       13.6197
_cell_length_c       5.77062
_cell_angle_alpha    90
_cell_angle_beta     113.546
_cell_angle_gamma    90

_space_group_name_H-M_alt    "P 1"
_space_group_IT_number       1

loop_
  _space_group_symop_operation_xyz
  'x, y, z'

loop_
  _atom_site_type_symbol
  _atom_site_label
  _atom_site_symmetry_multiplicity
  _atom_site_fract_x
  _atom_site_fract_y
  _atom_site_fract_z
  _atom_site_occupancy
  Na  Na1       1.0  0.60500  0.86000  0.04520  1.0000
  Na  Na2       1.0  0.78700  0.44200  0.14800  1.0000
  Na  Na3       1.0  0.21300  0.94200  0.35200  1.0000
  Na  Na4       1.0  0.39500  0.36000  0.45500  1.0000
  Na  Na5       1.0  0.60500  0.64000  0.54500  1.0000
  Na  Na6       1.0  0.78700  0.05770  0.64800  1.0000
  Na  Na7       1.0  0.21300  0.55800  0.85200  1.0000
  Na  Na8       1.0  0.39500  0.14000  0.95500  1.0000
  O   O1        1.0  0.97900  0.29400  0.13400  1.0000
  O   O2        1.0  0.02130  0.79400  0.36600  1.0000
  O   O3        1.0  0.97900  0.20600  0.63400  1.0000
  O   O4        1.0  0.02130  0.70600  0.86600  1.0000
  S   S1        1.0  0.63600  0.64300  0.05760  1.0000
  S   S2        1.0  0.80600  0.05670  0.14500  1.0000
  S   S3        1.0  0.19400  0.55700  0.35500  1.0000
  S   S4        1.0  0.36400  0.14300  0.44200  1.0000
  S   S5        1.0  0.63600  0.85700  0.55800  1.0000
  S   S6        1.0  0.80600  0.44300  0.64500  1.0000
  S   S7        1.0  0.19400  0.94300  0.85500  1.0000
  S   S8        1.0  0.36400  0.35700  0.94200  1.0000
  Ti  Ti1       1.0  0.97900  0.68200  0.16300  1.0000
  Ti  Ti2       1.0  0.02100  0.18200  0.33700  1.0000
  Ti  Ti3       1.0  0.97900  0.81800  0.66300  1.0000
  Ti  Ti4       1.0  0.02100  0.31800  0.83700  1.0000
