data_image0
_chemical_formula_structural       Al4Cl16Ga4
_chemical_formula_sum              "Al4 Cl16 Ga4"
_cell_length_a       7.17899
_cell_length_b       10.0801
_cell_length_c       9.33598
_cell_angle_alpha    90
_cell_angle_beta     93.5095
_cell_angle_gamma    90

_space_group_name_H-M_alt    "P 1"
_space_group_IT_number       1

loop_
  _space_group_symop_operation_xyz
  'x, y, z'

loop_
  _atom_site_type_symbol
  _atom_site_label
  _atom_site_symmetry_multiplicity
  _atom_site_fract_x
  _atom_site_fract_y
  _atom_site_fract_z
  _atom_site_occupancy
  Al  Al1       1.0  0.75700  0.04420  0.18200  1.0000
  Al  Al2       1.0  0.74300  0.54400  0.31800  1.0000
  Al  Al3       1.0  0.25700  0.45600  0.68200  1.0000
  Al  Al4       1.0  0.24300  0.95600  0.81800  1.0000
  Cl  Cl1       1.0  0.79200  0.21900  0.05030  1.0000
  Cl  Cl2       1.0  0.69400  0.86800  0.05730  1.0000
  Cl  Cl3       1.0  0.96700  0.57000  0.17800  1.0000
  Cl  Cl4       1.0  0.47700  0.52600  0.19600  1.0000
  Cl  Cl5       1.0  0.02260  0.02590  0.30400  1.0000
  Cl  Cl6       1.0  0.53300  0.07050  0.32200  1.0000
  Cl  Cl7       1.0  0.80600  0.36800  0.44300  1.0000
  Cl  Cl8       1.0  0.70800  0.71900  0.45000  1.0000
  Cl  Cl9       1.0  0.29200  0.28100  0.55000  1.0000
  Cl  Cl10      1.0  0.19400  0.63200  0.55700  1.0000
  Cl  Cl11      1.0  0.46700  0.93000  0.67800  1.0000
  Cl  Cl12      1.0  0.97700  0.97400  0.69600  1.0000
  Cl  Cl13      1.0  0.52300  0.47400  0.80400  1.0000
  Cl  Cl14      1.0  0.03330  0.43000  0.82200  1.0000
  Cl  Cl15      1.0  0.30600  0.13200  0.94300  1.0000
  Cl  Cl16      1.0  0.20800  0.78100  0.95000  1.0000
  Ga  Ga1       1.0  0.15400  0.28800  0.21200  1.0000
  Ga  Ga2       1.0  0.34600  0.78800  0.28800  1.0000
  Ga  Ga3       1.0  0.65400  0.21200  0.71200  1.0000
  Ga  Ga4       1.0  0.84600  0.71200  0.78800  1.0000
