data_image0
_chemical_formula_structural       Cl20Nb2P2
_chemical_formula_sum              "Cl20 Nb2 P2"
_cell_length_a       7.23104
_cell_length_b       13.6276
_cell_length_c       6.98064
_cell_angle_alpha    90.9179
_cell_angle_beta     105.463
_cell_angle_gamma    90.5262

_space_group_name_H-M_alt    "P 1"
_space_group_IT_number       1

loop_
  _space_group_symop_operation_xyz
  'x, y, z'

loop_
  _atom_site_type_symbol
  _atom_site_label
  _atom_site_symmetry_multiplicity
  _atom_site_fract_x
  _atom_site_fract_y
  _atom_site_fract_z
  _atom_site_occupancy
  Cl  Cl1       1.0  0.00754  0.66700  0.10100  1.0000
  Cl  Cl2       1.0  0.27900  0.10300  0.11300  1.0000
  Cl  Cl3       1.0  0.52100  0.69300  0.12400  1.0000
  Cl  Cl4       1.0  0.81700  0.11400  0.13400  1.0000
  Cl  Cl5       1.0  0.30200  0.47600  0.23400  1.0000
  Cl  Cl6       1.0  0.83700  0.45600  0.24400  1.0000
  Cl  Cl7       1.0  0.08160  0.91800  0.30800  1.0000
  Cl  Cl8       1.0  0.58600  0.90300  0.34100  1.0000
  Cl  Cl9       1.0  0.15300  0.27700  0.46900  1.0000
  Cl  Cl10      1.0  0.59300  0.27500  0.47100  1.0000
  Cl  Cl11      1.0  0.40700  0.72500  0.52900  1.0000
  Cl  Cl12      1.0  0.84700  0.72300  0.53100  1.0000
  Cl  Cl13      1.0  0.41400  0.09710  0.65900  1.0000
  Cl  Cl14      1.0  0.91800  0.08160  0.69200  1.0000
  Cl  Cl15      1.0  0.16300  0.54400  0.75600  1.0000
  Cl  Cl16      1.0  0.69800  0.52400  0.76600  1.0000
  Cl  Cl17      1.0  0.18300  0.88600  0.86600  1.0000
  Cl  Cl18      1.0  0.47900  0.30700  0.87600  1.0000
  Cl  Cl19      1.0  0.72100  0.89700  0.88700  1.0000
  Cl  Cl20      1.0  0.99200  0.33300  0.89900  1.0000
  Nb  Nb1       1.0  0.00000  0.00000  0.00000  1.0000
  Nb  Nb2       1.0  0.00000  0.50000  0.00000  1.0000
  P   P1        1.0  0.59100  0.76200  0.38100  1.0000
  P   P2        1.0  0.40900  0.23800  0.61900  1.0000
