data_image0
_chemical_formula_structural       K6Na2O12Th4
_chemical_formula_sum              "K6 Na2 O12 Th4"
_cell_length_a       6.30206
_cell_length_b       6.30206
_cell_length_c       12.5745
_cell_angle_alpha    94.7787
_cell_angle_beta     94.7787
_cell_angle_gamma    120.025

_space_group_name_H-M_alt    "P 1"
_space_group_IT_number       1

loop_
  _space_group_symop_operation_xyz
  'x, y, z'

loop_
  _atom_site_type_symbol
  _atom_site_label
  _atom_site_symmetry_multiplicity
  _atom_site_fract_x
  _atom_site_fract_y
  _atom_site_fract_z
  _atom_site_occupancy
  K   K1        1.0  0.50000  0.00000  0.00000  1.0000
  K   K2        1.0  0.15500  0.31000  0.00000  1.0000
  K   K3        1.0  0.84500  0.69000  0.00000  1.0000
  K   K4        1.0  0.69000  0.84500  0.50000  1.0000
  K   K5        1.0  0.00000  0.50000  0.50000  1.0000
  K   K6        1.0  0.31000  0.15500  0.50000  1.0000
  Na  Na1       1.0  0.91400  0.08580  0.25000  1.0000
  Na  Na2       1.0  0.08580  0.91400  0.75000  1.0000
  O   O1        1.0  0.51600  0.68600  0.14900  1.0000
  O   O2        1.0  0.88100  0.41700  0.15000  1.0000
  O   O3        1.0  0.24400  0.05230  0.15100  1.0000
  O   O4        1.0  0.94800  0.75600  0.34900  1.0000
  O   O5        1.0  0.58300  0.11900  0.35000  1.0000
  O   O6        1.0  0.31400  0.48400  0.35100  1.0000
  O   O7        1.0  0.68600  0.51600  0.64900  1.0000
  O   O8        1.0  0.41700  0.88100  0.65000  1.0000
  O   O9        1.0  0.05230  0.24400  0.65100  1.0000
  O   O10       1.0  0.75600  0.94800  0.84900  1.0000
  O   O11       1.0  0.11900  0.58300  0.85000  1.0000
  O   O12       1.0  0.48400  0.31400  0.85100  1.0000
  Th  Th1       1.0  0.58100  0.41900  0.25000  1.0000
  Th  Th2       1.0  0.24900  0.75100  0.25000  1.0000
  Th  Th3       1.0  0.75100  0.24900  0.75000  1.0000
  Th  Th4       1.0  0.41900  0.58100  0.75000  1.0000
