data_image0
_chemical_formula_structural       Ag4Te8Tl12
_chemical_formula_sum              "Ag4 Te8 Tl12"
_cell_length_a       11.1654
_cell_length_b       7.56637
_cell_length_c       9.97501
_cell_angle_alpha    90
_cell_angle_beta     116.455
_cell_angle_gamma    90

_space_group_name_H-M_alt    "P 1"
_space_group_IT_number       1

loop_
  _space_group_symop_operation_xyz
  'x, y, z'

loop_
  _atom_site_type_symbol
  _atom_site_label
  _atom_site_symmetry_multiplicity
  _atom_site_fract_x
  _atom_site_fract_y
  _atom_site_fract_z
  _atom_site_occupancy
  Ag  Ag1       1.0  0.09250  0.66600  0.17600  1.0000
  Ag  Ag2       1.0  0.90700  0.16600  0.32400  1.0000
  Ag  Ag3       1.0  0.09250  0.83400  0.67600  1.0000
  Ag  Ag4       1.0  0.90700  0.33400  0.82400  1.0000
  Te  Te1       1.0  0.04120  0.27200  0.14800  1.0000
  Te  Te2       1.0  0.62600  0.23100  0.19000  1.0000
  Te  Te3       1.0  0.37400  0.73100  0.31000  1.0000
  Te  Te4       1.0  0.95900  0.77200  0.35200  1.0000
  Te  Te5       1.0  0.04120  0.22800  0.64800  1.0000
  Te  Te6       1.0  0.62600  0.26900  0.69000  1.0000
  Te  Te7       1.0  0.37400  0.76900  0.81000  1.0000
  Te  Te8       1.0  0.95900  0.72800  0.85200  1.0000
  Tl  Tl1       1.0  0.21100  0.01120  0.01150  1.0000
  Tl  Tl2       1.0  0.76500  0.50600  0.03500  1.0000
  Tl  Tl3       1.0  0.58600  0.78900  0.16700  1.0000
  Tl  Tl4       1.0  0.41400  0.28900  0.33300  1.0000
  Tl  Tl5       1.0  0.23500  0.00639  0.46500  1.0000
  Tl  Tl6       1.0  0.78900  0.51100  0.48900  1.0000
  Tl  Tl7       1.0  0.21100  0.48900  0.51100  1.0000
  Tl  Tl8       1.0  0.76500  0.99400  0.53500  1.0000
  Tl  Tl9       1.0  0.58600  0.71100  0.66700  1.0000
  Tl  Tl10      1.0  0.41400  0.21100  0.83300  1.0000
  Tl  Tl11      1.0  0.23500  0.49400  0.96500  1.0000
  Tl  Tl12      1.0  0.78900  0.98900  0.98900  1.0000
