data_image0
_chemical_formula_structural       Ga4La4O2S12Zn2
_chemical_formula_sum              "Ga4 La4 O2 S12 Zn2"
_cell_length_a       9.39303
_cell_length_b       9.39303
_cell_length_c       6.10322
_cell_angle_alpha    90
_cell_angle_beta     90
_cell_angle_gamma    90

_space_group_name_H-M_alt    "P 1"
_space_group_IT_number       1

loop_
  _space_group_symop_operation_xyz
  'x, y, z'

loop_
  _atom_site_type_symbol
  _atom_site_label
  _atom_site_symmetry_multiplicity
  _atom_site_fract_x
  _atom_site_fract_y
  _atom_site_fract_z
  _atom_site_occupancy
  Ga  Ga1       1.0  0.12800  0.37200  0.08560  1.0000
  Ga  Ga2       1.0  0.87200  0.62800  0.08560  1.0000
  Ga  Ga3       1.0  0.62800  0.12800  0.91400  1.0000
  Ga  Ga4       1.0  0.37200  0.87200  0.91400  1.0000
  La  La1       1.0  0.84500  0.34500  0.49100  1.0000
  La  La2       1.0  0.15500  0.65500  0.49100  1.0000
  La  La3       1.0  0.34500  0.15500  0.50900  1.0000
  La  La4       1.0  0.65500  0.84500  0.50900  1.0000
  O   O1        1.0  0.00000  0.50000  0.23600  1.0000
  O   O2        1.0  0.50000  0.00000  0.76400  1.0000
  S   S1        1.0  0.06460  0.16800  0.25900  1.0000
  S   S2        1.0  0.33200  0.43500  0.25900  1.0000
  S   S3        1.0  0.66800  0.56500  0.25900  1.0000
  S   S4        1.0  0.93500  0.83200  0.25900  1.0000
  S   S5        1.0  0.63100  0.13100  0.28100  1.0000
  S   S6        1.0  0.36900  0.86900  0.28100  1.0000
  S   S7        1.0  0.13100  0.36900  0.71900  1.0000
  S   S8        1.0  0.86900  0.63100  0.71900  1.0000
  S   S9        1.0  0.83200  0.06460  0.74100  1.0000
  S   S10       1.0  0.56500  0.33200  0.74100  1.0000
  S   S11       1.0  0.43500  0.66800  0.74100  1.0000
  S   S12       1.0  0.16800  0.93500  0.74100  1.0000
  Zn  Zn1       1.0  0.00000  0.00000  0.00000  1.0000
  Zn  Zn2       1.0  0.50000  0.50000  0.00000  1.0000
