data_image0
_chemical_formula_structural       Cs2O16V6
_chemical_formula_sum              "Cs2 O16 V6"
_cell_length_a       8.0261
_cell_length_b       8.44978
_cell_length_c       4.99506
_cell_angle_alpha    90
_cell_angle_beta     95.4361
_cell_angle_gamma    90

_space_group_name_H-M_alt    "P 1"
_space_group_IT_number       1

loop_
  _space_group_symop_operation_xyz
  'x, y, z'

loop_
  _atom_site_type_symbol
  _atom_site_label
  _atom_site_symmetry_multiplicity
  _atom_site_fract_x
  _atom_site_fract_y
  _atom_site_fract_z
  _atom_site_occupancy
  Cs  Cs1       1.0  0.93500  0.75000  0.05940  1.0000
  Cs  Cs2       1.0  0.06480  0.25000  0.94100  1.0000
  O   O1        1.0  0.72800  0.09760  0.10200  1.0000
  O   O2        1.0  0.72800  0.40200  0.10200  1.0000
  O   O3        1.0  0.43500  0.25000  0.13600  1.0000
  O   O4        1.0  0.49700  0.58800  0.31600  1.0000
  O   O5        1.0  0.49700  0.91200  0.31600  1.0000
  O   O6        1.0  0.24900  0.75000  0.42300  1.0000
  O   O7        1.0  0.17500  0.06310  0.44100  1.0000
  O   O8        1.0  0.17500  0.43700  0.44100  1.0000
  O   O9        1.0  0.82500  0.56300  0.55900  1.0000
  O   O10       1.0  0.82500  0.93700  0.55900  1.0000
  O   O11       1.0  0.75100  0.25000  0.57700  1.0000
  O   O12       1.0  0.50300  0.08840  0.68400  1.0000
  O   O13       1.0  0.50300  0.41200  0.68400  1.0000
  O   O14       1.0  0.56500  0.75000  0.86400  1.0000
  O   O15       1.0  0.27200  0.59800  0.89800  1.0000
  O   O16       1.0  0.27200  0.90200  0.89800  1.0000
  V   V1        1.0  0.42100  0.75000  0.07300  1.0000
  V   V2        1.0  0.67800  0.05450  0.43400  1.0000
  V   V3        1.0  0.67800  0.44500  0.43400  1.0000
  V   V4        1.0  0.32200  0.55500  0.56600  1.0000
  V   V5        1.0  0.32200  0.94500  0.56600  1.0000
  V   V6        1.0  0.57900  0.25000  0.92700  1.0000
