data_image0
_chemical_formula_structural       Br16In4Na4
_chemical_formula_sum              "Br16 In4 Na4"
_cell_length_a       11.1751
_cell_length_b       10.591
_cell_length_c       6.82408
_cell_angle_alpha    90
_cell_angle_beta     90
_cell_angle_gamma    90

_space_group_name_H-M_alt    "P 1"
_space_group_IT_number       1

loop_
  _space_group_symop_operation_xyz
  'x, y, z'

loop_
  _atom_site_type_symbol
  _atom_site_label
  _atom_site_symmetry_multiplicity
  _atom_site_fract_x
  _atom_site_fract_y
  _atom_site_fract_z
  _atom_site_occupancy
  Br  Br1       1.0  0.83100  0.49300  0.05790  1.0000
  Br  Br2       1.0  0.13100  0.69200  0.06870  1.0000
  Br  Br3       1.0  0.46100  0.50600  0.08830  1.0000
  Br  Br4       1.0  0.15600  0.30000  0.09940  1.0000
  Br  Br5       1.0  0.84400  0.80000  0.40100  1.0000
  Br  Br6       1.0  0.53900  0.00561  0.41200  1.0000
  Br  Br7       1.0  0.86900  0.19200  0.43100  1.0000
  Br  Br8       1.0  0.16900  0.99300  0.44200  1.0000
  Br  Br9       1.0  0.66900  0.50700  0.55800  1.0000
  Br  Br10      1.0  0.36900  0.30800  0.56900  1.0000
  Br  Br11      1.0  0.03880  0.49400  0.58800  1.0000
  Br  Br12      1.0  0.34400  0.70000  0.59900  1.0000
  Br  Br13      1.0  0.65600  0.20000  0.90100  1.0000
  Br  Br14      1.0  0.96100  0.99400  0.91200  1.0000
  Br  Br15      1.0  0.63100  0.80800  0.93100  1.0000
  Br  Br16      1.0  0.33100  0.00735  0.94200  1.0000
  In  In1       1.0  0.03810  0.49100  0.21500  1.0000
  In  In2       1.0  0.96200  0.99100  0.28500  1.0000
  In  In3       1.0  0.46200  0.50900  0.71500  1.0000
  In  In4       1.0  0.53800  0.00854  0.78500  1.0000
  Na  Na1       1.0  0.39400  0.78100  0.19100  1.0000
  Na  Na2       1.0  0.60600  0.28100  0.30900  1.0000
  Na  Na3       1.0  0.10600  0.21900  0.69100  1.0000
  Na  Na4       1.0  0.89400  0.71900  0.80900  1.0000
