data_image0
_chemical_formula_structural       La2Na2O16S4
_chemical_formula_sum              "La2 Na2 O16 S4"
_cell_length_a       7.00829
_cell_length_b       6.68172
_cell_length_c       6.40856
_cell_angle_alpha    101.872
_cell_angle_beta     91.2195
_cell_angle_gamma    82.8425

_space_group_name_H-M_alt    "P 1"
_space_group_IT_number       1

loop_
  _space_group_symop_operation_xyz
  'x, y, z'

loop_
  _atom_site_type_symbol
  _atom_site_label
  _atom_site_symmetry_multiplicity
  _atom_site_fract_x
  _atom_site_fract_y
  _atom_site_fract_z
  _atom_site_occupancy
  La  La1       1.0  0.17800  0.26400  0.11800  1.0000
  La  La2       1.0  0.82200  0.73600  0.88200  1.0000
  Na  Na1       1.0  0.65600  0.23500  0.42200  1.0000
  Na  Na2       1.0  0.34400  0.76500  0.57800  1.0000
  O   O1        1.0  0.86000  0.13700  0.00110  1.0000
  O   O2        1.0  0.52800  0.26500  0.06540  1.0000
  O   O3        1.0  0.90600  0.54400  0.19400  1.0000
  O   O4        1.0  0.29800  0.61800  0.20500  1.0000
  O   O5        1.0  0.36600  0.97000  0.26800  1.0000
  O   O6        1.0  0.76300  0.88700  0.28300  1.0000
  O   O7        1.0  0.01140  0.24300  0.46300  1.0000
  O   O8        1.0  0.68100  0.63500  0.49100  1.0000
  O   O9        1.0  0.31900  0.36500  0.50900  1.0000
  O   O10       1.0  0.98900  0.75700  0.53700  1.0000
  O   O11       1.0  0.23700  0.11300  0.71700  1.0000
  O   O12       1.0  0.63400  0.03000  0.73200  1.0000
  O   O13       1.0  0.70200  0.38200  0.79500  1.0000
  O   O14       1.0  0.09360  0.45600  0.80600  1.0000
  O   O15       1.0  0.47200  0.73500  0.93500  1.0000
  O   O16       1.0  0.14000  0.86300  0.99900  1.0000
  S   S1        1.0  0.32200  0.79100  0.10300  1.0000
  S   S2        1.0  0.83400  0.71000  0.38000  1.0000
  S   S3        1.0  0.16600  0.29000  0.62000  1.0000
  S   S4        1.0  0.67800  0.20900  0.89700  1.0000
