data_image0
_chemical_formula_structural       Mo6O17Tl
_chemical_formula_sum              "Mo6 O17 Tl1"
_cell_length_a       5.54858
_cell_length_b       5.5485
_cell_length_c       13.8491
_cell_angle_alpha    90
_cell_angle_beta     90.0009
_cell_angle_gamma    120

_space_group_name_H-M_alt    "P 1"
_space_group_IT_number       1

loop_
  _space_group_symop_operation_xyz
  'x, y, z'

loop_
  _atom_site_type_symbol
  _atom_site_label
  _atom_site_symmetry_multiplicity
  _atom_site_fract_x
  _atom_site_fract_y
  _atom_site_fract_z
  _atom_site_occupancy
  Mo  Mo1       1.0  0.66700  0.33300  0.07110  1.0000
  Mo  Mo2       1.0  0.00000  0.00000  0.21900  1.0000
  Mo  Mo3       1.0  0.33300  0.66700  0.36800  1.0000
  Mo  Mo4       1.0  0.66700  0.33300  0.63200  1.0000
  Mo  Mo5       1.0  0.00000  0.00000  0.78100  1.0000
  Mo  Mo6       1.0  0.33300  0.66700  0.92900  1.0000
  O   O1        1.0  0.50000  0.00000  0.00000  1.0000
  O   O2        1.0  0.50000  0.50000  0.00000  1.0000
  O   O3        1.0  0.00000  0.50000  0.00000  1.0000
  O   O4        1.0  0.83600  0.67100  0.15700  1.0000
  O   O5        1.0  0.83600  0.16400  0.15700  1.0000
  O   O6        1.0  0.32900  0.16400  0.15700  1.0000
  O   O7        1.0  0.15800  0.31700  0.32400  1.0000
  O   O8        1.0  0.15800  0.84200  0.32400  1.0000
  O   O9        1.0  0.68300  0.84200  0.32400  1.0000
  O   O10       1.0  0.33300  0.66700  0.49400  1.0000
  O   O11       1.0  0.66700  0.33300  0.50600  1.0000
  O   O12       1.0  0.31700  0.15800  0.67600  1.0000
  O   O13       1.0  0.84200  0.68300  0.67600  1.0000
  O   O14       1.0  0.84200  0.15800  0.67600  1.0000
  O   O15       1.0  0.67100  0.83600  0.84300  1.0000
  O   O16       1.0  0.16400  0.32900  0.84300  1.0000
  O   O17       1.0  0.16400  0.83600  0.84300  1.0000
  Tl  Tl1       1.0  0.00000  0.00000  0.50000  1.0000
