data_image0
_chemical_formula_structural       Ir4Nb4Te16
_chemical_formula_sum              "Ir4 Nb4 Te16"
_cell_length_a       3.81043
_cell_length_b       12.6871
_cell_length_c       13.359
_cell_angle_alpha    90
_cell_angle_beta     90
_cell_angle_gamma    90

_space_group_name_H-M_alt    "P 1"
_space_group_IT_number       1

loop_
  _space_group_symop_operation_xyz
  'x, y, z'

loop_
  _atom_site_type_symbol
  _atom_site_label
  _atom_site_symmetry_multiplicity
  _atom_site_fract_x
  _atom_site_fract_y
  _atom_site_fract_z
  _atom_site_occupancy
  Ir  Ir1       1.0  0.00000  0.53600  0.00014  1.0000
  Ir  Ir2       1.0  0.00000  0.75300  0.49200  1.0000
  Ir  Ir3       1.0  0.50000  0.46400  0.50000  1.0000
  Ir  Ir4       1.0  0.50000  0.24700  0.99200  1.0000
  Nb  Nb1       1.0  0.00000  0.05580  0.00487  1.0000
  Nb  Nb2       1.0  0.00000  0.26900  0.49200  1.0000
  Nb  Nb3       1.0  0.50000  0.94400  0.50500  1.0000
  Nb  Nb4       1.0  0.50000  0.73100  0.99200  1.0000
  Te  Te1       1.0  0.00000  0.34700  0.09460  1.0000
  Te  Te2       1.0  0.00000  0.85200  0.10700  1.0000
  Te  Te3       1.0  0.50000  0.58700  0.13800  1.0000
  Te  Te4       1.0  0.50000  0.11000  0.14800  1.0000
  Te  Te5       1.0  0.50000  0.32300  0.34800  1.0000
  Te  Te6       1.0  0.50000  0.80600  0.35400  1.0000
  Te  Te7       1.0  0.00000  0.06580  0.39300  1.0000
  Te  Te8       1.0  0.00000  0.56300  0.39700  1.0000
  Te  Te9       1.0  0.50000  0.65300  0.59500  1.0000
  Te  Te10      1.0  0.50000  0.14800  0.60700  1.0000
  Te  Te11      1.0  0.00000  0.41300  0.63800  1.0000
  Te  Te12      1.0  0.00000  0.89000  0.64800  1.0000
  Te  Te13      1.0  0.00000  0.67700  0.84800  1.0000
  Te  Te14      1.0  0.00000  0.19400  0.85400  1.0000
  Te  Te15      1.0  0.50000  0.93400  0.89300  1.0000
  Te  Te16      1.0  0.50000  0.43700  0.89700  1.0000
