data_image0
_chemical_formula_structural       Ag12Na4S8
_chemical_formula_sum              "Ag12 Na4 S8"
_cell_length_a       8.84555
_cell_length_b       8.84555
_cell_length_c       8.84555
_cell_angle_alpha    120
_cell_angle_beta     90
_cell_angle_gamma    120

_space_group_name_H-M_alt    "P 1"
_space_group_IT_number       1

loop_
  _space_group_symop_operation_xyz
  'x, y, z'

loop_
  _atom_site_type_symbol
  _atom_site_label
  _atom_site_symmetry_multiplicity
  _atom_site_fract_x
  _atom_site_fract_y
  _atom_site_fract_z
  _atom_site_occupancy
  Ag  Ag1       1.0  0.29700  0.75000  0.20300  1.0000
  Ag  Ag2       1.0  0.95300  0.75000  0.20300  1.0000
  Ag  Ag3       1.0  0.95300  0.40500  0.20300  1.0000
  Ag  Ag4       1.0  0.70300  0.90500  0.45300  1.0000
  Ag  Ag5       1.0  0.70300  0.25000  0.45300  1.0000
  Ag  Ag6       1.0  0.04730  0.25000  0.45300  1.0000
  Ag  Ag7       1.0  0.29700  0.75000  0.54700  1.0000
  Ag  Ag8       1.0  0.95300  0.75000  0.54700  1.0000
  Ag  Ag9       1.0  0.29700  0.09460  0.54700  1.0000
  Ag  Ag10      1.0  0.70300  0.25000  0.79700  1.0000
  Ag  Ag11      1.0  0.04730  0.59500  0.79700  1.0000
  Ag  Ag12      1.0  0.04730  0.25000  0.79700  1.0000
  Na  Na1       1.0  0.00000  0.00000  0.00000  1.0000
  Na  Na2       1.0  0.50000  0.00000  0.00000  1.0000
  Na  Na3       1.0  0.50000  0.50000  0.00000  1.0000
  Na  Na4       1.0  0.50000  0.50000  0.50000  1.0000
  S   S1        1.0  0.73600  0.97300  0.20900  1.0000
  S   S2        1.0  0.26400  0.47300  0.23600  1.0000
  S   S3        1.0  0.70900  0.47300  0.23600  1.0000
  S   S4        1.0  0.26400  0.02730  0.23600  1.0000
  S   S5        1.0  0.29100  0.52700  0.76400  1.0000
  S   S6        1.0  0.73600  0.52700  0.76400  1.0000
  S   S7        1.0  0.73600  0.97300  0.76400  1.0000
  S   S8        1.0  0.26400  0.02730  0.79100  1.0000
