data_image0
_chemical_formula_structural       Br16Ga4Na4
_chemical_formula_sum              "Br16 Ga4 Na4"
_cell_length_a       14.1862
_cell_length_b       7.58291
_cell_length_c       7.58994
_cell_angle_alpha    90
_cell_angle_beta     90
_cell_angle_gamma    90

_space_group_name_H-M_alt    "P 1"
_space_group_IT_number       1

loop_
  _space_group_symop_operation_xyz
  'x, y, z'

loop_
  _atom_site_type_symbol
  _atom_site_label
  _atom_site_symmetry_multiplicity
  _atom_site_fract_x
  _atom_site_fract_y
  _atom_site_fract_z
  _atom_site_occupancy
  Br  Br1       1.0  0.55400  0.75000  0.09610  1.0000
  Br  Br2       1.0  0.03520  0.25000  0.12300  1.0000
  Br  Br3       1.0  0.80100  0.00260  0.23500  1.0000
  Br  Br4       1.0  0.80100  0.49700  0.23500  1.0000
  Br  Br5       1.0  0.30100  0.00260  0.26500  1.0000
  Br  Br6       1.0  0.30100  0.49700  0.26500  1.0000
  Br  Br7       1.0  0.53500  0.25000  0.37700  1.0000
  Br  Br8       1.0  0.05420  0.75000  0.40400  1.0000
  Br  Br9       1.0  0.94600  0.25000  0.59600  1.0000
  Br  Br10      1.0  0.46500  0.75000  0.62300  1.0000
  Br  Br11      1.0  0.69900  0.50300  0.73500  1.0000
  Br  Br12      1.0  0.69900  0.99700  0.73500  1.0000
  Br  Br13      1.0  0.19900  0.50300  0.76500  1.0000
  Br  Br14      1.0  0.19900  0.99700  0.76500  1.0000
  Br  Br15      1.0  0.96500  0.75000  0.87700  1.0000
  Br  Br16      1.0  0.44600  0.25000  0.90400  1.0000
  Ga  Ga1       1.0  0.39900  0.25000  0.20300  1.0000
  Ga  Ga2       1.0  0.89900  0.25000  0.29700  1.0000
  Ga  Ga3       1.0  0.10100  0.75000  0.70300  1.0000
  Ga  Ga4       1.0  0.60100  0.75000  0.79700  1.0000
  Na  Na1       1.0  0.65100  0.25000  0.05080  1.0000
  Na  Na2       1.0  0.15100  0.25000  0.44900  1.0000
  Na  Na3       1.0  0.84900  0.75000  0.55100  1.0000
  Na  Na4       1.0  0.34900  0.75000  0.94900  1.0000
