data_image0
_chemical_formula_structural       K2O16V6
_chemical_formula_sum              "K2 O16 V6"
_cell_length_a       7.47496
_cell_length_b       8.28529
_cell_length_c       4.9672
_cell_angle_alpha    90
_cell_angle_beta     96.5297
_cell_angle_gamma    90

_space_group_name_H-M_alt    "P 1"
_space_group_IT_number       1

loop_
  _space_group_symop_operation_xyz
  'x, y, z'

loop_
  _atom_site_type_symbol
  _atom_site_label
  _atom_site_symmetry_multiplicity
  _atom_site_fract_x
  _atom_site_fract_y
  _atom_site_fract_z
  _atom_site_occupancy
  K   K1        1.0  0.92300  0.75000  0.04570  1.0000
  K   K2        1.0  0.07660  0.25000  0.95400  1.0000
  O   O1        1.0  0.75400  0.09380  0.11100  1.0000
  O   O2        1.0  0.75400  0.40600  0.11100  1.0000
  O   O3        1.0  0.44000  0.25000  0.14300  1.0000
  O   O4        1.0  0.49300  0.58600  0.31000  1.0000
  O   O5        1.0  0.49300  0.91400  0.31000  1.0000
  O   O6        1.0  0.22500  0.75000  0.40700  1.0000
  O   O7        1.0  0.15800  0.07600  0.42700  1.0000
  O   O8        1.0  0.15800  0.42400  0.42700  1.0000
  O   O9        1.0  0.84200  0.57600  0.57300  1.0000
  O   O10       1.0  0.84200  0.92400  0.57300  1.0000
  O   O11       1.0  0.77500  0.25000  0.59300  1.0000
  O   O12       1.0  0.50700  0.08640  0.69000  1.0000
  O   O13       1.0  0.50700  0.41400  0.69000  1.0000
  O   O14       1.0  0.56000  0.75000  0.85700  1.0000
  O   O15       1.0  0.24600  0.59400  0.88900  1.0000
  O   O16       1.0  0.24600  0.90600  0.88900  1.0000
  V   V1        1.0  0.40600  0.75000  0.06620  1.0000
  V   V2        1.0  0.69300  0.05150  0.44100  1.0000
  V   V3        1.0  0.69300  0.44800  0.44100  1.0000
  V   V4        1.0  0.30700  0.55200  0.55900  1.0000
  V   V5        1.0  0.30700  0.94800  0.55900  1.0000
  V   V6        1.0  0.59400  0.25000  0.93400  1.0000
