data_image0
_chemical_formula_structural       Au4Cs4K8O8
_chemical_formula_sum              "Au4 Cs4 K8 O8"
_cell_length_a       12.5781
_cell_length_b       7.26977
_cell_length_c       6.27843
_cell_angle_alpha    90
_cell_angle_beta     90
_cell_angle_gamma    90

_space_group_name_H-M_alt    "P 1"
_space_group_IT_number       1

loop_
  _space_group_symop_operation_xyz
  'x, y, z'

loop_
  _atom_site_type_symbol
  _atom_site_label
  _atom_site_symmetry_multiplicity
  _atom_site_fract_x
  _atom_site_fract_y
  _atom_site_fract_z
  _atom_site_occupancy
  Au  Au1       1.0  0.12300  0.25000  0.17300  1.0000
  Au  Au2       1.0  0.62300  0.25000  0.32700  1.0000
  Au  Au3       1.0  0.37700  0.75000  0.67300  1.0000
  Au  Au4       1.0  0.87700  0.75000  0.82700  1.0000
  Cs  Cs1       1.0  0.09390  0.75000  0.17800  1.0000
  Cs  Cs2       1.0  0.59400  0.75000  0.32200  1.0000
  Cs  Cs3       1.0  0.40600  0.25000  0.67800  1.0000
  Cs  Cs4       1.0  0.90600  0.25000  0.82200  1.0000
  K   K1        1.0  0.36000  0.50200  0.14000  1.0000
  K   K2        1.0  0.36000  0.99800  0.14000  1.0000
  K   K3        1.0  0.86000  0.50200  0.36000  1.0000
  K   K4        1.0  0.86000  0.99800  0.36000  1.0000
  K   K5        1.0  0.14000  0.00195  0.64000  1.0000
  K   K6        1.0  0.14000  0.49800  0.64000  1.0000
  K   K7        1.0  0.64000  0.00195  0.86000  1.0000
  K   K8        1.0  0.64000  0.49800  0.86000  1.0000
  O   O1        1.0  0.77300  0.75000  0.07370  1.0000
  O   O2        1.0  0.51700  0.25000  0.08220  1.0000
  O   O3        1.0  0.01740  0.25000  0.41800  1.0000
  O   O4        1.0  0.27300  0.75000  0.42600  1.0000
  O   O5        1.0  0.72700  0.25000  0.57400  1.0000
  O   O6        1.0  0.98300  0.75000  0.58200  1.0000
  O   O7        1.0  0.48300  0.75000  0.91800  1.0000
  O   O8        1.0  0.22700  0.25000  0.92600  1.0000
