data_image0
_chemical_formula_structural       Ba8O12Zn4
_chemical_formula_sum              "Ba8 O12 Zn4"
_cell_length_a       5.83815
_cell_length_b       6.41799
_cell_length_c       12.6188
_cell_angle_alpha    91.6045
_cell_angle_beta     93.5295
_cell_angle_gamma    62.9462

_space_group_name_H-M_alt    "P 1"
_space_group_IT_number       1

loop_
  _space_group_symop_operation_xyz
  'x, y, z'

loop_
  _atom_site_type_symbol
  _atom_site_label
  _atom_site_symmetry_multiplicity
  _atom_site_fract_x
  _atom_site_fract_y
  _atom_site_fract_z
  _atom_site_occupancy
  Ba  Ba1       1.0  0.86300  0.79200  0.07510  1.0000
  Ba  Ba2       1.0  0.56100  0.41100  0.15300  1.0000
  Ba  Ba3       1.0  0.02740  0.41100  0.34700  1.0000
  Ba  Ba4       1.0  0.34500  0.79200  0.42500  1.0000
  Ba  Ba5       1.0  0.65500  0.20800  0.57500  1.0000
  Ba  Ba6       1.0  0.97300  0.58900  0.65300  1.0000
  Ba  Ba7       1.0  0.43900  0.58900  0.84700  1.0000
  Ba  Ba8       1.0  0.13700  0.20800  0.92500  1.0000
  O   O1        1.0  0.32700  0.80200  0.03400  1.0000
  O   O2        1.0  0.14500  0.34400  0.13300  1.0000
  O   O3        1.0  0.99600  0.00877  0.25000  1.0000
  O   O4        1.0  0.59600  0.80800  0.25000  1.0000
  O   O5        1.0  0.51100  0.34400  0.36700  1.0000
  O   O6        1.0  0.87100  0.80200  0.46600  1.0000
  O   O7        1.0  0.12900  0.19800  0.53400  1.0000
  O   O8        1.0  0.48900  0.65600  0.63300  1.0000
  O   O9        1.0  0.40400  0.19200  0.75000  1.0000
  O   O10       1.0  0.00438  0.99100  0.75000  1.0000
  O   O11       1.0  0.85500  0.65600  0.86700  1.0000
  O   O12       1.0  0.67300  0.19800  0.96600  1.0000
  Zn  Zn1       1.0  0.26900  0.00505  0.16300  1.0000
  Zn  Zn2       1.0  0.72600  0.00505  0.33700  1.0000
  Zn  Zn3       1.0  0.27400  0.99500  0.66300  1.0000
  Zn  Zn4       1.0  0.73100  0.99500  0.83700  1.0000
