data_image0
_chemical_formula_structural       Na8Se12Te4
_chemical_formula_sum              "Na8 Se12 Te4"
_cell_length_a       5.99297
_cell_length_b       11.2394
_cell_length_c       11.6829
_cell_angle_alpha    108.304
_cell_angle_beta     104.862
_cell_angle_gamma    105.462

_space_group_name_H-M_alt    "P 1"
_space_group_IT_number       1

loop_
  _space_group_symop_operation_xyz
  'x, y, z'

loop_
  _atom_site_type_symbol
  _atom_site_label
  _atom_site_symmetry_multiplicity
  _atom_site_fract_x
  _atom_site_fract_y
  _atom_site_fract_z
  _atom_site_occupancy
  Na  Na1       1.0  0.38200  0.62100  0.12500  1.0000
  Na  Na2       1.0  0.65100  0.04660  0.19100  1.0000
  Na  Na3       1.0  0.91400  0.45300  0.30900  1.0000
  Na  Na4       1.0  0.13700  0.87900  0.37500  1.0000
  Na  Na5       1.0  0.86300  0.12100  0.62500  1.0000
  Na  Na6       1.0  0.08580  0.54700  0.69100  1.0000
  Na  Na7       1.0  0.34900  0.95300  0.80900  1.0000
  Na  Na8       1.0  0.61800  0.37900  0.87500  1.0000
  Se  Se1       1.0  0.66500  0.22300  0.04400  1.0000
  Se  Se2       1.0  0.88500  0.63500  0.11800  1.0000
  Se  Se3       1.0  0.14400  0.02740  0.19500  1.0000
  Se  Se4       1.0  0.42100  0.47300  0.30500  1.0000
  Se  Se5       1.0  0.63200  0.86500  0.38200  1.0000
  Se  Se6       1.0  0.89900  0.27700  0.45600  1.0000
  Se  Se7       1.0  0.10100  0.72300  0.54400  1.0000
  Se  Se8       1.0  0.36800  0.13500  0.61800  1.0000
  Se  Se9       1.0  0.57900  0.52700  0.69500  1.0000
  Se  Se10      1.0  0.85600  0.97300  0.80500  1.0000
  Se  Se11      1.0  0.11500  0.36500  0.88200  1.0000
  Se  Se12      1.0  0.33500  0.77700  0.95600  1.0000
  Te  Te1       1.0  0.95100  0.79500  0.00675  1.0000
  Te  Te2       1.0  0.64900  0.70500  0.49300  1.0000
  Te  Te3       1.0  0.35100  0.29500  0.50700  1.0000
  Te  Te4       1.0  0.04930  0.20500  0.99300  1.0000
