data_image0
_chemical_formula_structural       Cl16Lu4Na4
_chemical_formula_sum              "Cl16 Lu4 Na4"
_cell_length_a       6.19457
_cell_length_b       15.9253
_cell_length_c       6.5705
_cell_angle_alpha    90
_cell_angle_beta     90
_cell_angle_gamma    90

_space_group_name_H-M_alt    "P 1"
_space_group_IT_number       1

loop_
  _space_group_symop_operation_xyz
  'x, y, z'

loop_
  _atom_site_type_symbol
  _atom_site_label
  _atom_site_symmetry_multiplicity
  _atom_site_fract_x
  _atom_site_fract_y
  _atom_site_fract_z
  _atom_site_occupancy
  Cl  Cl1       1.0  0.23400  0.04940  0.07530  1.0000
  Cl  Cl2       1.0  0.26600  0.54900  0.07530  1.0000
  Cl  Cl3       1.0  0.26100  0.31800  0.09730  1.0000
  Cl  Cl4       1.0  0.23900  0.81800  0.09730  1.0000
  Cl  Cl5       1.0  0.73900  0.31800  0.40300  1.0000
  Cl  Cl6       1.0  0.76100  0.81800  0.40300  1.0000
  Cl  Cl7       1.0  0.76600  0.04940  0.42500  1.0000
  Cl  Cl8       1.0  0.73400  0.54900  0.42500  1.0000
  Cl  Cl9       1.0  0.26600  0.45100  0.57500  1.0000
  Cl  Cl10      1.0  0.23400  0.95100  0.57500  1.0000
  Cl  Cl11      1.0  0.23900  0.18200  0.59700  1.0000
  Cl  Cl12      1.0  0.26100  0.68200  0.59700  1.0000
  Cl  Cl13      1.0  0.76100  0.18200  0.90300  1.0000
  Cl  Cl14      1.0  0.73900  0.68200  0.90300  1.0000
  Cl  Cl15      1.0  0.73400  0.45100  0.92500  1.0000
  Cl  Cl16      1.0  0.76600  0.95100  0.92500  1.0000
  Lu  Lu1       1.0  0.50000  0.42800  0.25000  1.0000
  Lu  Lu2       1.0  0.00000  0.92800  0.25000  1.0000
  Lu  Lu3       1.0  0.00000  0.07230  0.75000  1.0000
  Lu  Lu4       1.0  0.50000  0.57200  0.75000  1.0000
  Na  Na1       1.0  0.50000  0.18100  0.25000  1.0000
  Na  Na2       1.0  0.00000  0.68100  0.25000  1.0000
  Na  Na3       1.0  0.00000  0.31900  0.75000  1.0000
  Na  Na4       1.0  0.50000  0.81900  0.75000  1.0000
