data_image0
_chemical_formula_structural       Cu4Eu8S12
_chemical_formula_sum              "Cu4 Eu8 S12"
_cell_length_a       11.0338
_cell_length_b       11.6141
_cell_length_c       3.96634
_cell_angle_alpha    90
_cell_angle_beta     90
_cell_angle_gamma    90

_space_group_name_H-M_alt    "P 1"
_space_group_IT_number       1

loop_
  _space_group_symop_operation_xyz
  'x, y, z'

loop_
  _atom_site_type_symbol
  _atom_site_label
  _atom_site_symmetry_multiplicity
  _atom_site_fract_x
  _atom_site_fract_y
  _atom_site_fract_z
  _atom_site_occupancy
  Cu  Cu1       1.0  0.24600  0.20900  0.25000  1.0000
  Cu  Cu2       1.0  0.74600  0.29100  0.25000  1.0000
  Cu  Cu3       1.0  0.25400  0.70900  0.75000  1.0000
  Cu  Cu4       1.0  0.75400  0.79100  0.75000  1.0000
  Eu  Eu1       1.0  0.82100  0.00681  0.25000  1.0000
  Eu  Eu2       1.0  0.32100  0.49300  0.25000  1.0000
  Eu  Eu3       1.0  0.99000  0.68100  0.25000  1.0000
  Eu  Eu4       1.0  0.49000  0.81900  0.25000  1.0000
  Eu  Eu5       1.0  0.51000  0.18100  0.75000  1.0000
  Eu  Eu6       1.0  0.00957  0.31900  0.75000  1.0000
  Eu  Eu7       1.0  0.67900  0.50700  0.75000  1.0000
  Eu  Eu8       1.0  0.17900  0.99300  0.75000  1.0000
  S   S1        1.0  0.37400  0.05430  0.25000  1.0000
  S   S2        1.0  0.05240  0.13500  0.25000  1.0000
  S   S3        1.0  0.55200  0.36500  0.25000  1.0000
  S   S4        1.0  0.87400  0.44600  0.25000  1.0000
  S   S5        1.0  0.72200  0.69600  0.25000  1.0000
  S   S6        1.0  0.22200  0.80400  0.25000  1.0000
  S   S7        1.0  0.77800  0.19600  0.75000  1.0000
  S   S8        1.0  0.27800  0.30400  0.75000  1.0000
  S   S9        1.0  0.12600  0.55400  0.75000  1.0000
  S   S10       1.0  0.44800  0.63500  0.75000  1.0000
  S   S11       1.0  0.94800  0.86500  0.75000  1.0000
  S   S12       1.0  0.62600  0.94600  0.75000  1.0000
