data_image0
_chemical_formula_structural       Ni8Si4Ta12
_chemical_formula_sum              "Ni8 Si4 Ta12"
_cell_length_a       7.89096
_cell_length_b       7.89096
_cell_length_c       7.89096
_cell_angle_alpha    120
_cell_angle_beta     90
_cell_angle_gamma    120

_space_group_name_H-M_alt    "P 1"
_space_group_IT_number       1

loop_
  _space_group_symop_operation_xyz
  'x, y, z'

loop_
  _atom_site_type_symbol
  _atom_site_label
  _atom_site_symmetry_multiplicity
  _atom_site_fract_x
  _atom_site_fract_y
  _atom_site_fract_z
  _atom_site_occupancy
  Ni  Ni1       1.0  0.58300  0.16600  0.41700  1.0000
  Ni  Ni2       1.0  0.25100  0.83400  0.41700  1.0000
  Ni  Ni3       1.0  0.58300  0.83400  0.41700  1.0000
  Ni  Ni4       1.0  0.16700  0.33400  0.50100  1.0000
  Ni  Ni5       1.0  0.58300  0.16600  0.74900  1.0000
  Ni  Ni6       1.0  0.16700  0.66600  0.83300  1.0000
  Ni  Ni7       1.0  0.16700  0.33400  0.83300  1.0000
  Ni  Ni8       1.0  0.49900  0.66600  0.83300  1.0000
  Si  Si1       1.0  0.37500  0.75000  0.12500  1.0000
  Si  Si2       1.0  0.87500  0.25000  0.62500  1.0000
  Si  Si3       1.0  0.37500  0.75000  0.62500  1.0000
  Si  Si4       1.0  0.37500  0.25000  0.62500  1.0000
  Ta  Ta1       1.0  0.54900  0.09750  0.04870  1.0000
  Ta  Ta2       1.0  0.54900  0.50000  0.04870  1.0000
  Ta  Ta3       1.0  0.95100  0.50000  0.04870  1.0000
  Ta  Ta4       1.0  0.20100  0.00000  0.20100  1.0000
  Ta  Ta5       1.0  0.79900  0.00000  0.20100  1.0000
  Ta  Ta6       1.0  0.20100  0.40300  0.20100  1.0000
  Ta  Ta7       1.0  0.95100  0.50000  0.45100  1.0000
  Ta  Ta8       1.0  0.95100  0.90300  0.45100  1.0000
  Ta  Ta9       1.0  0.54900  0.50000  0.45100  1.0000
  Ta  Ta10      1.0  0.20100  0.00000  0.79900  1.0000
  Ta  Ta11      1.0  0.79900  0.00000  0.79900  1.0000
  Ta  Ta12      1.0  0.79900  0.59700  0.79900  1.0000
