data_image0
_chemical_formula_structural       Na2O16Ta6
_chemical_formula_sum              "Na2 O16 Ta6"
_cell_length_a       7.00954
_cell_length_b       7.23528
_cell_length_c       7.25828
_cell_angle_alpha    119.895
_cell_angle_beta     118.873
_cell_angle_gamma    90

_space_group_name_H-M_alt    "P 1"
_space_group_IT_number       1

loop_
  _space_group_symop_operation_xyz
  'x, y, z'

loop_
  _atom_site_type_symbol
  _atom_site_label
  _atom_site_symmetry_multiplicity
  _atom_site_fract_x
  _atom_site_fract_y
  _atom_site_fract_z
  _atom_site_occupancy
  Na  Na1       1.0  0.25000  0.00000  0.00000  1.0000
  Na  Na2       1.0  0.75000  0.00000  0.00000  1.0000
  O   O1        1.0  0.06690  0.44800  0.13400  1.0000
  O   O2        1.0  0.56700  0.68600  0.13400  1.0000
  O   O3        1.0  0.43800  0.44900  0.28600  1.0000
  O   O4        1.0  0.84800  0.44900  0.28600  1.0000
  O   O5        1.0  0.34800  0.83700  0.28600  1.0000
  O   O6        1.0  0.93800  0.83700  0.28600  1.0000
  O   O7        1.0  0.67200  0.16300  0.34400  1.0000
  O   O8        1.0  0.17200  0.18100  0.34400  1.0000
  O   O9        1.0  0.82800  0.81900  0.65600  1.0000
  O   O10       1.0  0.32800  0.83700  0.65600  1.0000
  O   O11       1.0  0.06240  0.16300  0.71400  1.0000
  O   O12       1.0  0.65200  0.16300  0.71400  1.0000
  O   O13       1.0  0.15200  0.55100  0.71400  1.0000
  O   O14       1.0  0.56200  0.55100  0.71400  1.0000
  O   O15       1.0  0.43300  0.31400  0.86600  1.0000
  O   O16       1.0  0.93300  0.55200  0.86600  1.0000
  Ta  Ta1       1.0  0.25000  0.50000  0.00000  1.0000
  Ta  Ta2       1.0  0.75000  0.50000  0.00000  1.0000
  Ta  Ta3       1.0  0.23600  0.49800  0.47200  1.0000
  Ta  Ta4       1.0  0.73600  0.97300  0.47200  1.0000
  Ta  Ta5       1.0  0.26400  0.02670  0.52800  1.0000
  Ta  Ta6       1.0  0.76400  0.50200  0.52800  1.0000
