data_image0
_chemical_formula_structural       B6K6S12
_chemical_formula_sum              "B6 K6 S12"
_cell_length_a       8.60498
_cell_length_b       9.51245
_cell_length_c       9.51245
_cell_angle_alpha    111.322
_cell_angle_beta     107.55
_cell_angle_gamma    107.55

_space_group_name_H-M_alt    "P 1"
_space_group_IT_number       1

loop_
  _space_group_symop_operation_xyz
  'x, y, z'

loop_
  _atom_site_type_symbol
  _atom_site_label
  _atom_site_symmetry_multiplicity
  _atom_site_fract_x
  _atom_site_fract_y
  _atom_site_fract_z
  _atom_site_occupancy
  B   B1        1.0  0.75000  0.88500  0.11500  1.0000
  B   B2        1.0  0.86500  0.22900  0.11500  1.0000
  B   B3        1.0  0.36500  0.11500  0.22900  1.0000
  B   B4        1.0  0.63500  0.88500  0.77100  1.0000
  B   B5        1.0  0.13500  0.77100  0.88500  1.0000
  B   B6        1.0  0.25000  0.11500  0.88500  1.0000
  K   K1        1.0  0.29900  0.54900  0.09830  1.0000
  K   K2        1.0  0.20100  0.90200  0.45100  1.0000
  K   K3        1.0  0.75000  0.54900  0.45100  1.0000
  K   K4        1.0  0.79900  0.09830  0.54900  1.0000
  K   K5        1.0  0.25000  0.45100  0.54900  1.0000
  K   K6        1.0  0.70100  0.45100  0.90200  1.0000
  S   S1        1.0  0.36900  0.23800  0.11900  1.0000
  S   S2        1.0  0.25000  0.88100  0.11900  1.0000
  S   S3        1.0  0.75000  0.77200  0.22800  1.0000
  S   S4        1.0  0.97800  0.45500  0.22800  1.0000
  S   S5        1.0  0.86900  0.11900  0.23800  1.0000
  S   S6        1.0  0.47800  0.22800  0.45500  1.0000
  S   S7        1.0  0.52200  0.77200  0.54500  1.0000
  S   S8        1.0  0.13100  0.88100  0.76200  1.0000
  S   S9        1.0  0.02250  0.54500  0.77200  1.0000
  S   S10       1.0  0.25000  0.22800  0.77200  1.0000
  S   S11       1.0  0.75000  0.11900  0.88100  1.0000
  S   S12       1.0  0.63100  0.76200  0.88100  1.0000
