data_image0
_chemical_formula_structural       O16Tl2V6
_chemical_formula_sum              "O16 Tl2 V6"
_cell_length_a       4.98255
_cell_length_b       7.62264
_cell_length_c       8.3401
_cell_angle_alpha    90
_cell_angle_beta     90
_cell_angle_gamma    96.5168

_space_group_name_H-M_alt    "P 1"
_space_group_IT_number       1

loop_
  _space_group_symop_operation_xyz
  'x, y, z'

loop_
  _atom_site_type_symbol
  _atom_site_label
  _atom_site_symmetry_multiplicity
  _atom_site_fract_x
  _atom_site_fract_y
  _atom_site_fract_z
  _atom_site_occupancy
  O   O1        1.0  0.92700  0.16200  0.07200  1.0000
  O   O2        1.0  0.18900  0.50600  0.08680  1.0000
  O   O3        1.0  0.61200  0.74800  0.09510  1.0000
  O   O4        1.0  0.64200  0.44000  0.25000  1.0000
  O   O5        1.0  0.09060  0.76800  0.25000  1.0000
  O   O6        1.0  0.61200  0.74800  0.40500  1.0000
  O   O7        1.0  0.18900  0.50600  0.41300  1.0000
  O   O8        1.0  0.92700  0.16200  0.42800  1.0000
  O   O9        1.0  0.07350  0.83800  0.57200  1.0000
  O   O10       1.0  0.81100  0.49400  0.58700  1.0000
  O   O11       1.0  0.38800  0.25200  0.59500  1.0000
  O   O12       1.0  0.90900  0.23200  0.75000  1.0000
  O   O13       1.0  0.35800  0.56000  0.75000  1.0000
  O   O14       1.0  0.38800  0.25200  0.90500  1.0000
  O   O15       1.0  0.81100  0.49400  0.91300  1.0000
  O   O16       1.0  0.07350  0.83800  0.92800  1.0000
  Tl  Tl1       1.0  0.46200  0.07170  0.25000  1.0000
  Tl  Tl2       1.0  0.53800  0.92800  0.75000  1.0000
  V   V1        1.0  0.94000  0.68800  0.05190  1.0000
  V   V2        1.0  0.43300  0.59000  0.25000  1.0000
  V   V3        1.0  0.94000  0.68800  0.44800  1.0000
  V   V4        1.0  0.05950  0.31200  0.55200  1.0000
  V   V5        1.0  0.56700  0.41000  0.75000  1.0000
  V   V6        1.0  0.05950  0.31200  0.94800  1.0000
