data_image0
_chemical_formula_structural       Ba8Cd4S12
_chemical_formula_sum              "Ba8 Cd4 S12"
_cell_length_a       9.01575
_cell_length_b       4.37889
_cell_length_c       17.404
_cell_angle_alpha    90
_cell_angle_beta     90
_cell_angle_gamma    90

_space_group_name_H-M_alt    "P 1"
_space_group_IT_number       1

loop_
  _space_group_symop_operation_xyz
  'x, y, z'

loop_
  _atom_site_type_symbol
  _atom_site_label
  _atom_site_symmetry_multiplicity
  _atom_site_fract_x
  _atom_site_fract_y
  _atom_site_fract_z
  _atom_site_occupancy
  Ba  Ba1       1.0  0.76600  0.25000  0.04230  1.0000
  Ba  Ba2       1.0  0.07970  0.75000  0.21500  1.0000
  Ba  Ba3       1.0  0.58000  0.75000  0.28500  1.0000
  Ba  Ba4       1.0  0.26600  0.25000  0.45800  1.0000
  Ba  Ba5       1.0  0.73400  0.75000  0.54200  1.0000
  Ba  Ba6       1.0  0.42000  0.25000  0.71500  1.0000
  Ba  Ba7       1.0  0.92000  0.25000  0.78500  1.0000
  Ba  Ba8       1.0  0.23400  0.75000  0.95800  1.0000
  Cd  Cd1       1.0  0.37900  0.25000  0.13100  1.0000
  Cd  Cd2       1.0  0.87900  0.25000  0.36900  1.0000
  Cd  Cd3       1.0  0.12100  0.75000  0.63100  1.0000
  Cd  Cd4       1.0  0.62100  0.75000  0.86900  1.0000
  S   S1        1.0  0.12100  0.25000  0.07200  1.0000
  S   S2        1.0  0.51700  0.75000  0.09600  1.0000
  S   S3        1.0  0.81800  0.25000  0.22500  1.0000
  S   S4        1.0  0.31800  0.25000  0.27500  1.0000
  S   S5        1.0  0.01690  0.75000  0.40400  1.0000
  S   S6        1.0  0.62100  0.25000  0.42800  1.0000
  S   S7        1.0  0.37900  0.75000  0.57200  1.0000
  S   S8        1.0  0.98300  0.25000  0.59600  1.0000
  S   S9        1.0  0.68200  0.75000  0.72500  1.0000
  S   S10       1.0  0.18200  0.75000  0.77500  1.0000
  S   S11       1.0  0.48300  0.25000  0.90400  1.0000
  S   S12       1.0  0.87900  0.75000  0.92800  1.0000
