data_image0
_chemical_formula_structural       B4Ba4Cl2Ho2O12
_chemical_formula_sum              "B4 Ba4 Cl2 Ho2 O12"
_cell_length_a       6.40931
_cell_length_b       5.30055
_cell_length_c       11.2556
_cell_angle_alpha    90
_cell_angle_beta     96.494
_cell_angle_gamma    90

_space_group_name_H-M_alt    "P 1"
_space_group_IT_number       1

loop_
  _space_group_symop_operation_xyz
  'x, y, z'

loop_
  _atom_site_type_symbol
  _atom_site_label
  _atom_site_symmetry_multiplicity
  _atom_site_fract_x
  _atom_site_fract_y
  _atom_site_fract_z
  _atom_site_occupancy
  B   B1        1.0  0.37700  0.75000  0.22600  1.0000
  B   B2        1.0  0.79000  0.25000  0.42700  1.0000
  B   B3        1.0  0.21000  0.75000  0.57300  1.0000
  B   B4        1.0  0.62300  0.25000  0.77400  1.0000
  Ba  Ba1       1.0  0.34100  0.25000  0.07380  1.0000
  Ba  Ba2       1.0  0.90800  0.75000  0.29300  1.0000
  Ba  Ba3       1.0  0.09220  0.25000  0.70700  1.0000
  Ba  Ba4       1.0  0.65900  0.75000  0.92600  1.0000
  Cl  Cl1       1.0  0.85100  0.25000  0.08530  1.0000
  Cl  Cl2       1.0  0.14900  0.75000  0.91500  1.0000
  Ho  Ho1       1.0  0.34800  0.25000  0.41300  1.0000
  Ho  Ho2       1.0  0.65200  0.75000  0.58700  1.0000
  O   O1        1.0  0.52600  0.75000  0.14700  1.0000
  O   O2        1.0  0.29100  0.52700  0.26300  1.0000
  O   O3        1.0  0.29100  0.97300  0.26300  1.0000
  O   O4        1.0  0.99400  0.25000  0.40500  1.0000
  O   O5        1.0  0.67500  0.02930  0.43500  1.0000
  O   O6        1.0  0.67500  0.47100  0.43500  1.0000
  O   O7        1.0  0.32500  0.52900  0.56500  1.0000
  O   O8        1.0  0.32500  0.97100  0.56500  1.0000
  O   O9        1.0  0.00598  0.75000  0.59500  1.0000
  O   O10       1.0  0.70900  0.02690  0.73700  1.0000
  O   O11       1.0  0.70900  0.47300  0.73700  1.0000
  O   O12       1.0  0.47400  0.25000  0.85300  1.0000
