data_image0
_chemical_formula_structural       Cu4Na4Se12Zr4
_chemical_formula_sum              "Cu4 Na4 Se12 Zr4"
_cell_length_a       13.5621
_cell_length_b       3.85584
_cell_length_c       10.3323
_cell_angle_alpha    90
_cell_angle_beta     90
_cell_angle_gamma    90

_space_group_name_H-M_alt    "P 1"
_space_group_IT_number       1

loop_
  _space_group_symop_operation_xyz
  'x, y, z'

loop_
  _atom_site_type_symbol
  _atom_site_label
  _atom_site_symmetry_multiplicity
  _atom_site_fract_x
  _atom_site_fract_y
  _atom_site_fract_z
  _atom_site_occupancy
  Cu  Cu1       1.0  0.00869  0.75000  0.09240  1.0000
  Cu  Cu2       1.0  0.50900  0.75000  0.40800  1.0000
  Cu  Cu3       1.0  0.49100  0.25000  0.59200  1.0000
  Cu  Cu4       1.0  0.99100  0.25000  0.90800  1.0000
  Na  Na1       1.0  0.22800  0.25000  0.04290  1.0000
  Na  Na2       1.0  0.72800  0.25000  0.45700  1.0000
  Na  Na3       1.0  0.27200  0.75000  0.54300  1.0000
  Na  Na4       1.0  0.77200  0.75000  0.95700  1.0000
  Se  Se1       1.0  0.39600  0.75000  0.06520  1.0000
  Se  Se2       1.0  0.89500  0.25000  0.11800  1.0000
  Se  Se3       1.0  0.64100  0.75000  0.24700  1.0000
  Se  Se4       1.0  0.14100  0.75000  0.25300  1.0000
  Se  Se5       1.0  0.39500  0.25000  0.38200  1.0000
  Se  Se6       1.0  0.89600  0.75000  0.43500  1.0000
  Se  Se7       1.0  0.10400  0.25000  0.56500  1.0000
  Se  Se8       1.0  0.60500  0.75000  0.61800  1.0000
  Se  Se9       1.0  0.85900  0.25000  0.74700  1.0000
  Se  Se10      1.0  0.35900  0.25000  0.75300  1.0000
  Se  Se11      1.0  0.10500  0.75000  0.88200  1.0000
  Se  Se12      1.0  0.60400  0.25000  0.93500  1.0000
  Zr  Zr1       1.0  0.51100  0.25000  0.17800  1.0000
  Zr  Zr2       1.0  0.01140  0.25000  0.32200  1.0000
  Zr  Zr3       1.0  0.98900  0.75000  0.67800  1.0000
  Zr  Zr4       1.0  0.48900  0.75000  0.82200  1.0000
