data_image0
_chemical_formula_structural       CuErO8W2
_chemical_formula_sum              "Cu1 Er1 O8 W2"
_cell_length_a       5.88023
_cell_length_b       6.05786
_cell_length_c       5.00865
_cell_angle_alpha    113.583
_cell_angle_beta     92.3431
_cell_angle_gamma    110.876

_space_group_name_H-M_alt    "P 1"
_space_group_IT_number       1

loop_
  _space_group_symop_operation_xyz
  'x, y, z'

loop_
  _atom_site_type_symbol
  _atom_site_label
  _atom_site_symmetry_multiplicity
  _atom_site_fract_x
  _atom_site_fract_y
  _atom_site_fract_z
  _atom_site_occupancy
  Cu  Cu1       1.0  0.21000  0.09600  0.13500  1.0000
  Er  Er1       1.0  0.72600  0.10000  0.66100  1.0000
  O   O1        1.0  0.19500  0.36900  0.05950  1.0000
  O   O2        1.0  0.73700  0.35400  0.13100  1.0000
  O   O3        1.0  0.64100  0.83300  0.16400  1.0000
  O   O4        1.0  0.17200  0.79100  0.16500  1.0000
  O   O5        1.0  0.03360  0.38800  0.57800  1.0000
  O   O6        1.0  0.50200  0.34300  0.64300  1.0000
  O   O7        1.0  0.92300  0.84000  0.64500  1.0000
  O   O8        1.0  0.38300  0.78100  0.65900  1.0000
  W   W1        1.0  0.02510  0.61100  0.38300  1.0000
  W   W2        1.0  0.38100  0.57000  0.87200  1.0000
