data_image0
_chemical_formula_structural       Fe4K12O8
_chemical_formula_sum              "Fe4 K12 O8"
_cell_length_a       6.08507
_cell_length_b       6.08507
_cell_length_c       14.0165
_cell_angle_alpha    90
_cell_angle_beta     90
_cell_angle_gamma    90

_space_group_name_H-M_alt    "P 1"
_space_group_IT_number       1

loop_
  _space_group_symop_operation_xyz
  'x, y, z'

loop_
  _atom_site_type_symbol
  _atom_site_label
  _atom_site_symmetry_multiplicity
  _atom_site_fract_x
  _atom_site_fract_y
  _atom_site_fract_z
  _atom_site_occupancy
  Fe  Fe1       1.0  0.50500  0.50500  0.00000  1.0000
  Fe  Fe2       1.0  0.99500  0.00501  0.25000  1.0000
  Fe  Fe3       1.0  0.49500  0.49500  0.50000  1.0000
  Fe  Fe4       1.0  0.00501  0.99500  0.75000  1.0000
  K   K1        1.0  0.05170  0.05170  0.00000  1.0000
  K   K2        1.0  0.52100  0.02220  0.12500  1.0000
  K   K3        1.0  0.97900  0.52200  0.12500  1.0000
  K   K4        1.0  0.44800  0.55200  0.25000  1.0000
  K   K5        1.0  0.47800  0.02050  0.37500  1.0000
  K   K6        1.0  0.97800  0.47900  0.37500  1.0000
  K   K7        1.0  0.94800  0.94800  0.50000  1.0000
  K   K8        1.0  0.47900  0.97800  0.62500  1.0000
  K   K9        1.0  0.02050  0.47800  0.62500  1.0000
  K   K10       1.0  0.55200  0.44800  0.75000  1.0000
  K   K11       1.0  0.52200  0.97900  0.87500  1.0000
  K   K12       1.0  0.02220  0.52100  0.87500  1.0000
  O   O1        1.0  0.29700  0.71500  0.01190  1.0000
  O   O2        1.0  0.20300  0.21500  0.23800  1.0000
  O   O3        1.0  0.78500  0.79700  0.26200  1.0000
  O   O4        1.0  0.28500  0.70300  0.48800  1.0000
  O   O5        1.0  0.70300  0.28500  0.51200  1.0000
  O   O6        1.0  0.79700  0.78500  0.73800  1.0000
  O   O7        1.0  0.21500  0.20300  0.76200  1.0000
  O   O8        1.0  0.71500  0.29700  0.98800  1.0000
