data_image0
_chemical_formula_structural       Cl20Nb4
_chemical_formula_sum              "Cl20 Nb4"
_cell_length_a       7.86541
_cell_length_b       10.2949
_cell_length_c       8.15086
_cell_angle_alpha    90
_cell_angle_beta     90.5832
_cell_angle_gamma    90

_space_group_name_H-M_alt    "P 1"
_space_group_IT_number       1

loop_
  _space_group_symop_operation_xyz
  'x, y, z'

loop_
  _atom_site_type_symbol
  _atom_site_label
  _atom_site_symmetry_multiplicity
  _atom_site_fract_x
  _atom_site_fract_y
  _atom_site_fract_z
  _atom_site_occupancy
  Cl  Cl1       1.0  0.67200  0.61700  0.06280  1.0000
  Cl  Cl2       1.0  0.63400  0.12400  0.06980  1.0000
  Cl  Cl3       1.0  0.95500  0.86000  0.12900  1.0000
  Cl  Cl4       1.0  0.96100  0.39000  0.13900  1.0000
  Cl  Cl5       1.0  0.23600  0.62400  0.22600  1.0000
  Cl  Cl6       1.0  0.26400  0.12400  0.27400  1.0000
  Cl  Cl7       1.0  0.53900  0.89000  0.36100  1.0000
  Cl  Cl8       1.0  0.54500  0.36000  0.37100  1.0000
  Cl  Cl9       1.0  0.86600  0.62400  0.43000  1.0000
  Cl  Cl10      1.0  0.82800  0.11700  0.43700  1.0000
  Cl  Cl11      1.0  0.17200  0.88300  0.56300  1.0000
  Cl  Cl12      1.0  0.13400  0.37600  0.57000  1.0000
  Cl  Cl13      1.0  0.45500  0.64000  0.62900  1.0000
  Cl  Cl14      1.0  0.46100  0.11000  0.63900  1.0000
  Cl  Cl15      1.0  0.73600  0.87600  0.72600  1.0000
  Cl  Cl16      1.0  0.76400  0.37600  0.77400  1.0000
  Cl  Cl17      1.0  0.03870  0.61000  0.86100  1.0000
  Cl  Cl18      1.0  0.04500  0.14000  0.87100  1.0000
  Cl  Cl19      1.0  0.36600  0.87600  0.93000  1.0000
  Cl  Cl20      1.0  0.32800  0.38300  0.93700  1.0000
  Nb  Nb1       1.0  0.94700  0.64000  0.16400  1.0000
  Nb  Nb2       1.0  0.55300  0.14000  0.33600  1.0000
  Nb  Nb3       1.0  0.44700  0.86000  0.66400  1.0000
  Nb  Nb4       1.0  0.05290  0.36000  0.83600  1.0000
