data_image0
_chemical_formula_structural       Cs4Cu4Se16
_chemical_formula_sum              "Cs4 Cu4 Se16"
_cell_length_a       5.57802
_cell_length_b       9.13624
_cell_length_c       14.2933
_cell_angle_alpha    90
_cell_angle_beta     90
_cell_angle_gamma    90

_space_group_name_H-M_alt    "P 1"
_space_group_IT_number       1

loop_
  _space_group_symop_operation_xyz
  'x, y, z'

loop_
  _atom_site_type_symbol
  _atom_site_label
  _atom_site_symmetry_multiplicity
  _atom_site_fract_x
  _atom_site_fract_y
  _atom_site_fract_z
  _atom_site_occupancy
  Cs  Cs1       1.0  0.67900  0.93800  0.17000  1.0000
  Cs  Cs2       1.0  0.32100  0.43800  0.33000  1.0000
  Cs  Cs3       1.0  0.82100  0.06150  0.67000  1.0000
  Cs  Cs4       1.0  0.17900  0.56200  0.83000  1.0000
  Cu  Cu1       1.0  0.46300  0.36400  0.06110  1.0000
  Cu  Cu2       1.0  0.53700  0.86400  0.43900  1.0000
  Cu  Cu3       1.0  0.03680  0.63600  0.56100  1.0000
  Cu  Cu4       1.0  0.96300  0.13600  0.93900  1.0000
  Se  Se1       1.0  0.91400  0.58400  0.06340  1.0000
  Se  Se2       1.0  0.33400  0.61400  0.09110  1.0000
  Se  Se3       1.0  0.13400  0.19900  0.09280  1.0000
  Se  Se4       1.0  0.83600  0.36600  0.15600  1.0000
  Se  Se5       1.0  0.16400  0.86600  0.34400  1.0000
  Se  Se6       1.0  0.86600  0.69900  0.40700  1.0000
  Se  Se7       1.0  0.66600  0.11400  0.40900  1.0000
  Se  Se8       1.0  0.08600  0.08440  0.43700  1.0000
  Se  Se9       1.0  0.58600  0.41600  0.56300  1.0000
  Se  Se10      1.0  0.16600  0.38600  0.59100  1.0000
  Se  Se11      1.0  0.36600  0.80100  0.59300  1.0000
  Se  Se12      1.0  0.66400  0.63400  0.65600  1.0000
  Se  Se13      1.0  0.33600  0.13400  0.84400  1.0000
  Se  Se14      1.0  0.63400  0.30100  0.90700  1.0000
  Se  Se15      1.0  0.83400  0.88600  0.90900  1.0000
  Se  Se16      1.0  0.41400  0.91600  0.93700  1.0000
