data_image0
_chemical_formula_structural       Cu2Lu2O16W4
_chemical_formula_sum              "Cu2 Lu2 O16 W4"
_cell_length_a       9.81788
_cell_length_b       5.79135
_cell_length_c       4.98697
_cell_angle_alpha    90
_cell_angle_beta     92.7595
_cell_angle_gamma    90

_space_group_name_H-M_alt    "P 1"
_space_group_IT_number       1

loop_
  _space_group_symop_operation_xyz
  'x, y, z'

loop_
  _atom_site_type_symbol
  _atom_site_label
  _atom_site_symmetry_multiplicity
  _atom_site_fract_x
  _atom_site_fract_y
  _atom_site_fract_z
  _atom_site_occupancy
  Cu  Cu1       1.0  0.75000  0.70700  0.25000  1.0000
  Cu  Cu2       1.0  0.25000  0.29300  0.75000  1.0000
  Lu  Lu1       1.0  0.25000  0.68600  0.25000  1.0000
  Lu  Lu2       1.0  0.75000  0.31400  0.75000  1.0000
  O   O1        1.0  0.88500  0.91200  0.04220  1.0000
  O   O2        1.0  0.40300  0.88800  0.05940  1.0000
  O   O3        1.0  0.36400  0.37800  0.09450  1.0000
  O   O4        1.0  0.88600  0.37400  0.10000  1.0000
  O   O5        1.0  0.61400  0.37400  0.40000  1.0000
  O   O6        1.0  0.13600  0.37800  0.40500  1.0000
  O   O7        1.0  0.09750  0.88800  0.44100  1.0000
  O   O8        1.0  0.61500  0.91200  0.45800  1.0000
  O   O9        1.0  0.38500  0.08850  0.54200  1.0000
  O   O10       1.0  0.90300  0.11200  0.55900  1.0000
  O   O11       1.0  0.86400  0.62200  0.59500  1.0000
  O   O12       1.0  0.38600  0.62600  0.60000  1.0000
  O   O13       1.0  0.11400  0.62600  0.90000  1.0000
  O   O14       1.0  0.63600  0.62200  0.90500  1.0000
  O   O15       1.0  0.59700  0.11200  0.94100  1.0000
  O   O16       1.0  0.11500  0.08850  0.95800  1.0000
  W   W1        1.0  0.01330  0.18100  0.24900  1.0000
  W   W2        1.0  0.48700  0.18100  0.25100  1.0000
  W   W3        1.0  0.51300  0.81900  0.74900  1.0000
  W   W4        1.0  0.98700  0.81900  0.75100  1.0000
