data_image0
_chemical_formula_structural       Cu2O16Tm2W4
_chemical_formula_sum              "Cu2 O16 Tm2 W4"
_cell_length_a       9.9018
_cell_length_b       5.79079
_cell_length_c       4.99656
_cell_angle_alpha    90
_cell_angle_beta     93.434
_cell_angle_gamma    90

_space_group_name_H-M_alt    "P 1"
_space_group_IT_number       1

loop_
  _space_group_symop_operation_xyz
  'x, y, z'

loop_
  _atom_site_type_symbol
  _atom_site_label
  _atom_site_symmetry_multiplicity
  _atom_site_fract_x
  _atom_site_fract_y
  _atom_site_fract_z
  _atom_site_occupancy
  Cu  Cu1       1.0  0.75000  0.71300  0.25000  1.0000
  Cu  Cu2       1.0  0.25000  0.28700  0.75000  1.0000
  O   O1        1.0  0.88400  0.91600  0.03710  1.0000
  O   O2        1.0  0.40500  0.88700  0.05640  1.0000
  O   O3        1.0  0.36200  0.37600  0.09250  1.0000
  O   O4        1.0  0.88900  0.37700  0.10100  1.0000
  O   O5        1.0  0.61100  0.37700  0.39900  1.0000
  O   O6        1.0  0.13800  0.37600  0.40800  1.0000
  O   O7        1.0  0.09540  0.88700  0.44400  1.0000
  O   O8        1.0  0.61600  0.91600  0.46300  1.0000
  O   O9        1.0  0.38400  0.08390  0.53700  1.0000
  O   O10       1.0  0.90500  0.11300  0.55600  1.0000
  O   O11       1.0  0.86200  0.62400  0.59200  1.0000
  O   O12       1.0  0.38900  0.62300  0.60100  1.0000
  O   O13       1.0  0.11100  0.62300  0.89900  1.0000
  O   O14       1.0  0.63800  0.62400  0.90800  1.0000
  O   O15       1.0  0.59500  0.11300  0.94400  1.0000
  O   O16       1.0  0.11600  0.08390  0.96300  1.0000
  Tm  Tm1       1.0  0.25000  0.69200  0.25000  1.0000
  Tm  Tm2       1.0  0.75000  0.30800  0.75000  1.0000
  W   W1        1.0  0.01440  0.18100  0.24900  1.0000
  W   W2        1.0  0.48600  0.18100  0.25100  1.0000
  W   W3        1.0  0.51400  0.81900  0.74900  1.0000
  W   W4        1.0  0.98600  0.81900  0.75100  1.0000
