data_image0
_chemical_formula_structural       Cu2Li4O14P4
_chemical_formula_sum              "Cu2 Li4 O14 P4"
_cell_length_a       4.82878
_cell_length_b       8.00766
_cell_length_c       8.49535
_cell_angle_alpha    113.057
_cell_angle_beta     90
_cell_angle_gamma    107.548

_space_group_name_H-M_alt    "P 1"
_space_group_IT_number       1

loop_
  _space_group_symop_operation_xyz
  'x, y, z'

loop_
  _atom_site_type_symbol
  _atom_site_label
  _atom_site_symmetry_multiplicity
  _atom_site_fract_x
  _atom_site_fract_y
  _atom_site_fract_z
  _atom_site_occupancy
  Cu  Cu1       1.0  0.50000  0.50000  0.00000  1.0000
  Cu  Cu2       1.0  0.50000  0.50000  0.50000  1.0000
  Li  Li1       1.0  0.55400  0.87700  0.05410  1.0000
  Li  Li2       1.0  0.17600  0.12300  0.44600  1.0000
  Li  Li3       1.0  0.82400  0.87700  0.55400  1.0000
  Li  Li4       1.0  0.44600  0.12300  0.94600  1.0000
  O   O1        1.0  0.22600  0.29600  0.04690  1.0000
  O   O2        1.0  0.72900  0.14100  0.11800  1.0000
  O   O3        1.0  0.37500  0.70400  0.15600  1.0000
  O   O4        1.0  0.95500  0.50000  0.25000  1.0000
  O   O5        1.0  0.17100  0.29600  0.34400  1.0000
  O   O6        1.0  0.08840  0.85900  0.38200  1.0000
  O   O7        1.0  0.43000  0.70400  0.45300  1.0000
  O   O8        1.0  0.57000  0.29600  0.54700  1.0000
  O   O9        1.0  0.91200  0.14100  0.61800  1.0000
  O   O10       1.0  0.82900  0.70400  0.65600  1.0000
  O   O11       1.0  0.04520  0.50000  0.75000  1.0000
  O   O12       1.0  0.62500  0.29600  0.84400  1.0000
  O   O13       1.0  0.27100  0.85900  0.88200  1.0000
  O   O14       1.0  0.77400  0.70400  0.95300  1.0000
  P   P1        1.0  0.02060  0.29700  0.18500  1.0000
  P   P2        1.0  0.22400  0.70300  0.31500  1.0000
  P   P3        1.0  0.77600  0.29700  0.68500  1.0000
  P   P4        1.0  0.97900  0.70300  0.81500  1.0000
