data_image0
_chemical_formula_structural       Ba4Cl2F14Zn4
_chemical_formula_sum              "Ba4 Cl2 F14 Zn4"
_cell_length_a       7.58183
_cell_length_b       5.76022
_cell_length_c       8.82524
_cell_angle_alpha    90
_cell_angle_beta     106.845
_cell_angle_gamma    90

_space_group_name_H-M_alt    "P 1"
_space_group_IT_number       1

loop_
  _space_group_symop_operation_xyz
  'x, y, z'

loop_
  _atom_site_type_symbol
  _atom_site_label
  _atom_site_symmetry_multiplicity
  _atom_site_fract_x
  _atom_site_fract_y
  _atom_site_fract_z
  _atom_site_occupancy
  Ba  Ba1       1.0  0.29500  0.25000  0.07220  1.0000
  Ba  Ba2       1.0  0.67300  0.75000  0.41300  1.0000
  Ba  Ba3       1.0  0.32700  0.25000  0.58700  1.0000
  Ba  Ba4       1.0  0.70500  0.75000  0.92800  1.0000
  Cl  Cl1       1.0  0.88300  0.25000  0.47000  1.0000
  Cl  Cl2       1.0  0.11700  0.75000  0.53000  1.0000
  F   F1        1.0  0.26000  0.75000  0.06820  1.0000
  F   F2        1.0  0.62300  0.00410  0.15900  1.0000
  F   F3        1.0  0.62300  0.49600  0.15900  1.0000
  F   F4        1.0  0.99500  0.50100  0.16900  1.0000
  F   F5        1.0  0.99500  0.99900  0.16900  1.0000
  F   F6        1.0  0.36600  0.00302  0.34800  1.0000
  F   F7        1.0  0.36600  0.49700  0.34800  1.0000
  F   F8        1.0  0.63400  0.50300  0.65200  1.0000
  F   F9        1.0  0.63400  0.99700  0.65200  1.0000
  F   F10       1.0  0.00491  0.00147  0.83100  1.0000
  F   F11       1.0  0.00491  0.49900  0.83100  1.0000
  F   F12       1.0  0.37700  0.50400  0.84100  1.0000
  F   F13       1.0  0.37700  0.99600  0.84100  1.0000
  F   F14       1.0  0.74000  0.25000  0.93200  1.0000
  Zn  Zn1       1.0  0.81300  0.25000  0.17600  1.0000
  Zn  Zn2       1.0  0.17700  0.75000  0.27000  1.0000
  Zn  Zn3       1.0  0.82300  0.25000  0.73000  1.0000
  Zn  Zn4       1.0  0.18700  0.75000  0.82400  1.0000
