data_image0
_chemical_formula_structural       Br4O16Tl4
_chemical_formula_sum              "Br4 O16 Tl4"
_cell_length_a       9.05168
_cell_length_b       6.00232
_cell_length_c       7.54469
_cell_angle_alpha    90
_cell_angle_beta     90
_cell_angle_gamma    90

_space_group_name_H-M_alt    "P 1"
_space_group_IT_number       1

loop_
  _space_group_symop_operation_xyz
  'x, y, z'

loop_
  _atom_site_type_symbol
  _atom_site_label
  _atom_site_symmetry_multiplicity
  _atom_site_fract_x
  _atom_site_fract_y
  _atom_site_fract_z
  _atom_site_occupancy
  Br  Br1       1.0  0.42500  0.75000  0.18500  1.0000
  Br  Br2       1.0  0.92500  0.75000  0.31500  1.0000
  Br  Br3       1.0  0.07460  0.25000  0.68500  1.0000
  Br  Br4       1.0  0.57500  0.25000  0.81500  1.0000
  O   O1        1.0  0.28100  0.75000  0.05170  1.0000
  O   O2        1.0  0.58100  0.75000  0.07210  1.0000
  O   O3        1.0  0.91700  0.52700  0.18500  1.0000
  O   O4        1.0  0.91700  0.97300  0.18500  1.0000
  O   O5        1.0  0.41700  0.52700  0.31500  1.0000
  O   O6        1.0  0.41700  0.97300  0.31500  1.0000
  O   O7        1.0  0.08090  0.75000  0.42800  1.0000
  O   O8        1.0  0.78100  0.75000  0.44800  1.0000
  O   O9        1.0  0.21900  0.25000  0.55200  1.0000
  O   O10       1.0  0.91900  0.25000  0.57200  1.0000
  O   O11       1.0  0.58300  0.02690  0.68500  1.0000
  O   O12       1.0  0.58300  0.47300  0.68500  1.0000
  O   O13       1.0  0.08250  0.02690  0.81500  1.0000
  O   O14       1.0  0.08250  0.47300  0.81500  1.0000
  O   O15       1.0  0.41900  0.25000  0.92800  1.0000
  O   O16       1.0  0.71900  0.25000  0.94800  1.0000
  Tl  Tl1       1.0  0.17500  0.25000  0.16700  1.0000
  Tl  Tl2       1.0  0.67500  0.25000  0.33300  1.0000
  Tl  Tl3       1.0  0.32500  0.75000  0.66700  1.0000
  Tl  Tl4       1.0  0.82500  0.75000  0.83300  1.0000
