data_image0
_chemical_formula_structural       Na4O14Si4Zr2
_chemical_formula_sum              "Na4 O14 Si4 Zr2"
_cell_length_a       6.59447
_cell_length_b       8.76725
_cell_length_c       5.39868
_cell_angle_alpha    93.4349
_cell_angle_beta     94.8246
_cell_angle_gamma    71.9279

_space_group_name_H-M_alt    "P 1"
_space_group_IT_number       1

loop_
  _space_group_symop_operation_xyz
  'x, y, z'

loop_
  _atom_site_type_symbol
  _atom_site_label
  _atom_site_symmetry_multiplicity
  _atom_site_fract_x
  _atom_site_fract_y
  _atom_site_fract_z
  _atom_site_occupancy
  Na  Na1       1.0  0.65100  0.49900  0.23400  1.0000
  Na  Na2       1.0  0.87400  0.09410  0.25200  1.0000
  Na  Na3       1.0  0.12600  0.90600  0.74800  1.0000
  Na  Na4       1.0  0.34900  0.50100  0.76600  1.0000
  O   O1        1.0  0.56800  0.26300  0.01720  1.0000
  O   O2        1.0  0.86800  0.65700  0.12900  1.0000
  O   O3        1.0  0.27800  0.03820  0.13800  1.0000
  O   O4        1.0  0.11300  0.83600  0.28900  1.0000
  O   O5        1.0  0.28000  0.51400  0.30400  1.0000
  O   O6        1.0  0.00274  0.31900  0.38300  1.0000
  O   O7        1.0  0.50400  0.80700  0.47600  1.0000
  O   O8        1.0  0.49600  0.19300  0.52400  1.0000
  O   O9        1.0  0.99700  0.68100  0.61700  1.0000
  O   O10       1.0  0.72000  0.48600  0.69600  1.0000
  O   O11       1.0  0.88700  0.16400  0.71100  1.0000
  O   O12       1.0  0.72200  0.96200  0.86200  1.0000
  O   O13       1.0  0.13200  0.34300  0.87100  1.0000
  O   O14       1.0  0.43200  0.73700  0.98300  1.0000
  Si  Si1       1.0  0.35000  0.85400  0.22600  1.0000
  Si  Si2       1.0  0.06050  0.66400  0.32800  1.0000
  Si  Si3       1.0  0.93900  0.33600  0.67200  1.0000
  Si  Si4       1.0  0.65000  0.14600  0.77400  1.0000
  Zr  Zr1       1.0  0.29100  0.27000  0.21100  1.0000
  Zr  Zr2       1.0  0.70900  0.73000  0.78900  1.0000
