data_image0
_chemical_formula_structural       Al4Ge12Y8
_chemical_formula_sum              "Al4 Ge12 Y8"
_cell_length_a       6.82915
_cell_length_b       4.21281
_cell_length_c       17.7386
_cell_angle_alpha    90
_cell_angle_beta     90
_cell_angle_gamma    90

_space_group_name_H-M_alt    "P 1"
_space_group_IT_number       1

loop_
  _space_group_symop_operation_xyz
  'x, y, z'

loop_
  _atom_site_type_symbol
  _atom_site_label
  _atom_site_symmetry_multiplicity
  _atom_site_fract_x
  _atom_site_fract_y
  _atom_site_fract_z
  _atom_site_occupancy
  Al  Al1       1.0  0.54900  0.75000  0.06420  1.0000
  Al  Al2       1.0  0.04950  0.75000  0.43600  1.0000
  Al  Al3       1.0  0.95100  0.25000  0.56400  1.0000
  Al  Al4       1.0  0.45100  0.25000  0.93600  1.0000
  Ge  Ge1       1.0  0.75000  0.25000  0.03410  1.0000
  Ge  Ge2       1.0  0.96400  0.75000  0.17300  1.0000
  Ge  Ge3       1.0  0.35500  0.75000  0.18800  1.0000
  Ge  Ge4       1.0  0.85500  0.75000  0.31200  1.0000
  Ge  Ge5       1.0  0.46400  0.75000  0.32700  1.0000
  Ge  Ge6       1.0  0.25000  0.25000  0.46600  1.0000
  Ge  Ge7       1.0  0.75000  0.75000  0.53400  1.0000
  Ge  Ge8       1.0  0.53600  0.25000  0.67300  1.0000
  Ge  Ge9       1.0  0.14500  0.25000  0.68800  1.0000
  Ge  Ge10      1.0  0.64500  0.25000  0.81200  1.0000
  Ge  Ge11      1.0  0.03590  0.25000  0.82700  1.0000
  Ge  Ge12      1.0  0.25000  0.75000  0.96600  1.0000
  Y   Y1        1.0  0.16900  0.25000  0.08550  1.0000
  Y   Y2        1.0  0.66800  0.25000  0.20400  1.0000
  Y   Y3        1.0  0.16800  0.25000  0.29600  1.0000
  Y   Y4        1.0  0.66900  0.25000  0.41500  1.0000
  Y   Y5        1.0  0.33100  0.75000  0.58500  1.0000
  Y   Y6        1.0  0.83200  0.75000  0.70400  1.0000
  Y   Y7        1.0  0.33200  0.75000  0.79600  1.0000
  Y   Y8        1.0  0.83100  0.75000  0.91500  1.0000
