data_image0
_chemical_formula_structural       Ba4Cu4La4Se12
_chemical_formula_sum              "Ba4 Cu4 La4 Se12"
_cell_length_a       11.2246
_cell_length_b       4.30594
_cell_length_c       14.0055
_cell_angle_alpha    90
_cell_angle_beta     90
_cell_angle_gamma    90

_space_group_name_H-M_alt    "P 1"
_space_group_IT_number       1

loop_
  _space_group_symop_operation_xyz
  'x, y, z'

loop_
  _atom_site_type_symbol
  _atom_site_label
  _atom_site_symmetry_multiplicity
  _atom_site_fract_x
  _atom_site_fract_y
  _atom_site_fract_z
  _atom_site_occupancy
  Ba  Ba1       1.0  0.27200  0.25000  0.00413  1.0000
  Ba  Ba2       1.0  0.77200  0.25000  0.49600  1.0000
  Ba  Ba3       1.0  0.22800  0.75000  0.50400  1.0000
  Ba  Ba4       1.0  0.72800  0.75000  0.99600  1.0000
  Cu  Cu1       1.0  0.74100  0.25000  0.21700  1.0000
  Cu  Cu2       1.0  0.24100  0.25000  0.28300  1.0000
  Cu  Cu3       1.0  0.75900  0.75000  0.71700  1.0000
  Cu  Cu4       1.0  0.25900  0.75000  0.78300  1.0000
  La  La1       1.0  0.99000  0.75000  0.24000  1.0000
  La  La2       1.0  0.49000  0.75000  0.26000  1.0000
  La  La3       1.0  0.51000  0.25000  0.74000  1.0000
  La  La4       1.0  0.00975  0.25000  0.76000  1.0000
  Se  Se1       1.0  0.91200  0.25000  0.10500  1.0000
  Se  Se2       1.0  0.55800  0.25000  0.11800  1.0000
  Se  Se3       1.0  0.24400  0.75000  0.18200  1.0000
  Se  Se4       1.0  0.74400  0.75000  0.31800  1.0000
  Se  Se5       1.0  0.05780  0.25000  0.38200  1.0000
  Se  Se6       1.0  0.41200  0.25000  0.39500  1.0000
  Se  Se7       1.0  0.58800  0.75000  0.60500  1.0000
  Se  Se8       1.0  0.94200  0.75000  0.61800  1.0000
  Se  Se9       1.0  0.25600  0.25000  0.68200  1.0000
  Se  Se10      1.0  0.75600  0.25000  0.81800  1.0000
  Se  Se11      1.0  0.44200  0.75000  0.88200  1.0000
  Se  Se12      1.0  0.08800  0.75000  0.89500  1.0000
