data_image0
_chemical_formula_structural       B3Ca3O15P3
_chemical_formula_sum              "B3 Ca3 O15 P3"
_cell_length_a       6.59937
_cell_length_b       6.59937
_cell_length_c       6.66754
_cell_angle_alpha    90
_cell_angle_beta     90
_cell_angle_gamma    120

_space_group_name_H-M_alt    "P 1"
_space_group_IT_number       1

loop_
  _space_group_symop_operation_xyz
  'x, y, z'

loop_
  _atom_site_type_symbol
  _atom_site_label
  _atom_site_symmetry_multiplicity
  _atom_site_fract_x
  _atom_site_fract_y
  _atom_site_fract_z
  _atom_site_occupancy
  B   B1        1.0  0.00000  0.10300  0.16700  1.0000
  B   B2        1.0  0.89700  0.89700  0.50000  1.0000
  B   B3        1.0  0.10300  0.00000  0.83300  1.0000
  Ca  Ca1       1.0  0.00000  0.60100  0.16700  1.0000
  Ca  Ca2       1.0  0.39900  0.39900  0.50000  1.0000
  Ca  Ca3       1.0  0.60100  0.00000  0.83300  1.0000
  O   O1        1.0  0.94900  0.94900  0.00000  1.0000
  O   O2        1.0  0.19200  0.35300  0.12600  1.0000
  O   O3        1.0  0.60500  0.47000  0.15700  1.0000
  O   O4        1.0  0.39500  0.86500  0.17600  1.0000
  O   O5        1.0  0.80800  0.16100  0.20700  1.0000
  O   O6        1.0  0.05110  0.00000  0.33300  1.0000
  O   O7        1.0  0.64700  0.83900  0.46000  1.0000
  O   O8        1.0  0.53000  0.13500  0.49000  1.0000
  O   O9        1.0  0.13500  0.53000  0.51000  1.0000
  O   O10       1.0  0.83900  0.64700  0.54000  1.0000
  O   O11       1.0  0.00000  0.05110  0.66700  1.0000
  O   O12       1.0  0.16100  0.80800  0.79300  1.0000
  O   O13       1.0  0.86500  0.39500  0.82400  1.0000
  O   O14       1.0  0.47000  0.60500  0.84300  1.0000
  O   O15       1.0  0.35300  0.19200  0.87400  1.0000
  P   P1        1.0  0.42100  0.42100  0.00000  1.0000
  P   P2        1.0  0.57900  0.00000  0.33300  1.0000
  P   P3        1.0  0.00000  0.57900  0.66700  1.0000
