data_image0
_chemical_formula_structural       B6Na6S12
_chemical_formula_sum              "B6 Na6 S12"
_cell_length_a       7.60001
_cell_length_b       9.10973
_cell_length_c       9.10973
_cell_angle_alpha    112.582
_cell_angle_beta     106.146
_cell_angle_gamma    106.146

_space_group_name_H-M_alt    "P 1"
_space_group_IT_number       1

loop_
  _space_group_symop_operation_xyz
  'x, y, z'

loop_
  _atom_site_type_symbol
  _atom_site_label
  _atom_site_symmetry_multiplicity
  _atom_site_fract_x
  _atom_site_fract_y
  _atom_site_fract_z
  _atom_site_occupancy
  B   B1        1.0  0.25000  0.88200  0.11800  1.0000
  B   B2        1.0  0.36800  0.23600  0.11800  1.0000
  B   B3        1.0  0.86800  0.11800  0.23600  1.0000
  B   B4        1.0  0.13200  0.88200  0.76400  1.0000
  B   B5        1.0  0.63200  0.76400  0.88200  1.0000
  B   B6        1.0  0.75000  0.11800  0.88200  1.0000
  Na  Na1       1.0  0.78800  0.53800  0.07530  1.0000
  Na  Na2       1.0  0.25000  0.53800  0.46200  1.0000
  Na  Na3       1.0  0.71200  0.92500  0.46200  1.0000
  Na  Na4       1.0  0.75000  0.46200  0.53800  1.0000
  Na  Na5       1.0  0.28800  0.07530  0.53800  1.0000
  Na  Na6       1.0  0.21200  0.46200  0.92500  1.0000
  S   S1        1.0  0.75000  0.87700  0.12300  1.0000
  S   S2        1.0  0.87300  0.24600  0.12300  1.0000
  S   S3        1.0  0.25000  0.76500  0.23500  1.0000
  S   S4        1.0  0.48500  0.47000  0.23500  1.0000
  S   S5        1.0  0.37300  0.12300  0.24600  1.0000
  S   S6        1.0  0.98500  0.23500  0.47000  1.0000
  S   S7        1.0  0.01520  0.76500  0.53000  1.0000
  S   S8        1.0  0.62700  0.87700  0.75400  1.0000
  S   S9        1.0  0.51500  0.53000  0.76500  1.0000
  S   S10       1.0  0.75000  0.23500  0.76500  1.0000
  S   S11       1.0  0.25000  0.12300  0.87700  1.0000
  S   S12       1.0  0.12700  0.75400  0.87700  1.0000
