data_image0
_chemical_formula_structural       Ba12Ga10N2
_chemical_formula_sum              "Ba12 Ga10 N2"
_cell_length_a       7.93649
_cell_length_b       7.9365
_cell_length_c       14.7761
_cell_angle_alpha    105.579
_cell_angle_beta     90
_cell_angle_gamma    60

_space_group_name_H-M_alt    "P 1"
_space_group_IT_number       1

loop_
  _space_group_symop_operation_xyz
  'x, y, z'

loop_
  _atom_site_type_symbol
  _atom_site_label
  _atom_site_symmetry_multiplicity
  _atom_site_fract_x
  _atom_site_fract_y
  _atom_site_fract_z
  _atom_site_occupancy
  Ba  Ba1       1.0  0.86100  0.39800  0.10800  1.0000
  Ba  Ba2       1.0  0.29000  0.84900  0.10800  1.0000
  Ba  Ba3       1.0  0.74100  0.96900  0.10800  1.0000
  Ba  Ba4       1.0  0.21000  0.03080  0.39200  1.0000
  Ba  Ba5       1.0  0.63900  0.15100  0.39200  1.0000
  Ba  Ba6       1.0  0.75900  0.60200  0.39200  1.0000
  Ba  Ba7       1.0  0.24100  0.39800  0.60800  1.0000
  Ba  Ba8       1.0  0.36100  0.84900  0.60800  1.0000
  Ba  Ba9       1.0  0.79000  0.96900  0.60800  1.0000
  Ba  Ba10      1.0  0.25900  0.03080  0.89200  1.0000
  Ba  Ba11      1.0  0.71000  0.15100  0.89200  1.0000
  Ba  Ba12      1.0  0.13900  0.60200  0.89200  1.0000
  Ga  Ga1       1.0  0.30300  0.39500  0.09180  1.0000
  Ga  Ga2       1.0  0.25000  0.29700  0.25000  1.0000
  Ga  Ga3       1.0  0.45300  0.50000  0.25000  1.0000
  Ga  Ga4       1.0  0.04740  0.70300  0.25000  1.0000
  Ga  Ga5       1.0  0.19700  0.60500  0.40800  1.0000
  Ga  Ga6       1.0  0.80300  0.39500  0.59200  1.0000
  Ga  Ga7       1.0  0.95300  0.29700  0.75000  1.0000
  Ga  Ga8       1.0  0.54700  0.50000  0.75000  1.0000
  Ga  Ga9       1.0  0.75000  0.70300  0.75000  1.0000
  Ga  Ga10      1.0  0.69700  0.60500  0.90800  1.0000
  N   N1        1.0  0.00000  0.00000  0.00000  1.0000
  N   N2        1.0  0.50000  0.00000  0.50000  1.0000
