data_image0
_chemical_formula_structural       Cl4Cr4K4O12
_chemical_formula_sum              "Cl4 Cr4 K4 O12"
_cell_length_a       7.78099
_cell_length_b       7.35063
_cell_length_c       7.69189
_cell_angle_alpha    90
_cell_angle_beta     90.8016
_cell_angle_gamma    90

_space_group_name_H-M_alt    "P 1"
_space_group_IT_number       1

loop_
  _space_group_symop_operation_xyz
  'x, y, z'

loop_
  _atom_site_type_symbol
  _atom_site_label
  _atom_site_symmetry_multiplicity
  _atom_site_fract_x
  _atom_site_fract_y
  _atom_site_fract_z
  _atom_site_occupancy
  Cl  Cl1       1.0  0.45700  0.28800  0.13600  1.0000
  Cl  Cl2       1.0  0.54300  0.78800  0.36400  1.0000
  Cl  Cl3       1.0  0.45700  0.21200  0.63600  1.0000
  Cl  Cl4       1.0  0.54300  0.71200  0.86400  1.0000
  Cr  Cr1       1.0  0.22400  0.12600  0.12200  1.0000
  Cr  Cr2       1.0  0.77600  0.62600  0.37800  1.0000
  Cr  Cr3       1.0  0.22400  0.37400  0.62200  1.0000
  Cr  Cr4       1.0  0.77600  0.87400  0.87800  1.0000
  K   K1        1.0  0.18900  0.64400  0.12900  1.0000
  K   K2        1.0  0.81100  0.14400  0.37100  1.0000
  K   K3        1.0  0.18900  0.85600  0.62900  1.0000
  K   K4        1.0  0.81100  0.35600  0.87100  1.0000
  O   O1        1.0  0.77000  0.00487  0.04740  1.0000
  O   O2        1.0  0.06250  0.26500  0.11100  1.0000
  O   O3        1.0  0.78900  0.50100  0.20500  1.0000
  O   O4        1.0  0.21100  0.00103  0.29500  1.0000
  O   O5        1.0  0.93800  0.76500  0.38900  1.0000
  O   O6        1.0  0.23000  0.50500  0.45300  1.0000
  O   O7        1.0  0.77000  0.49500  0.54700  1.0000
  O   O8        1.0  0.06250  0.23500  0.61100  1.0000
  O   O9        1.0  0.78900  0.99900  0.70500  1.0000
  O   O10       1.0  0.21100  0.49900  0.79500  1.0000
  O   O11       1.0  0.93800  0.73500  0.88900  1.0000
  O   O12       1.0  0.23000  0.99500  0.95300  1.0000
