data_image0
_chemical_formula_structural       Cu4Na4Te12Zr4
_chemical_formula_sum              "Cu4 Na4 Te12 Zr4"
_cell_length_a       14.5763
_cell_length_b       4.07996
_cell_length_c       11.0407
_cell_angle_alpha    90
_cell_angle_beta     90
_cell_angle_gamma    90

_space_group_name_H-M_alt    "P 1"
_space_group_IT_number       1

loop_
  _space_group_symop_operation_xyz
  'x, y, z'

loop_
  _atom_site_type_symbol
  _atom_site_label
  _atom_site_symmetry_multiplicity
  _atom_site_fract_x
  _atom_site_fract_y
  _atom_site_fract_z
  _atom_site_occupancy
  Cu  Cu1       1.0  0.00852  0.75000  0.09340  1.0000
  Cu  Cu2       1.0  0.50900  0.75000  0.40700  1.0000
  Cu  Cu3       1.0  0.49100  0.25000  0.59300  1.0000
  Cu  Cu4       1.0  0.99100  0.25000  0.90700  1.0000
  Na  Na1       1.0  0.22600  0.25000  0.04980  1.0000
  Na  Na2       1.0  0.72600  0.25000  0.45000  1.0000
  Na  Na3       1.0  0.27400  0.75000  0.55000  1.0000
  Na  Na4       1.0  0.77400  0.75000  0.95000  1.0000
  Te  Te1       1.0  0.39600  0.75000  0.06280  1.0000
  Te  Te2       1.0  0.89200  0.25000  0.11500  1.0000
  Te  Te3       1.0  0.64400  0.75000  0.24800  1.0000
  Te  Te4       1.0  0.14400  0.75000  0.25200  1.0000
  Te  Te5       1.0  0.39200  0.25000  0.38500  1.0000
  Te  Te6       1.0  0.89600  0.75000  0.43700  1.0000
  Te  Te7       1.0  0.10400  0.25000  0.56300  1.0000
  Te  Te8       1.0  0.60800  0.75000  0.61500  1.0000
  Te  Te9       1.0  0.85600  0.25000  0.74800  1.0000
  Te  Te10      1.0  0.35600  0.25000  0.75200  1.0000
  Te  Te11      1.0  0.10800  0.75000  0.88500  1.0000
  Te  Te12      1.0  0.60400  0.25000  0.93700  1.0000
  Zr  Zr1       1.0  0.51100  0.25000  0.18300  1.0000
  Zr  Zr2       1.0  0.01070  0.25000  0.31700  1.0000
  Zr  Zr3       1.0  0.98900  0.75000  0.68300  1.0000
  Zr  Zr4       1.0  0.48900  0.75000  0.81700  1.0000
