data_image0
_chemical_formula_structural       Cl16F4Ta4
_chemical_formula_sum              "Cl16 F4 Ta4"
_cell_length_a       7.95029
_cell_length_b       9.81399
_cell_length_c       9.81399
_cell_angle_alpha    99.4429
_cell_angle_beta     113.894
_cell_angle_gamma    66.1058

_space_group_name_H-M_alt    "P 1"
_space_group_IT_number       1

loop_
  _space_group_symop_operation_xyz
  'x, y, z'

loop_
  _atom_site_type_symbol
  _atom_site_label
  _atom_site_symmetry_multiplicity
  _atom_site_fract_x
  _atom_site_fract_y
  _atom_site_fract_z
  _atom_site_occupancy
  Cl  Cl1       1.0  0.77000  0.51800  0.10400  1.0000
  Cl  Cl2       1.0  0.66000  0.23000  0.14500  1.0000
  Cl  Cl3       1.0  0.23300  0.25800  0.17300  1.0000
  Cl  Cl4       1.0  0.48500  0.85500  0.23000  1.0000
  Cl  Cl5       1.0  0.94000  0.82700  0.25800  1.0000
  Cl  Cl6       1.0  0.40300  0.57200  0.31500  1.0000
  Cl  Cl7       1.0  0.02530  0.31500  0.42800  1.0000
  Cl  Cl8       1.0  0.71200  0.10400  0.48200  1.0000
  Cl  Cl9       1.0  0.33400  0.89600  0.51800  1.0000
  Cl  Cl10      1.0  0.91200  0.68500  0.57200  1.0000
  Cl  Cl11      1.0  0.66000  0.42800  0.68500  1.0000
  Cl  Cl12      1.0  0.50900  0.17300  0.74200  1.0000
  Cl  Cl13      1.0  0.11000  0.14500  0.77000  1.0000
  Cl  Cl14      1.0  0.31800  0.74200  0.82700  1.0000
  Cl  Cl15      1.0  0.74500  0.77000  0.85500  1.0000
  Cl  Cl16      1.0  0.18400  0.48200  0.89600  1.0000
  F   F1        1.0  0.13100  0.78900  0.04540  1.0000
  F   F2        1.0  0.07990  0.04540  0.21100  1.0000
  F   F3        1.0  0.91400  0.95500  0.78900  1.0000
  F   F4        1.0  0.87500  0.21100  0.95500  1.0000
  Ta  Ta1       1.0  0.93700  0.27700  0.17900  1.0000
  Ta  Ta2       1.0  0.24200  0.82100  0.27700  1.0000
  Ta  Ta3       1.0  0.78700  0.17900  0.72300  1.0000
  Ta  Ta4       1.0  0.03440  0.72300  0.82100  1.0000
