data_image0
_chemical_formula_structural       Ba8P12Pd4
_chemical_formula_sum              "Ba8 P12 Pd4"
_cell_length_a       6.53107
_cell_length_b       7.25297
_cell_length_c       12.9748
_cell_angle_alpha    90
_cell_angle_beta     91.5036
_cell_angle_gamma    90

_space_group_name_H-M_alt    "P 1"
_space_group_IT_number       1

loop_
  _space_group_symop_operation_xyz
  'x, y, z'

loop_
  _atom_site_type_symbol
  _atom_site_label
  _atom_site_symmetry_multiplicity
  _atom_site_fract_x
  _atom_site_fract_y
  _atom_site_fract_z
  _atom_site_occupancy
  Ba  Ba1       1.0  0.83600  0.75100  0.06070  1.0000
  Ba  Ba2       1.0  0.62200  0.24500  0.16500  1.0000
  Ba  Ba3       1.0  0.37800  0.74500  0.33500  1.0000
  Ba  Ba4       1.0  0.16400  0.25100  0.43900  1.0000
  Ba  Ba5       1.0  0.83600  0.74900  0.56100  1.0000
  Ba  Ba6       1.0  0.62200  0.25500  0.66500  1.0000
  Ba  Ba7       1.0  0.37800  0.75500  0.83500  1.0000
  Ba  Ba8       1.0  0.16400  0.24900  0.93900  1.0000
  P   P1        1.0  0.31800  0.89100  0.09410  1.0000
  P   P2        1.0  0.31400  0.59000  0.09480  1.0000
  P   P3        1.0  0.09640  0.42700  0.19300  1.0000
  P   P4        1.0  0.90400  0.92700  0.30700  1.0000
  P   P5        1.0  0.68600  0.09030  0.40500  1.0000
  P   P6        1.0  0.68200  0.39100  0.40600  1.0000
  P   P7        1.0  0.31800  0.60900  0.59400  1.0000
  P   P8        1.0  0.31400  0.91000  0.59500  1.0000
  P   P9        1.0  0.09640  0.07300  0.69300  1.0000
  P   P10       1.0  0.90400  0.57300  0.80700  1.0000
  P   P11       1.0  0.68600  0.41000  0.90500  1.0000
  P   P12       1.0  0.68200  0.10900  0.90600  1.0000
  Pd  Pd1       1.0  0.11700  0.09920  0.19300  1.0000
  Pd  Pd2       1.0  0.88300  0.59900  0.30700  1.0000
  Pd  Pd3       1.0  0.11700  0.40100  0.69300  1.0000
  Pd  Pd4       1.0  0.88300  0.90100  0.80700  1.0000
