data_image0
_chemical_formula_structural       Ba2Cd22
_chemical_formula_sum              "Ba2 Cd22"
_cell_length_a       7.78482
_cell_length_b       9.36946
_cell_length_c       9.36946
_cell_angle_alpha    99.9383
_cell_angle_beta     65.4532
_cell_angle_gamma    114.547

_space_group_name_H-M_alt    "P 1"
_space_group_IT_number       1

loop_
  _space_group_symop_operation_xyz
  'x, y, z'

loop_
  _atom_site_type_symbol
  _atom_site_label
  _atom_site_symmetry_multiplicity
  _atom_site_fract_x
  _atom_site_fract_y
  _atom_site_fract_z
  _atom_site_occupancy
  Ba  Ba1       1.0  0.12500  0.75000  0.25000  1.0000
  Ba  Ba2       1.0  0.87500  0.25000  0.75000  1.0000
  Cd  Cd1       1.0  0.00000  0.00000  0.00000  1.0000
  Cd  Cd2       1.0  0.50000  0.50000  0.00000  1.0000
  Cd  Cd3       1.0  0.37000  0.16700  0.07550  1.0000
  Cd  Cd4       1.0  0.05440  0.33300  0.07550  1.0000
  Cd  Cd5       1.0  0.63000  0.07550  0.16700  1.0000
  Cd  Cd6       1.0  0.70300  0.42500  0.16700  1.0000
  Cd  Cd7       1.0  0.62500  0.75000  0.25000  1.0000
  Cd  Cd8       1.0  0.94600  0.07550  0.33300  1.0000
  Cd  Cd9       1.0  0.22100  0.42500  0.33300  1.0000
  Cd  Cd10      1.0  0.29700  0.16700  0.42500  1.0000
  Cd  Cd11      1.0  0.77900  0.33300  0.42500  1.0000
  Cd  Cd12      1.0  0.50000  0.00000  0.50000  1.0000
  Cd  Cd13      1.0  0.50000  0.50000  0.50000  1.0000
  Cd  Cd14      1.0  0.70300  0.83300  0.57500  1.0000
  Cd  Cd15      1.0  0.22100  0.66700  0.57500  1.0000
  Cd  Cd16      1.0  0.77900  0.57500  0.66700  1.0000
  Cd  Cd17      1.0  0.05440  0.92500  0.66700  1.0000
  Cd  Cd18      1.0  0.37500  0.25000  0.75000  1.0000
  Cd  Cd19      1.0  0.29700  0.57500  0.83300  1.0000
  Cd  Cd20      1.0  0.37000  0.92500  0.83300  1.0000
  Cd  Cd21      1.0  0.63000  0.83300  0.92500  1.0000
  Cd  Cd22      1.0  0.94600  0.66700  0.92500  1.0000
