data_image0
_chemical_formula_structural       O16Se4V4
_chemical_formula_sum              "O16 Se4 V4"
_cell_length_a       3.83801
_cell_length_b       9.86428
_cell_length_c       8.03587
_cell_angle_alpha    90
_cell_angle_beta     99.847
_cell_angle_gamma    90

_space_group_name_H-M_alt    "P 1"
_space_group_IT_number       1

loop_
  _space_group_symop_operation_xyz
  'x, y, z'

loop_
  _atom_site_type_symbol
  _atom_site_label
  _atom_site_symmetry_multiplicity
  _atom_site_fract_x
  _atom_site_fract_y
  _atom_site_fract_z
  _atom_site_occupancy
  O   O1        1.0  0.02510  0.62900  0.00310  1.0000
  O   O2        1.0  0.86700  0.11300  0.09480  1.0000
  O   O3        1.0  0.85300  0.83000  0.17400  1.0000
  O   O4        1.0  0.56400  0.50800  0.20000  1.0000
  O   O5        1.0  0.43600  0.00760  0.30000  1.0000
  O   O6        1.0  0.14700  0.33000  0.32600  1.0000
  O   O7        1.0  0.13300  0.61300  0.40500  1.0000
  O   O8        1.0  0.97500  0.12900  0.49700  1.0000
  O   O9        1.0  0.02510  0.87100  0.50300  1.0000
  O   O10       1.0  0.86700  0.38700  0.59500  1.0000
  O   O11       1.0  0.85300  0.67000  0.67400  1.0000
  O   O12       1.0  0.56400  0.99200  0.70000  1.0000
  O   O13       1.0  0.43600  0.49200  0.80000  1.0000
  O   O14       1.0  0.14700  0.17000  0.82600  1.0000
  O   O15       1.0  0.13300  0.88700  0.90500  1.0000
  O   O16       1.0  0.97500  0.37100  0.99700  1.0000
  Se  Se1       1.0  0.19800  0.21000  0.03710  1.0000
  Se  Se2       1.0  0.80200  0.71000  0.46300  1.0000
  Se  Se3       1.0  0.19800  0.29000  0.53700  1.0000
  Se  Se4       1.0  0.80200  0.79000  0.96300  1.0000
  V   V1        1.0  0.00155  0.49600  0.19900  1.0000
  V   V2        1.0  0.99800  0.99600  0.30100  1.0000
  V   V3        1.0  0.00155  0.00410  0.69900  1.0000
  V   V4        1.0  0.99800  0.50400  0.80100  1.0000
