data_image0
_chemical_formula_structural       Na8O12Pr4
_chemical_formula_sum              "Na8 O12 Pr4"
_cell_length_a       5.96196
_cell_length_b       5.96196
_cell_length_c       11.0278
_cell_angle_alpha    100.265
_cell_angle_beta     100.265
_cell_angle_gamma    110.044

_space_group_name_H-M_alt    "P 1"
_space_group_IT_number       1

loop_
  _space_group_symop_operation_xyz
  'x, y, z'

loop_
  _atom_site_type_symbol
  _atom_site_label
  _atom_site_symmetry_multiplicity
  _atom_site_fract_x
  _atom_site_fract_y
  _atom_site_fract_z
  _atom_site_occupancy
  Na  Na1       1.0  0.04740  0.79600  0.09490  1.0000
  Na  Na2       1.0  0.12100  0.37100  0.24200  1.0000
  Na  Na3       1.0  0.62900  0.87900  0.25800  1.0000
  Na  Na4       1.0  0.20400  0.95300  0.40500  1.0000
  Na  Na5       1.0  0.79600  0.04740  0.59500  1.0000
  Na  Na6       1.0  0.37100  0.12100  0.74200  1.0000
  Na  Na7       1.0  0.87900  0.62900  0.75800  1.0000
  Na  Na8       1.0  0.95300  0.20400  0.90500  1.0000
  O   O1        1.0  0.77600  0.04780  0.07460  1.0000
  O   O2        1.0  0.30200  0.53100  0.07540  1.0000
  O   O3        1.0  0.85900  0.60900  0.25000  1.0000
  O   O4        1.0  0.39100  0.14100  0.25000  1.0000
  O   O5        1.0  0.46900  0.69800  0.42500  1.0000
  O   O6        1.0  0.95200  0.22400  0.42500  1.0000
  O   O7        1.0  0.04780  0.77600  0.57500  1.0000
  O   O8        1.0  0.53100  0.30200  0.57500  1.0000
  O   O9        1.0  0.60900  0.85900  0.75000  1.0000
  O   O10       1.0  0.14100  0.39100  0.75000  1.0000
  O   O11       1.0  0.69800  0.46900  0.92500  1.0000
  O   O12       1.0  0.22400  0.95200  0.92500  1.0000
  Pr  Pr1       1.0  0.54000  0.29100  0.08420  1.0000
  Pr  Pr2       1.0  0.70900  0.46000  0.41600  1.0000
  Pr  Pr3       1.0  0.29100  0.54000  0.58400  1.0000
  Pr  Pr4       1.0  0.46000  0.70900  0.91600  1.0000
