data_image0
_chemical_formula_structural       Na4Pt8Se12
_chemical_formula_sum              "Na4 Pt8 Se12"
_cell_length_a       7.49796
_cell_length_b       7.49796
_cell_length_c       11.5302
_cell_angle_alpha    90
_cell_angle_beta     90
_cell_angle_gamma    120

_space_group_name_H-M_alt    "P 1"
_space_group_IT_number       1

loop_
  _space_group_symop_operation_xyz
  'x, y, z'

loop_
  _atom_site_type_symbol
  _atom_site_label
  _atom_site_symmetry_multiplicity
  _atom_site_fract_x
  _atom_site_fract_y
  _atom_site_fract_z
  _atom_site_occupancy
  Na  Na1       1.0  0.00000  0.00000  0.19100  1.0000
  Na  Na2       1.0  0.33300  0.66700  0.31200  1.0000
  Na  Na3       1.0  0.00000  0.00000  0.69100  1.0000
  Na  Na4       1.0  0.66700  0.33300  0.81200  1.0000
  Pt  Pt1       1.0  0.33200  0.16600  0.00644  1.0000
  Pt  Pt2       1.0  0.83400  0.16600  0.00644  1.0000
  Pt  Pt3       1.0  0.83400  0.66800  0.00644  1.0000
  Pt  Pt4       1.0  0.66700  0.33300  0.49900  1.0000
  Pt  Pt5       1.0  0.16600  0.83400  0.50600  1.0000
  Pt  Pt6       1.0  0.66800  0.83400  0.50600  1.0000
  Pt  Pt7       1.0  0.16600  0.33200  0.50600  1.0000
  Pt  Pt8       1.0  0.33300  0.66700  0.99900  1.0000
  Se  Se1       1.0  0.50200  0.49800  0.11200  1.0000
  Se  Se2       1.0  0.99600  0.49800  0.11200  1.0000
  Se  Se3       1.0  0.50200  0.00351  0.11200  1.0000
  Se  Se4       1.0  0.32000  0.16000  0.39600  1.0000
  Se  Se5       1.0  0.84000  0.16000  0.39600  1.0000
  Se  Se6       1.0  0.84000  0.68000  0.39600  1.0000
  Se  Se7       1.0  0.00352  0.50200  0.61200  1.0000
  Se  Se8       1.0  0.49800  0.50200  0.61200  1.0000
  Se  Se9       1.0  0.49800  0.99600  0.61200  1.0000
  Se  Se10      1.0  0.16000  0.84000  0.89600  1.0000
  Se  Se11      1.0  0.68000  0.84000  0.89600  1.0000
  Se  Se12      1.0  0.16000  0.32000  0.89600  1.0000
