data_image0
_chemical_formula_structural       O16Sm2Tl2W4
_chemical_formula_sum              "O16 Sm2 Tl2 W4"
_cell_length_a       7.53376
_cell_length_b       7.53376
_cell_length_c       7.57307
_cell_angle_alpha    117.517
_cell_angle_beta     62.4825
_cell_angle_gamma    90.9106

_space_group_name_H-M_alt    "P 1"
_space_group_IT_number       1

loop_
  _space_group_symop_operation_xyz
  'x, y, z'

loop_
  _atom_site_type_symbol
  _atom_site_label
  _atom_site_symmetry_multiplicity
  _atom_site_fract_x
  _atom_site_fract_y
  _atom_site_fract_z
  _atom_site_occupancy
  O   O1        1.0  0.41800  0.36800  0.02430  1.0000
  O   O2        1.0  0.76400  0.38200  0.05470  1.0000
  O   O3        1.0  0.60900  0.07190  0.13200  1.0000
  O   O4        1.0  0.95200  0.20200  0.18600  1.0000
  O   O5        1.0  0.20200  0.95200  0.31400  1.0000
  O   O6        1.0  0.07190  0.60900  0.36800  1.0000
  O   O7        1.0  0.38200  0.76400  0.44500  1.0000
  O   O8        1.0  0.36800  0.41800  0.47600  1.0000
  O   O9        1.0  0.63200  0.58200  0.52400  1.0000
  O   O10       1.0  0.61800  0.23600  0.55500  1.0000
  O   O11       1.0  0.92800  0.39100  0.63200  1.0000
  O   O12       1.0  0.79800  0.04810  0.68600  1.0000
  O   O13       1.0  0.04810  0.79800  0.81400  1.0000
  O   O14       1.0  0.39100  0.92800  0.86800  1.0000
  O   O15       1.0  0.23600  0.61800  0.94500  1.0000
  O   O16       1.0  0.58200  0.63200  0.97600  1.0000
  Sm  Sm1       1.0  0.22800  0.22800  0.25000  1.0000
  Sm  Sm2       1.0  0.77200  0.77200  0.75000  1.0000
  Tl  Tl1       1.0  0.79500  0.79500  0.25000  1.0000
  Tl  Tl2       1.0  0.20500  0.20500  0.75000  1.0000
  W   W1        1.0  0.30300  0.69400  0.23400  1.0000
  W   W2        1.0  0.69400  0.30300  0.26600  1.0000
  W   W3        1.0  0.30600  0.69700  0.73400  1.0000
  W   W4        1.0  0.69700  0.30600  0.76600  1.0000
