data_image0
_chemical_formula_structural       Ba4Cu2Ge4O14
_chemical_formula_sum              "Ba4 Cu2 Ge4 O14"
_cell_length_a       8.47782
_cell_length_b       8.47782
_cell_length_c       5.42129
_cell_angle_alpha    90
_cell_angle_beta     90
_cell_angle_gamma    90

_space_group_name_H-M_alt    "P 1"
_space_group_IT_number       1

loop_
  _space_group_symop_operation_xyz
  'x, y, z'

loop_
  _atom_site_type_symbol
  _atom_site_label
  _atom_site_symmetry_multiplicity
  _atom_site_fract_x
  _atom_site_fract_y
  _atom_site_fract_z
  _atom_site_occupancy
  Ba  Ba1       1.0  0.83500  0.33500  0.00715  1.0000
  Ba  Ba2       1.0  0.16500  0.66500  0.00715  1.0000
  Ba  Ba3       1.0  0.33500  0.16500  0.99300  1.0000
  Ba  Ba4       1.0  0.66500  0.83500  0.99300  1.0000
  Cu  Cu1       1.0  0.00000  0.00000  0.50000  1.0000
  Cu  Cu2       1.0  0.50000  0.50000  0.50000  1.0000
  Ge  Ge1       1.0  0.64000  0.14000  0.47700  1.0000
  Ge  Ge2       1.0  0.36000  0.86000  0.47700  1.0000
  Ge  Ge3       1.0  0.14000  0.36000  0.52300  1.0000
  Ge  Ge4       1.0  0.86000  0.64000  0.52300  1.0000
  O   O1        1.0  0.13500  0.36500  0.20400  1.0000
  O   O2        1.0  0.86500  0.63500  0.20400  1.0000
  O   O3        1.0  0.81600  0.08200  0.32900  1.0000
  O   O4        1.0  0.58200  0.31600  0.32900  1.0000
  O   O5        1.0  0.41800  0.68400  0.32900  1.0000
  O   O6        1.0  0.18400  0.91800  0.32900  1.0000
  O   O7        1.0  0.50000  0.00000  0.34800  1.0000
  O   O8        1.0  0.00000  0.50000  0.65200  1.0000
  O   O9        1.0  0.08200  0.18400  0.67100  1.0000
  O   O10       1.0  0.31600  0.41800  0.67100  1.0000
  O   O11       1.0  0.68400  0.58200  0.67100  1.0000
  O   O12       1.0  0.91800  0.81600  0.67100  1.0000
  O   O13       1.0  0.63500  0.13500  0.79600  1.0000
  O   O14       1.0  0.36500  0.86500  0.79600  1.0000
