data_image0
_chemical_formula_structural       Ba5O14V5
_chemical_formula_sum              "Ba5 O14 V5"
_cell_length_a       5.77987
_cell_length_b       5.79817
_cell_length_c       12.0674
_cell_angle_alpha    90
_cell_angle_beta     90.6275
_cell_angle_gamma    120.105

_space_group_name_H-M_alt    "P 1"
_space_group_IT_number       1

loop_
  _space_group_symop_operation_xyz
  'x, y, z'

loop_
  _atom_site_type_symbol
  _atom_site_label
  _atom_site_symmetry_multiplicity
  _atom_site_fract_x
  _atom_site_fract_y
  _atom_site_fract_z
  _atom_site_occupancy
  Ba  Ba1       1.0  0.00000  0.00000  0.00000  1.0000
  Ba  Ba2       1.0  0.66300  0.33200  0.23300  1.0000
  Ba  Ba3       1.0  0.33100  0.66600  0.42300  1.0000
  Ba  Ba4       1.0  0.66900  0.33400  0.57700  1.0000
  Ba  Ba5       1.0  0.33700  0.66800  0.76700  1.0000
  O   O1        1.0  0.65100  0.32500  0.01510  1.0000
  O   O2        1.0  0.16300  0.33300  0.18900  1.0000
  O   O3        1.0  0.16300  0.83000  0.18900  1.0000
  O   O4        1.0  0.67400  0.83700  0.18900  1.0000
  O   O5        1.0  0.30600  0.15300  0.39500  1.0000
  O   O6        1.0  0.84300  0.69400  0.39900  1.0000
  O   O7        1.0  0.84300  0.14900  0.39900  1.0000
  O   O8        1.0  0.15700  0.85100  0.60100  1.0000
  O   O9        1.0  0.15700  0.30600  0.60100  1.0000
  O   O10       1.0  0.69400  0.84700  0.60500  1.0000
  O   O11       1.0  0.32600  0.16300  0.81100  1.0000
  O   O12       1.0  0.83700  0.17000  0.81100  1.0000
  O   O13       1.0  0.83700  0.66700  0.81100  1.0000
  O   O14       1.0  0.34900  0.67500  0.98500  1.0000
  V   V1        1.0  0.33200  0.66600  0.12800  1.0000
  V   V2        1.0  0.00000  0.00000  0.28700  1.0000
  V   V3        1.0  0.00000  0.00000  0.50000  1.0000
  V   V4        1.0  0.00000  0.00000  0.71300  1.0000
  V   V5        1.0  0.66800  0.33400  0.87200  1.0000
