data_image0
_chemical_formula_structural       As2Br10F12
_chemical_formula_sum              "As2 Br10 F12"
_cell_length_a       6.6526
_cell_length_b       6.6526
_cell_length_c       12.0856
_cell_angle_alpha    105.054
_cell_angle_beta     101.631
_cell_angle_gamma    99.3179

_space_group_name_H-M_alt    "P 1"
_space_group_IT_number       1

loop_
  _space_group_symop_operation_xyz
  'x, y, z'

loop_
  _atom_site_type_symbol
  _atom_site_label
  _atom_site_symmetry_multiplicity
  _atom_site_fract_x
  _atom_site_fract_y
  _atom_site_fract_z
  _atom_site_occupancy
  As  As1       1.0  0.63200  0.88200  0.25000  1.0000
  As  As2       1.0  0.36800  0.11800  0.75000  1.0000
  Br  Br1       1.0  0.00000  0.00000  0.00000  1.0000
  Br  Br2       1.0  0.16800  0.39100  0.08030  1.0000
  Br  Br3       1.0  0.90800  0.46600  0.17200  1.0000
  Br  Br4       1.0  0.29400  0.23500  0.32800  1.0000
  Br  Br5       1.0  0.31000  0.58800  0.42000  1.0000
  Br  Br6       1.0  0.00000  0.50000  0.50000  1.0000
  Br  Br7       1.0  0.69000  0.41200  0.58000  1.0000
  Br  Br8       1.0  0.70600  0.76500  0.67200  1.0000
  Br  Br9       1.0  0.09240  0.53400  0.82800  1.0000
  Br  Br10      1.0  0.83200  0.60900  0.92000  1.0000
  F   F1        1.0  0.58600  0.75700  0.09510  1.0000
  F   F2        1.0  0.64300  0.13100  0.22600  1.0000
  F   F3        1.0  0.35200  0.84600  0.23000  1.0000
  F   F4        1.0  0.61600  0.62200  0.27000  1.0000
  F   F5        1.0  0.90500  0.91700  0.27400  1.0000
  F   F6        1.0  0.66200  0.99000  0.40500  1.0000
  F   F7        1.0  0.33800  0.00951  0.59500  1.0000
  F   F8        1.0  0.09490  0.08300  0.72600  1.0000
  F   F9        1.0  0.38400  0.37800  0.73000  1.0000
  F   F10       1.0  0.64800  0.15400  0.77000  1.0000
  F   F11       1.0  0.35700  0.86900  0.77400  1.0000
  F   F12       1.0  0.41400  0.24300  0.90500  1.0000
