data_image0
_chemical_formula_structural       Cu10K4Te10
_chemical_formula_sum              "Cu10 K4 Te10"
_cell_length_a       8.27165
_cell_length_b       4.12276
_cell_length_c       18.7028
_cell_angle_alpha    90
_cell_angle_beta     90
_cell_angle_gamma    104.431

_space_group_name_H-M_alt    "P 1"
_space_group_IT_number       1

loop_
  _space_group_symop_operation_xyz
  'x, y, z'

loop_
  _atom_site_type_symbol
  _atom_site_label
  _atom_site_symmetry_multiplicity
  _atom_site_fract_x
  _atom_site_fract_y
  _atom_site_fract_z
  _atom_site_occupancy
  Cu  Cu1       1.0  0.44700  0.72300  0.04150  1.0000
  Cu  Cu2       1.0  0.39800  0.19900  0.14800  1.0000
  Cu  Cu3       1.0  0.34500  0.67300  0.25000  1.0000
  Cu  Cu4       1.0  0.39800  0.19900  0.35200  1.0000
  Cu  Cu5       1.0  0.44700  0.72300  0.45900  1.0000
  Cu  Cu6       1.0  0.55300  0.27700  0.54100  1.0000
  Cu  Cu7       1.0  0.60200  0.80100  0.64800  1.0000
  Cu  Cu8       1.0  0.65500  0.32700  0.75000  1.0000
  Cu  Cu9       1.0  0.60200  0.80100  0.85200  1.0000
  Cu  Cu10      1.0  0.55300  0.27700  0.95900  1.0000
  K   K1        1.0  0.96400  0.48200  0.11800  1.0000
  K   K2        1.0  0.96400  0.48200  0.38200  1.0000
  K   K3        1.0  0.03590  0.51800  0.61800  1.0000
  K   K4        1.0  0.03590  0.51800  0.88200  1.0000
  Te  Te1       1.0  0.25400  0.12700  0.02020  1.0000
  Te  Te2       1.0  0.60700  0.80400  0.16700  1.0000
  Te  Te3       1.0  0.15600  0.07780  0.25000  1.0000
  Te  Te4       1.0  0.60700  0.80400  0.33300  1.0000
  Te  Te5       1.0  0.25400  0.12700  0.48000  1.0000
  Te  Te6       1.0  0.74600  0.87300  0.52000  1.0000
  Te  Te7       1.0  0.39300  0.19600  0.66700  1.0000
  Te  Te8       1.0  0.84400  0.92200  0.75000  1.0000
  Te  Te9       1.0  0.39300  0.19600  0.83300  1.0000
  Te  Te10      1.0  0.74600  0.87300  0.98000  1.0000
