data_image0
_chemical_formula_structural       Ba8Cu4I4O8
_chemical_formula_sum              "Ba8 Cu4 I4 O8"
_cell_length_a       11.0742
_cell_length_b       4.39027
_cell_length_c       14.0225
_cell_angle_alpha    90
_cell_angle_beta     91.1537
_cell_angle_gamma    90

_space_group_name_H-M_alt    "P 1"
_space_group_IT_number       1

loop_
  _space_group_symop_operation_xyz
  'x, y, z'

loop_
  _atom_site_type_symbol
  _atom_site_label
  _atom_site_symmetry_multiplicity
  _atom_site_fract_x
  _atom_site_fract_y
  _atom_site_fract_z
  _atom_site_occupancy
  Ba  Ba1       1.0  0.29800  0.75000  0.10500  1.0000
  Ba  Ba2       1.0  0.82800  0.75000  0.14500  1.0000
  Ba  Ba3       1.0  0.08950  0.25000  0.32200  1.0000
  Ba  Ba4       1.0  0.58200  0.25000  0.40400  1.0000
  Ba  Ba5       1.0  0.41800  0.75000  0.59600  1.0000
  Ba  Ba6       1.0  0.91100  0.75000  0.67800  1.0000
  Ba  Ba7       1.0  0.17200  0.25000  0.85500  1.0000
  Ba  Ba8       1.0  0.70200  0.25000  0.89500  1.0000
  Cu  Cu1       1.0  0.06520  0.25000  0.09090  1.0000
  Cu  Cu2       1.0  0.33100  0.75000  0.34600  1.0000
  Cu  Cu3       1.0  0.66900  0.25000  0.65400  1.0000
  Cu  Cu4       1.0  0.93500  0.75000  0.90900  1.0000
  I   I1        1.0  0.56300  0.25000  0.14400  1.0000
  I   I2        1.0  0.84800  0.75000  0.41500  1.0000
  I   I3        1.0  0.15200  0.25000  0.58500  1.0000
  I   I4        1.0  0.43700  0.75000  0.85600  1.0000
  O   O1        1.0  0.21000  0.25000  0.03340  1.0000
  O   O2        1.0  0.94300  0.25000  0.17400  1.0000
  O   O3        1.0  0.19700  0.75000  0.27100  1.0000
  O   O4        1.0  0.46600  0.75000  0.41800  1.0000
  O   O5        1.0  0.53400  0.25000  0.58200  1.0000
  O   O6        1.0  0.80300  0.25000  0.72900  1.0000
  O   O7        1.0  0.05750  0.75000  0.82600  1.0000
  O   O8        1.0  0.79000  0.75000  0.96700  1.0000
