data_image0
_chemical_formula_structural       Ca8N12P4
_chemical_formula_sum              "Ca8 N12 P4"
_cell_length_a       5.18565
_cell_length_b       5.76215
_cell_length_c       11.2365
_cell_angle_alpha    90
_cell_angle_beta     90
_cell_angle_gamma    63.2579

_space_group_name_H-M_alt    "P 1"
_space_group_IT_number       1

loop_
  _space_group_symop_operation_xyz
  'x, y, z'

loop_
  _atom_site_type_symbol
  _atom_site_label
  _atom_site_symmetry_multiplicity
  _atom_site_fract_x
  _atom_site_fract_y
  _atom_site_fract_z
  _atom_site_occupancy
  Ca  Ca1       1.0  0.63800  0.72400  0.07410  1.0000
  Ca  Ca2       1.0  0.94900  0.10300  0.14200  1.0000
  Ca  Ca3       1.0  0.44900  0.10300  0.35800  1.0000
  Ca  Ca4       1.0  0.13800  0.72400  0.42600  1.0000
  Ca  Ca5       1.0  0.86200  0.27600  0.57400  1.0000
  Ca  Ca6       1.0  0.55100  0.89700  0.64200  1.0000
  Ca  Ca7       1.0  0.05140  0.89700  0.85800  1.0000
  Ca  Ca8       1.0  0.36200  0.27600  0.92600  1.0000
  N   N1        1.0  0.16000  0.67900  0.04940  1.0000
  N   N2        1.0  0.41300  0.17400  0.14000  1.0000
  N   N3        1.0  0.46200  0.57700  0.25000  1.0000
  N   N4        1.0  0.96200  0.57700  0.25000  1.0000
  N   N5        1.0  0.91300  0.17400  0.36000  1.0000
  N   N6        1.0  0.66000  0.67900  0.45100  1.0000
  N   N7        1.0  0.34000  0.32100  0.54900  1.0000
  N   N8        1.0  0.08700  0.82600  0.64000  1.0000
  N   N9        1.0  0.03850  0.42300  0.75000  1.0000
  N   N10       1.0  0.53800  0.42300  0.75000  1.0000
  N   N11       1.0  0.58700  0.82600  0.86000  1.0000
  N   N12       1.0  0.84000  0.32100  0.95100  1.0000
  P   P1        1.0  0.25600  0.48700  0.16500  1.0000
  P   P2        1.0  0.75600  0.48700  0.33500  1.0000
  P   P3        1.0  0.24400  0.51300  0.66500  1.0000
  P   P4        1.0  0.74400  0.51300  0.83500  1.0000
