data_image0
_chemical_formula_structural       Mn6Na4O14
_chemical_formula_sum              "Mn6 Na4 O14"
_cell_length_a       6.56672
_cell_length_b       6.77673
_cell_length_c       7.56465
_cell_angle_alpha    106.021
_cell_angle_beta     107.066
_cell_angle_gamma    110.446

_space_group_name_H-M_alt    "P 1"
_space_group_IT_number       1

loop_
  _space_group_symop_operation_xyz
  'x, y, z'

loop_
  _atom_site_type_symbol
  _atom_site_label
  _atom_site_symmetry_multiplicity
  _atom_site_fract_x
  _atom_site_fract_y
  _atom_site_fract_z
  _atom_site_occupancy
  Mn  Mn1       1.0  0.35800  0.36100  0.08100  1.0000
  Mn  Mn2       1.0  0.07460  0.08070  0.22000  1.0000
  Mn  Mn3       1.0  0.78000  0.78100  0.35900  1.0000
  Mn  Mn4       1.0  0.22000  0.21900  0.64100  1.0000
  Mn  Mn5       1.0  0.92500  0.91900  0.78000  1.0000
  Mn  Mn6       1.0  0.64200  0.63900  0.91900  1.0000
  Na  Na1       1.0  0.33800  0.82700  0.07840  1.0000
  Na  Na2       1.0  0.25500  0.69100  0.49400  1.0000
  Na  Na3       1.0  0.74500  0.30900  0.50600  1.0000
  Na  Na4       1.0  0.66200  0.17300  0.92200  1.0000
  O   O1        1.0  0.02640  0.21000  0.02410  1.0000
  O   O2        1.0  0.69300  0.51000  0.12800  1.0000
  O   O3        1.0  0.73400  0.91800  0.16000  1.0000
  O   O4        1.0  0.39000  0.20000  0.24300  1.0000
  O   O5        1.0  0.45000  0.64600  0.28700  1.0000
  O   O6        1.0  0.12600  0.94200  0.40700  1.0000
  O   O7        1.0  0.12200  0.32200  0.44400  1.0000
  O   O8        1.0  0.87800  0.67800  0.55600  1.0000
  O   O9        1.0  0.87400  0.05750  0.59300  1.0000
  O   O10       1.0  0.55000  0.35400  0.71300  1.0000
  O   O11       1.0  0.61000  0.80000  0.75700  1.0000
  O   O12       1.0  0.26600  0.08250  0.84000  1.0000
  O   O13       1.0  0.30700  0.49000  0.87200  1.0000
  O   O14       1.0  0.97400  0.79000  0.97600  1.0000
