data_image0
_chemical_formula_structural       Ag8Hf4S12
_chemical_formula_sum              "Ag8 Hf4 S12"
_cell_length_a       6.67933
_cell_length_b       6.67933
_cell_length_c       12.7458
_cell_angle_alpha    90
_cell_angle_beta     90
_cell_angle_gamma    119.876

_space_group_name_H-M_alt    "P 1"
_space_group_IT_number       1

loop_
  _space_group_symop_operation_xyz
  'x, y, z'

loop_
  _atom_site_type_symbol
  _atom_site_label
  _atom_site_symmetry_multiplicity
  _atom_site_fract_x
  _atom_site_fract_y
  _atom_site_fract_z
  _atom_site_occupancy
  Ag  Ag1       1.0  0.52500  0.52500  0.18000  1.0000
  Ag  Ag2       1.0  0.85200  0.35200  0.25000  1.0000
  Ag  Ag3       1.0  0.35200  0.85200  0.25000  1.0000
  Ag  Ag4       1.0  0.02520  0.02520  0.32000  1.0000
  Ag  Ag5       1.0  0.97500  0.97500  0.68000  1.0000
  Ag  Ag6       1.0  0.64800  0.14800  0.75000  1.0000
  Ag  Ag7       1.0  0.14800  0.64800  0.75000  1.0000
  Ag  Ag8       1.0  0.47500  0.47500  0.82000  1.0000
  Hf  Hf1       1.0  0.83800  0.16200  0.00000  1.0000
  Hf  Hf2       1.0  0.16200  0.83800  0.00000  1.0000
  Hf  Hf3       1.0  0.66200  0.33800  0.50000  1.0000
  Hf  Hf4       1.0  0.33800  0.66200  0.50000  1.0000
  S   S1        1.0  0.50200  0.15400  0.10300  1.0000
  S   S2        1.0  0.15400  0.50200  0.10300  1.0000
  S   S3        1.0  0.88900  0.88900  0.12400  1.0000
  S   S4        1.0  0.38900  0.38900  0.37600  1.0000
  S   S5        1.0  0.65400  0.00210  0.39700  1.0000
  S   S6        1.0  0.00210  0.65400  0.39700  1.0000
  S   S7        1.0  0.99800  0.34600  0.60300  1.0000
  S   S8        1.0  0.34600  0.99800  0.60300  1.0000
  S   S9        1.0  0.61100  0.61100  0.62400  1.0000
  S   S10       1.0  0.11100  0.11100  0.87600  1.0000
  S   S11       1.0  0.84600  0.49800  0.89700  1.0000
  S   S12       1.0  0.49800  0.84600  0.89700  1.0000
