data_image0
_chemical_formula_structural       Ga10N2Sr12
_chemical_formula_sum              "Ga10 N2 Sr12"
_cell_length_a       7.58121
_cell_length_b       7.58121
_cell_length_c       14.1826
_cell_angle_alpha    105.502
_cell_angle_beta     90
_cell_angle_gamma    60

_space_group_name_H-M_alt    "P 1"
_space_group_IT_number       1

loop_
  _space_group_symop_operation_xyz
  'x, y, z'

loop_
  _atom_site_type_symbol
  _atom_site_label
  _atom_site_symmetry_multiplicity
  _atom_site_fract_x
  _atom_site_fract_y
  _atom_site_fract_z
  _atom_site_occupancy
  Ga  Ga1       1.0  0.30600  0.38900  0.08350  1.0000
  Ga  Ga2       1.0  0.25000  0.29100  0.25000  1.0000
  Ga  Ga3       1.0  0.45900  0.50000  0.25000  1.0000
  Ga  Ga4       1.0  0.04140  0.70900  0.25000  1.0000
  Ga  Ga5       1.0  0.19400  0.61100  0.41700  1.0000
  Ga  Ga6       1.0  0.80600  0.38900  0.58300  1.0000
  Ga  Ga7       1.0  0.95900  0.29100  0.75000  1.0000
  Ga  Ga8       1.0  0.54100  0.50000  0.75000  1.0000
  Ga  Ga9       1.0  0.75000  0.70900  0.75000  1.0000
  Ga  Ga10      1.0  0.69400  0.61100  0.91700  1.0000
  N   N1        1.0  0.00000  0.00000  0.00000  1.0000
  N   N2        1.0  0.50000  0.00000  0.50000  1.0000
  Sr  Sr1       1.0  0.86400  0.39300  0.10800  1.0000
  Sr  Sr2       1.0  0.28500  0.85100  0.10800  1.0000
  Sr  Sr3       1.0  0.74300  0.97200  0.10800  1.0000
  Sr  Sr4       1.0  0.21500  0.02770  0.39200  1.0000
  Sr  Sr5       1.0  0.63600  0.14900  0.39200  1.0000
  Sr  Sr6       1.0  0.75700  0.60700  0.39200  1.0000
  Sr  Sr7       1.0  0.24300  0.39300  0.60800  1.0000
  Sr  Sr8       1.0  0.36400  0.85100  0.60800  1.0000
  Sr  Sr9       1.0  0.78500  0.97200  0.60800  1.0000
  Sr  Sr10      1.0  0.25700  0.02770  0.89200  1.0000
  Sr  Sr11      1.0  0.71500  0.14900  0.89200  1.0000
  Sr  Sr12      1.0  0.13600  0.60700  0.89200  1.0000
