data_image0
_chemical_formula_structural       O14P4Rb4Sr2
_chemical_formula_sum              "O14 P4 Rb4 Sr2"
_cell_length_a       5.83265
_cell_length_b       5.89046
_cell_length_c       13.1761
_cell_angle_alpha    91.6527
_cell_angle_beta     102.787
_cell_angle_gamma    60.3241

_space_group_name_H-M_alt    "P 1"
_space_group_IT_number       1

loop_
  _space_group_symop_operation_xyz
  'x, y, z'

loop_
  _atom_site_type_symbol
  _atom_site_label
  _atom_site_symmetry_multiplicity
  _atom_site_fract_x
  _atom_site_fract_y
  _atom_site_fract_z
  _atom_site_occupancy
  O   O1        1.0  0.27100  0.21500  0.06100  1.0000
  O   O2        1.0  0.31700  0.61000  0.12400  1.0000
  O   O3        1.0  0.74200  0.16000  0.13900  1.0000
  O   O4        1.0  0.40000  0.25000  0.25000  1.0000
  O   O5        1.0  0.76300  0.34000  0.36100  1.0000
  O   O6        1.0  0.80300  0.89000  0.37600  1.0000
  O   O7        1.0  0.42500  0.28500  0.43900  1.0000
  O   O8        1.0  0.57500  0.71500  0.56100  1.0000
  O   O9        1.0  0.19700  0.11000  0.62400  1.0000
  O   O10       1.0  0.23700  0.66000  0.63900  1.0000
  O   O11       1.0  0.60000  0.75000  0.75000  1.0000
  O   O12       1.0  0.25800  0.84000  0.86100  1.0000
  O   O13       1.0  0.68300  0.39000  0.87600  1.0000
  O   O14       1.0  0.72900  0.78500  0.93900  1.0000
  P   P1        1.0  0.43800  0.31100  0.13500  1.0000
  P   P2        1.0  0.61400  0.18900  0.36500  1.0000
  P   P3        1.0  0.38600  0.81100  0.63500  1.0000
  P   P4        1.0  0.56200  0.68900  0.86500  1.0000
  Rb  Rb1       1.0  0.80000  0.63200  0.16800  1.0000
  Rb  Rb2       1.0  0.26400  0.86800  0.33200  1.0000
  Rb  Rb3       1.0  0.73600  0.13200  0.66800  1.0000
  Rb  Rb4       1.0  0.20000  0.36800  0.83200  1.0000
  Sr  Sr1       1.0  0.00000  0.00000  0.00000  1.0000
  Sr  Sr2       1.0  0.00000  0.50000  0.50000  1.0000
