data_image0
_chemical_formula_structural       Cu4Na4S12Ti4
_chemical_formula_sum              "Cu4 Na4 S12 Ti4"
_cell_length_a       12.8448
_cell_length_b       3.56237
_cell_length_c       9.58745
_cell_angle_alpha    90
_cell_angle_beta     90
_cell_angle_gamma    90

_space_group_name_H-M_alt    "P 1"
_space_group_IT_number       1

loop_
  _space_group_symop_operation_xyz
  'x, y, z'

loop_
  _atom_site_type_symbol
  _atom_site_label
  _atom_site_symmetry_multiplicity
  _atom_site_fract_x
  _atom_site_fract_y
  _atom_site_fract_z
  _atom_site_occupancy
  Cu  Cu1       1.0  0.01310  0.75000  0.09610  1.0000
  Cu  Cu2       1.0  0.51300  0.75000  0.40400  1.0000
  Cu  Cu3       1.0  0.48700  0.25000  0.59600  1.0000
  Cu  Cu4       1.0  0.98700  0.25000  0.90400  1.0000
  Na  Na1       1.0  0.23400  0.25000  0.04280  1.0000
  Na  Na2       1.0  0.73400  0.25000  0.45700  1.0000
  Na  Na3       1.0  0.26600  0.75000  0.54300  1.0000
  Na  Na4       1.0  0.76600  0.75000  0.95700  1.0000
  S   S1        1.0  0.40600  0.75000  0.06560  1.0000
  S   S2        1.0  0.90000  0.25000  0.12900  1.0000
  S   S3        1.0  0.63600  0.75000  0.23700  1.0000
  S   S4        1.0  0.13600  0.75000  0.26300  1.0000
  S   S5        1.0  0.40000  0.25000  0.37100  1.0000
  S   S6        1.0  0.90600  0.75000  0.43400  1.0000
  S   S7        1.0  0.09440  0.25000  0.56600  1.0000
  S   S8        1.0  0.60000  0.75000  0.62900  1.0000
  S   S9        1.0  0.86400  0.25000  0.73700  1.0000
  S   S10       1.0  0.36400  0.25000  0.76300  1.0000
  S   S11       1.0  0.10000  0.75000  0.87100  1.0000
  S   S12       1.0  0.59400  0.25000  0.93400  1.0000
  Ti  Ti1       1.0  0.51300  0.25000  0.17400  1.0000
  Ti  Ti2       1.0  0.01280  0.25000  0.32600  1.0000
  Ti  Ti3       1.0  0.98700  0.75000  0.67400  1.0000
  Ti  Ti4       1.0  0.48700  0.75000  0.82600  1.0000
