data_image0
_chemical_formula_structural       Li4O14P4Pd2
_chemical_formula_sum              "Li4 O14 P4 Pd2"
_cell_length_a       5.90632
_cell_length_b       7.21595
_cell_length_c       7.8847
_cell_angle_alpha    117.232
_cell_angle_beta     111.996
_cell_angle_gamma    90

_space_group_name_H-M_alt    "P 1"
_space_group_IT_number       1

loop_
  _space_group_symop_operation_xyz
  'x, y, z'

loop_
  _atom_site_type_symbol
  _atom_site_label
  _atom_site_symmetry_multiplicity
  _atom_site_fract_x
  _atom_site_fract_y
  _atom_site_fract_z
  _atom_site_occupancy
  Li  Li1       1.0  0.23100  0.23100  0.46200  1.0000
  Li  Li2       1.0  0.23100  0.73100  0.46200  1.0000
  Li  Li3       1.0  0.76900  0.26900  0.53800  1.0000
  Li  Li4       1.0  0.76900  0.76900  0.53800  1.0000
  O   O1        1.0  0.51500  0.25000  0.00000  1.0000
  O   O2        1.0  0.48500  0.75000  0.00000  1.0000
  O   O3        1.0  0.33300  0.04750  0.23400  1.0000
  O   O4        1.0  0.90100  0.18700  0.23400  1.0000
  O   O5        1.0  0.90100  0.54800  0.23400  1.0000
  O   O6        1.0  0.33300  0.68700  0.23400  1.0000
  O   O7        1.0  0.67600  0.45100  0.40300  1.0000
  O   O8        1.0  0.72700  0.95100  0.40300  1.0000
  O   O9        1.0  0.27300  0.04860  0.59700  1.0000
  O   O10       1.0  0.32400  0.54900  0.59700  1.0000
  O   O11       1.0  0.66700  0.31300  0.76600  1.0000
  O   O12       1.0  0.09890  0.45200  0.76600  1.0000
  O   O13       1.0  0.09890  0.81300  0.76600  1.0000
  O   O14       1.0  0.66700  0.95200  0.76600  1.0000
  P   P1        1.0  0.75500  0.36300  0.22500  1.0000
  P   P2        1.0  0.47100  0.86300  0.22500  1.0000
  P   P3        1.0  0.52900  0.13700  0.77500  1.0000
  P   P4        1.0  0.24500  0.63700  0.77500  1.0000
  Pd  Pd1       1.0  0.00000  0.00000  0.00000  1.0000
  Pd  Pd2       1.0  0.00000  0.50000  0.00000  1.0000
