data_image0
_chemical_formula_structural       Al12Fe4Si8
_chemical_formula_sum              "Al12 Fe4 Si8"
_cell_length_a       6.04724
_cell_length_b       6.05512
_cell_length_c       9.48665
_cell_angle_alpha    90
_cell_angle_beta     90
_cell_angle_gamma    90

_space_group_name_H-M_alt    "P 1"
_space_group_IT_number       1

loop_
  _space_group_symop_operation_xyz
  'x, y, z'

loop_
  _atom_site_type_symbol
  _atom_site_label
  _atom_site_symmetry_multiplicity
  _atom_site_fract_x
  _atom_site_fract_y
  _atom_site_fract_z
  _atom_site_occupancy
  Al  Al1       1.0  0.00000  0.00000  0.00000  1.0000
  Al  Al2       1.0  0.50000  0.50000  0.00000  1.0000
  Al  Al3       1.0  0.86100  0.36800  0.13500  1.0000
  Al  Al4       1.0  0.63900  0.86800  0.13500  1.0000
  Al  Al5       1.0  0.13900  0.36800  0.36500  1.0000
  Al  Al6       1.0  0.36100  0.86800  0.36500  1.0000
  Al  Al7       1.0  0.00000  0.00000  0.50000  1.0000
  Al  Al8       1.0  0.50000  0.50000  0.50000  1.0000
  Al  Al9       1.0  0.63900  0.13200  0.63500  1.0000
  Al  Al10      1.0  0.86100  0.63200  0.63500  1.0000
  Al  Al11      1.0  0.36100  0.13200  0.86500  1.0000
  Al  Al12      1.0  0.13900  0.63200  0.86500  1.0000
  Fe  Fe1       1.0  0.00000  0.01230  0.25000  1.0000
  Fe  Fe2       1.0  0.50000  0.51200  0.25000  1.0000
  Fe  Fe3       1.0  0.50000  0.48800  0.75000  1.0000
  Fe  Fe4       1.0  0.00000  0.98800  0.75000  1.0000
  Si  Si1       1.0  0.33700  0.17200  0.15500  1.0000
  Si  Si2       1.0  0.16300  0.67200  0.15500  1.0000
  Si  Si3       1.0  0.66300  0.17200  0.34500  1.0000
  Si  Si4       1.0  0.83700  0.67200  0.34500  1.0000
  Si  Si5       1.0  0.16300  0.32800  0.65500  1.0000
  Si  Si6       1.0  0.33700  0.82800  0.65500  1.0000
  Si  Si7       1.0  0.83700  0.32800  0.84500  1.0000
  Si  Si8       1.0  0.66300  0.82800  0.84500  1.0000
