data_image0
_chemical_formula_structural       Ba4Cu4La4S12
_chemical_formula_sum              "Ba4 Cu4 La4 S12"
_cell_length_a       11.337
_cell_length_b       4.253
_cell_length_c       11.8402
_cell_angle_alpha    90
_cell_angle_beta     90
_cell_angle_gamma    90

_space_group_name_H-M_alt    "P 1"
_space_group_IT_number       1

loop_
  _space_group_symop_operation_xyz
  'x, y, z'

loop_
  _atom_site_type_symbol
  _atom_site_label
  _atom_site_symmetry_multiplicity
  _atom_site_fract_x
  _atom_site_fract_y
  _atom_site_fract_z
  _atom_site_occupancy
  Ba  Ba1       1.0  0.68300  0.75000  0.00744  1.0000
  Ba  Ba2       1.0  0.18300  0.75000  0.49300  1.0000
  Ba  Ba3       1.0  0.81700  0.25000  0.50700  1.0000
  Ba  Ba4       1.0  0.31700  0.25000  0.99300  1.0000
  Cu  Cu1       1.0  0.25300  0.75000  0.20900  1.0000
  Cu  Cu2       1.0  0.75300  0.75000  0.29100  1.0000
  Cu  Cu3       1.0  0.24700  0.25000  0.70900  1.0000
  Cu  Cu4       1.0  0.74700  0.25000  0.79100  1.0000
  La  La1       1.0  0.99000  0.25000  0.18200  1.0000
  La  La2       1.0  0.49000  0.25000  0.31800  1.0000
  La  La3       1.0  0.51000  0.75000  0.68200  1.0000
  La  La4       1.0  0.01050  0.75000  0.81800  1.0000
  S   S1        1.0  0.11100  0.75000  0.06010  1.0000
  S   S2        1.0  0.45000  0.75000  0.15100  1.0000
  S   S3        1.0  0.72500  0.25000  0.20400  1.0000
  S   S4        1.0  0.22500  0.25000  0.29600  1.0000
  S   S5        1.0  0.95000  0.75000  0.34900  1.0000
  S   S6        1.0  0.61100  0.75000  0.44000  1.0000
  S   S7        1.0  0.38900  0.25000  0.56000  1.0000
  S   S8        1.0  0.05010  0.25000  0.65100  1.0000
  S   S9        1.0  0.77500  0.75000  0.70400  1.0000
  S   S10       1.0  0.27500  0.75000  0.79600  1.0000
  S   S11       1.0  0.55000  0.25000  0.84900  1.0000
  S   S12       1.0  0.88900  0.25000  0.94000  1.0000
