data_image0
_chemical_formula_structural       In4K8Na4Sb8
_chemical_formula_sum              "In4 K8 Na4 Sb8"
_cell_length_a       7.05218
_cell_length_b       10.8893
_cell_length_c       10.8893
_cell_angle_alpha    81.0519
_cell_angle_beta     90
_cell_angle_gamma    90

_space_group_name_H-M_alt    "P 1"
_space_group_IT_number       1

loop_
  _space_group_symop_operation_xyz
  'x, y, z'

loop_
  _atom_site_type_symbol
  _atom_site_label
  _atom_site_symmetry_multiplicity
  _atom_site_fract_x
  _atom_site_fract_y
  _atom_site_fract_z
  _atom_site_occupancy
  In  In1       1.0  0.00000  0.86800  0.13200  1.0000
  In  In2       1.0  0.50000  0.63200  0.36800  1.0000
  In  In3       1.0  0.50000  0.36800  0.63200  1.0000
  In  In4       1.0  0.00000  0.13200  0.86800  1.0000
  K   K1        1.0  0.25000  0.57700  0.07650  1.0000
  K   K2        1.0  0.27900  0.17300  0.17300  1.0000
  K   K3        1.0  0.77900  0.32700  0.32700  1.0000
  K   K4        1.0  0.75000  0.92300  0.42300  1.0000
  K   K5        1.0  0.25000  0.07650  0.57700  1.0000
  K   K6        1.0  0.22100  0.67300  0.67300  1.0000
  K   K7        1.0  0.72100  0.82700  0.82700  1.0000
  K   K8        1.0  0.75000  0.42300  0.92300  1.0000
  Na  Na1       1.0  0.50000  0.88100  0.11900  1.0000
  Na  Na2       1.0  0.00000  0.61900  0.38100  1.0000
  Na  Na3       1.0  0.00000  0.38100  0.61900  1.0000
  Na  Na4       1.0  0.50000  0.11900  0.88100  1.0000
  Sb  Sb1       1.0  0.79400  0.10600  0.10600  1.0000
  Sb  Sb2       1.0  0.75000  0.64400  0.14400  1.0000
  Sb  Sb3       1.0  0.25000  0.85600  0.35600  1.0000
  Sb  Sb4       1.0  0.29400  0.39400  0.39400  1.0000
  Sb  Sb5       1.0  0.70600  0.60600  0.60600  1.0000
  Sb  Sb6       1.0  0.75000  0.14400  0.64400  1.0000
  Sb  Sb7       1.0  0.25000  0.35600  0.85600  1.0000
  Sb  Sb8       1.0  0.20600  0.89400  0.89400  1.0000
