data_image0
_chemical_formula_structural       Cl2In2K12Te8
_chemical_formula_sum              "Cl2 In2 K12 Te8"
_cell_length_a       11.4502
_cell_length_b       11.4506
_cell_length_c       8.1115
_cell_angle_alpha    90
_cell_angle_beta     90
_cell_angle_gamma    119.999

_space_group_name_H-M_alt    "P 1"
_space_group_IT_number       1

loop_
  _space_group_symop_operation_xyz
  'x, y, z'

loop_
  _atom_site_type_symbol
  _atom_site_label
  _atom_site_symmetry_multiplicity
  _atom_site_fract_x
  _atom_site_fract_y
  _atom_site_fract_z
  _atom_site_occupancy
  Cl  Cl1       1.0  0.00000  0.00000  0.27700  1.0000
  Cl  Cl2       1.0  0.00000  0.00000  0.77700  1.0000
  In  In1       1.0  0.33300  0.66700  0.20500  1.0000
  In  In2       1.0  0.66700  0.33300  0.70500  1.0000
  K   K1        1.0  0.24900  0.12500  0.01850  1.0000
  K   K2        1.0  0.87500  0.12500  0.01850  1.0000
  K   K3        1.0  0.87500  0.75100  0.01850  1.0000
  K   K4        1.0  0.52100  0.04190  0.31900  1.0000
  K   K5        1.0  0.52100  0.47900  0.31900  1.0000
  K   K6        1.0  0.95800  0.47900  0.31900  1.0000
  K   K7        1.0  0.12500  0.87500  0.51900  1.0000
  K   K8        1.0  0.75100  0.87500  0.51900  1.0000
  K   K9        1.0  0.12500  0.24900  0.51900  1.0000
  K   K10       1.0  0.47900  0.95800  0.81900  1.0000
  K   K11       1.0  0.04190  0.52100  0.81900  1.0000
  K   K12       1.0  0.47900  0.52100  0.81900  1.0000
  Te  Te1       1.0  0.66700  0.33300  0.05330  1.0000
  Te  Te2       1.0  0.19800  0.39700  0.09770  1.0000
  Te  Te3       1.0  0.19800  0.80200  0.09770  1.0000
  Te  Te4       1.0  0.60300  0.80200  0.09770  1.0000
  Te  Te5       1.0  0.33300  0.66700  0.55300  1.0000
  Te  Te6       1.0  0.80200  0.60300  0.59800  1.0000
  Te  Te7       1.0  0.39700  0.19800  0.59800  1.0000
  Te  Te8       1.0  0.80200  0.19800  0.59800  1.0000
