data_image0
_chemical_formula_structural       Ag2Nb6O16
_chemical_formula_sum              "Ag2 Nb6 O16"
_cell_length_a       7.05062
_cell_length_b       7.30947
_cell_length_c       7.30947
_cell_angle_alpha    91.3226
_cell_angle_beta     118.835
_cell_angle_gamma    118.835

_space_group_name_H-M_alt    "P 1"
_space_group_IT_number       1

loop_
  _space_group_symop_operation_xyz
  'x, y, z'

loop_
  _atom_site_type_symbol
  _atom_site_label
  _atom_site_symmetry_multiplicity
  _atom_site_fract_x
  _atom_site_fract_y
  _atom_site_fract_z
  _atom_site_occupancy
  Ag  Ag1       1.0  0.25000  0.00000  0.00000  1.0000
  Ag  Ag2       1.0  0.75000  0.00000  0.00000  1.0000
  Nb  Nb1       1.0  0.74700  0.47900  0.01500  1.0000
  Nb  Nb2       1.0  0.24700  0.01500  0.47900  1.0000
  Nb  Nb3       1.0  0.25000  0.50000  0.50000  1.0000
  Nb  Nb4       1.0  0.75000  0.50000  0.50000  1.0000
  Nb  Nb5       1.0  0.75300  0.98500  0.52100  1.0000
  Nb  Nb6       1.0  0.25300  0.52100  0.98500  1.0000
  O   O1        1.0  0.49200  0.82300  0.16000  1.0000
  O   O2        1.0  0.10500  0.45100  0.16500  1.0000
  O   O3        1.0  0.51000  0.45100  0.16500  1.0000
  O   O4        1.0  0.00844  0.84000  0.17700  1.0000
  O   O5        1.0  0.88700  0.45700  0.31600  1.0000
  O   O6        1.0  0.01020  0.16500  0.45100  1.0000
  O   O7        1.0  0.60500  0.16500  0.45100  1.0000
  O   O8        1.0  0.38700  0.31600  0.45700  1.0000
  O   O9        1.0  0.61300  0.68400  0.54300  1.0000
  O   O10       1.0  0.39500  0.83500  0.54900  1.0000
  O   O11       1.0  0.99000  0.83500  0.54900  1.0000
  O   O12       1.0  0.11300  0.54300  0.68400  1.0000
  O   O13       1.0  0.99200  0.16000  0.82300  1.0000
  O   O14       1.0  0.49000  0.54900  0.83500  1.0000
  O   O15       1.0  0.89500  0.54900  0.83500  1.0000
  O   O16       1.0  0.50800  0.17700  0.84000  1.0000
