data_image0
_chemical_formula_structural       Hg4Rb4Sb4Se12
_chemical_formula_sum              "Hg4 Rb4 Sb4 Se12"
_cell_length_a       7.84807
_cell_length_b       11.3912
_cell_length_c       8.98028
_cell_angle_alpha    90
_cell_angle_beta     106.569
_cell_angle_gamma    90

_space_group_name_H-M_alt    "P 1"
_space_group_IT_number       1

loop_
  _space_group_symop_operation_xyz
  'x, y, z'

loop_
  _atom_site_type_symbol
  _atom_site_label
  _atom_site_symmetry_multiplicity
  _atom_site_fract_x
  _atom_site_fract_y
  _atom_site_fract_z
  _atom_site_occupancy
  Hg  Hg1       1.0  0.59200  0.75100  0.02300  1.0000
  Hg  Hg2       1.0  0.40800  0.25100  0.47700  1.0000
  Hg  Hg3       1.0  0.59200  0.74900  0.52300  1.0000
  Hg  Hg4       1.0  0.40800  0.24900  0.97700  1.0000
  Rb  Rb1       1.0  0.98800  0.25800  0.12100  1.0000
  Rb  Rb2       1.0  0.01210  0.75800  0.37900  1.0000
  Rb  Rb3       1.0  0.98800  0.24200  0.62100  1.0000
  Rb  Rb4       1.0  0.01210  0.74200  0.87900  1.0000
  Sb  Sb1       1.0  0.44600  0.99900  0.23600  1.0000
  Sb  Sb2       1.0  0.55400  0.49900  0.26400  1.0000
  Sb  Sb3       1.0  0.44600  0.50100  0.73600  1.0000
  Sb  Sb4       1.0  0.55400  0.00100  0.76400  1.0000
  Se  Se1       1.0  0.77000  0.95200  0.04180  1.0000
  Se  Se2       1.0  0.77200  0.55000  0.09510  1.0000
  Se  Se3       1.0  0.36900  0.77100  0.21800  1.0000
  Se  Se4       1.0  0.63100  0.27100  0.28200  1.0000
  Se  Se5       1.0  0.22800  0.04970  0.40500  1.0000
  Se  Se6       1.0  0.23000  0.45200  0.45800  1.0000
  Se  Se7       1.0  0.77000  0.54800  0.54200  1.0000
  Se  Se8       1.0  0.77200  0.95000  0.59500  1.0000
  Se  Se9       1.0  0.36900  0.72900  0.71800  1.0000
  Se  Se10      1.0  0.63100  0.22900  0.78200  1.0000
  Se  Se11      1.0  0.22800  0.45000  0.90500  1.0000
  Se  Se12      1.0  0.23000  0.04810  0.95800  1.0000
