data_image0
_chemical_formula_structural       Ba8N12Ta4
_chemical_formula_sum              "Ba8 N12 Ta4"
_cell_length_a       6.16357
_cell_length_b       6.69049
_cell_length_c       13.2883
_cell_angle_alpha    90.5699
_cell_angle_beta     91.2372
_cell_angle_gamma    62.5728

_space_group_name_H-M_alt    "P 1"
_space_group_IT_number       1

loop_
  _space_group_symop_operation_xyz
  'x, y, z'

loop_
  _atom_site_type_symbol
  _atom_site_label
  _atom_site_symmetry_multiplicity
  _atom_site_fract_x
  _atom_site_fract_y
  _atom_site_fract_z
  _atom_site_occupancy
  Ba  Ba1       1.0  0.87100  0.77100  0.07630  1.0000
  Ba  Ba2       1.0  0.55300  0.39700  0.14200  1.0000
  Ba  Ba3       1.0  0.05000  0.39700  0.35800  1.0000
  Ba  Ba4       1.0  0.35800  0.77100  0.42400  1.0000
  Ba  Ba5       1.0  0.64200  0.22900  0.57600  1.0000
  Ba  Ba6       1.0  0.95000  0.60300  0.64200  1.0000
  Ba  Ba7       1.0  0.44700  0.60300  0.85800  1.0000
  Ba  Ba8       1.0  0.12900  0.22900  0.92400  1.0000
  N   N1        1.0  0.31700  0.82000  0.04780  1.0000
  N   N2        1.0  0.14800  0.31600  0.13000  1.0000
  N   N3        1.0  0.56300  0.87400  0.25000  1.0000
  N   N4        1.0  0.01140  0.97700  0.25000  1.0000
  N   N5        1.0  0.53600  0.31600  0.37000  1.0000
  N   N6        1.0  0.86300  0.82000  0.45200  1.0000
  N   N7        1.0  0.13700  0.18000  0.54800  1.0000
  N   N8        1.0  0.46400  0.68400  0.63000  1.0000
  N   N9        1.0  0.98900  0.02280  0.75000  1.0000
  N   N10       1.0  0.43700  0.12600  0.75000  1.0000
  N   N11       1.0  0.85200  0.68400  0.87000  1.0000
  N   N12       1.0  0.68300  0.18000  0.95200  1.0000
  Ta  Ta1       1.0  0.25800  0.00373  0.16600  1.0000
  Ta  Ta2       1.0  0.73800  0.00373  0.33400  1.0000
  Ta  Ta3       1.0  0.26200  0.99600  0.66600  1.0000
  Ta  Ta4       1.0  0.74200  0.99600  0.83400  1.0000
