data_image0
_chemical_formula_structural       Cu4O8Rb12
_chemical_formula_sum              "Cu4 O8 Rb12"
_cell_length_a       9.26876
_cell_length_b       9.64736
_cell_length_c       6.72037
_cell_angle_alpha    90
_cell_angle_beta     110.308
_cell_angle_gamma    90

_space_group_name_H-M_alt    "P 1"
_space_group_IT_number       1

loop_
  _space_group_symop_operation_xyz
  'x, y, z'

loop_
  _atom_site_type_symbol
  _atom_site_label
  _atom_site_symmetry_multiplicity
  _atom_site_fract_x
  _atom_site_fract_y
  _atom_site_fract_z
  _atom_site_occupancy
  Cu  Cu1       1.0  0.32700  0.67900  0.03560  1.0000
  Cu  Cu2       1.0  0.17300  0.17900  0.46400  1.0000
  Cu  Cu3       1.0  0.82700  0.82100  0.53600  1.0000
  Cu  Cu4       1.0  0.67300  0.32100  0.96400  1.0000
  O   O1        1.0  0.62200  0.19900  0.13200  1.0000
  O   O2        1.0  0.27800  0.56100  0.21000  1.0000
  O   O3        1.0  0.22200  0.06070  0.29000  1.0000
  O   O4        1.0  0.87800  0.69900  0.36800  1.0000
  O   O5        1.0  0.12200  0.30100  0.63200  1.0000
  O   O6        1.0  0.77800  0.93900  0.71000  1.0000
  O   O7        1.0  0.72200  0.43900  0.79000  1.0000
  O   O8        1.0  0.37800  0.80100  0.86800  1.0000
  Rb  Rb1       1.0  0.31200  0.29000  0.07310  1.0000
  Rb  Rb2       1.0  0.87600  0.02370  0.14000  1.0000
  Rb  Rb3       1.0  0.99400  0.46400  0.24000  1.0000
  Rb  Rb4       1.0  0.50600  0.96400  0.26000  1.0000
  Rb  Rb5       1.0  0.62400  0.52400  0.36000  1.0000
  Rb  Rb6       1.0  0.18800  0.79000  0.42700  1.0000
  Rb  Rb7       1.0  0.81200  0.21000  0.57300  1.0000
  Rb  Rb8       1.0  0.37600  0.47600  0.64000  1.0000
  Rb  Rb9       1.0  0.49400  0.03640  0.74000  1.0000
  Rb  Rb10      1.0  0.00582  0.53600  0.76000  1.0000
  Rb  Rb11      1.0  0.12400  0.97600  0.86000  1.0000
  Rb  Rb12      1.0  0.68800  0.71000  0.92700  1.0000
