data_image0
_chemical_formula_structural       Ba4Na2Ni6O12
_chemical_formula_sum              "Ba4 Na2 Ni6 O12"
_cell_length_a       6.94461
_cell_length_b       6.94461
_cell_length_c       8.2753
_cell_angle_alpha    107.126
_cell_angle_beta     107.126
_cell_angle_gamma    107.349

_space_group_name_H-M_alt    "P 1"
_space_group_IT_number       1

loop_
  _space_group_symop_operation_xyz
  'x, y, z'

loop_
  _atom_site_type_symbol
  _atom_site_label
  _atom_site_symmetry_multiplicity
  _atom_site_fract_x
  _atom_site_fract_y
  _atom_site_fract_z
  _atom_site_occupancy
  Ba  Ba1       1.0  0.77400  0.22600  0.00000  1.0000
  Ba  Ba2       1.0  0.22600  0.77400  0.00000  1.0000
  Ba  Ba3       1.0  0.75000  0.25000  0.50000  1.0000
  Ba  Ba4       1.0  0.25000  0.75000  0.50000  1.0000
  Na  Na1       1.0  0.67400  0.67400  0.34700  1.0000
  Na  Na2       1.0  0.32600  0.32600  0.65300  1.0000
  Ni  Ni1       1.0  0.30600  0.30600  0.00000  1.0000
  Ni  Ni2       1.0  0.69400  0.69400  0.00000  1.0000
  Ni  Ni3       1.0  0.29600  0.29600  0.29000  1.0000
  Ni  Ni4       1.0  0.99400  0.99400  0.29000  1.0000
  Ni  Ni5       1.0  0.00608  0.00608  0.71000  1.0000
  Ni  Ni6       1.0  0.70400  0.70400  0.71000  1.0000
  O   O1        1.0  0.49900  0.27700  0.18600  1.0000
  O   O2        1.0  0.27700  0.49900  0.18600  1.0000
  O   O3        1.0  0.90900  0.68800  0.18600  1.0000
  O   O4        1.0  0.68800  0.90900  0.18600  1.0000
  O   O5        1.0  0.29800  0.07160  0.37000  1.0000
  O   O6        1.0  0.07160  0.29800  0.37000  1.0000
  O   O7        1.0  0.92800  0.70200  0.63000  1.0000
  O   O8        1.0  0.70200  0.92800  0.63000  1.0000
  O   O9        1.0  0.31200  0.09080  0.81400  1.0000
  O   O10       1.0  0.09080  0.31200  0.81400  1.0000
  O   O11       1.0  0.72300  0.50100  0.81400  1.0000
  O   O12       1.0  0.50100  0.72300  0.81400  1.0000
