data_image0
_chemical_formula_structural       Al4B4Ca2O14
_chemical_formula_sum              "Al4 B4 Ca2 O14"
_cell_length_a       4.81353
_cell_length_b       4.81353
_cell_length_c       15.7042
_cell_angle_alpha    98.8157
_cell_angle_beta     90
_cell_angle_gamma    60

_space_group_name_H-M_alt    "P 1"
_space_group_IT_number       1

loop_
  _space_group_symop_operation_xyz
  'x, y, z'

loop_
  _atom_site_type_symbol
  _atom_site_label
  _atom_site_symmetry_multiplicity
  _atom_site_fract_x
  _atom_site_fract_y
  _atom_site_fract_z
  _atom_site_occupancy
  Al  Al1       1.0  0.28600  0.42800  0.14200  1.0000
  Al  Al2       1.0  0.21400  0.57200  0.35800  1.0000
  Al  Al3       1.0  0.78600  0.42800  0.64200  1.0000
  Al  Al4       1.0  0.71400  0.57200  0.85800  1.0000
  B   B1        1.0  0.63400  0.73100  0.09710  1.0000
  B   B2        1.0  0.86600  0.26900  0.40300  1.0000
  B   B3        1.0  0.13400  0.73100  0.59700  1.0000
  B   B4        1.0  0.36600  0.26900  0.90300  1.0000
  Ca  Ca1       1.0  0.00000  0.00000  0.00000  1.0000
  Ca  Ca2       1.0  0.50000  0.00000  0.50000  1.0000
  O   O1        1.0  0.93600  0.69600  0.09420  1.0000
  O   O2        1.0  0.60100  0.46200  0.09420  1.0000
  O   O3        1.0  0.36800  0.03060  0.09420  1.0000
  O   O4        1.0  0.25000  0.50000  0.25000  1.0000
  O   O5        1.0  0.89900  0.96900  0.40600  1.0000
  O   O6        1.0  0.56400  0.53800  0.40600  1.0000
  O   O7        1.0  0.13200  0.30400  0.40600  1.0000
  O   O8        1.0  0.86800  0.69600  0.59400  1.0000
  O   O9        1.0  0.43600  0.46200  0.59400  1.0000
  O   O10       1.0  0.10100  0.03060  0.59400  1.0000
  O   O11       1.0  0.75000  0.50000  0.75000  1.0000
  O   O12       1.0  0.63200  0.96900  0.90600  1.0000
  O   O13       1.0  0.39900  0.53800  0.90600  1.0000
  O   O14       1.0  0.06360  0.30400  0.90600  1.0000
