data_image0
_chemical_formula_structural       Ba8Cd4Te12
_chemical_formula_sum              "Ba8 Cd4 Te12"
_cell_length_a       9.95982
_cell_length_b       4.80199
_cell_length_c       19.285
_cell_angle_alpha    90
_cell_angle_beta     90
_cell_angle_gamma    90

_space_group_name_H-M_alt    "P 1"
_space_group_IT_number       1

loop_
  _space_group_symop_operation_xyz
  'x, y, z'

loop_
  _atom_site_type_symbol
  _atom_site_label
  _atom_site_symmetry_multiplicity
  _atom_site_fract_x
  _atom_site_fract_y
  _atom_site_fract_z
  _atom_site_occupancy
  Ba  Ba1       1.0  0.75400  0.25000  0.03740  1.0000
  Ba  Ba2       1.0  0.07300  0.75000  0.21400  1.0000
  Ba  Ba3       1.0  0.57300  0.75000  0.28600  1.0000
  Ba  Ba4       1.0  0.25400  0.25000  0.46300  1.0000
  Ba  Ba5       1.0  0.74600  0.75000  0.53700  1.0000
  Ba  Ba6       1.0  0.42700  0.25000  0.71400  1.0000
  Ba  Ba7       1.0  0.92700  0.25000  0.78600  1.0000
  Ba  Ba8       1.0  0.24600  0.75000  0.96300  1.0000
  Cd  Cd1       1.0  0.37000  0.25000  0.13600  1.0000
  Cd  Cd2       1.0  0.87000  0.25000  0.36400  1.0000
  Cd  Cd3       1.0  0.13000  0.75000  0.63600  1.0000
  Cd  Cd4       1.0  0.63000  0.75000  0.86400  1.0000
  Te  Te1       1.0  0.11300  0.25000  0.07170  1.0000
  Te  Te2       1.0  0.51300  0.75000  0.09640  1.0000
  Te  Te3       1.0  0.80700  0.25000  0.22000  1.0000
  Te  Te4       1.0  0.30700  0.25000  0.28000  1.0000
  Te  Te5       1.0  0.01260  0.75000  0.40400  1.0000
  Te  Te6       1.0  0.61300  0.25000  0.42800  1.0000
  Te  Te7       1.0  0.38700  0.75000  0.57200  1.0000
  Te  Te8       1.0  0.98700  0.25000  0.59600  1.0000
  Te  Te9       1.0  0.69300  0.75000  0.72000  1.0000
  Te  Te10      1.0  0.19300  0.75000  0.78000  1.0000
  Te  Te11      1.0  0.48700  0.25000  0.90400  1.0000
  Te  Te12      1.0  0.88700  0.75000  0.92800  1.0000
