data_image0
_chemical_formula_structural       B4Ba2Ga4O14
_chemical_formula_sum              "B4 Ba2 Ga4 O14"
_cell_length_a       5.77487
_cell_length_b       7.28983
_cell_length_c       7.28983
_cell_angle_alpha    106.584
_cell_angle_beta     90
_cell_angle_gamma    90

_space_group_name_H-M_alt    "P 1"
_space_group_IT_number       1

loop_
  _space_group_symop_operation_xyz
  'x, y, z'

loop_
  _atom_site_type_symbol
  _atom_site_label
  _atom_site_symmetry_multiplicity
  _atom_site_fract_x
  _atom_site_fract_y
  _atom_site_fract_z
  _atom_site_occupancy
  B   B1        1.0  0.25000  0.50400  0.28200  1.0000
  B   B2        1.0  0.75000  0.71800  0.49600  1.0000
  B   B3        1.0  0.25000  0.28200  0.50400  1.0000
  B   B4        1.0  0.75000  0.49600  0.71800  1.0000
  Ba  Ba1       1.0  0.75000  0.19400  0.19400  1.0000
  Ba  Ba2       1.0  0.25000  0.80600  0.80600  1.0000
  Ga  Ga1       1.0  0.75000  0.70900  0.12800  1.0000
  Ga  Ga2       1.0  0.25000  0.87200  0.29100  1.0000
  Ga  Ga3       1.0  0.75000  0.12800  0.70900  1.0000
  Ga  Ga4       1.0  0.25000  0.29100  0.87200  1.0000
  O   O1        1.0  0.25000  0.49500  0.09290  1.0000
  O   O2        1.0  0.00000  0.86800  0.13200  1.0000
  O   O3        1.0  0.50000  0.86800  0.13200  1.0000
  O   O4        1.0  0.75000  0.58300  0.32100  1.0000
  O   O5        1.0  0.25000  0.33000  0.33000  1.0000
  O   O6        1.0  0.25000  0.67900  0.41700  1.0000
  O   O7        1.0  0.25000  0.09290  0.49500  1.0000
  O   O8        1.0  0.75000  0.90700  0.50500  1.0000
  O   O9        1.0  0.75000  0.32100  0.58300  1.0000
  O   O10       1.0  0.75000  0.67000  0.67000  1.0000
  O   O11       1.0  0.25000  0.41700  0.67900  1.0000
  O   O12       1.0  0.00000  0.13200  0.86800  1.0000
  O   O13       1.0  0.50000  0.13200  0.86800  1.0000
  O   O14       1.0  0.75000  0.50500  0.90700  1.0000
