data_image0
_chemical_formula_structural       Cu2Ge4O14Sr4
_chemical_formula_sum              "Cu2 Ge4 O14 Sr4"
_cell_length_a       8.24657
_cell_length_b       8.24657
_cell_length_c       5.20082
_cell_angle_alpha    90
_cell_angle_beta     90
_cell_angle_gamma    90

_space_group_name_H-M_alt    "P 1"
_space_group_IT_number       1

loop_
  _space_group_symop_operation_xyz
  'x, y, z'

loop_
  _atom_site_type_symbol
  _atom_site_label
  _atom_site_symmetry_multiplicity
  _atom_site_fract_x
  _atom_site_fract_y
  _atom_site_fract_z
  _atom_site_occupancy
  Cu  Cu1       1.0  0.00000  0.00000  0.50000  1.0000
  Cu  Cu2       1.0  0.50000  0.50000  0.50000  1.0000
  Ge  Ge1       1.0  0.64200  0.14200  0.46900  1.0000
  Ge  Ge2       1.0  0.35800  0.85800  0.46900  1.0000
  Ge  Ge3       1.0  0.14200  0.35800  0.53100  1.0000
  Ge  Ge4       1.0  0.85800  0.64200  0.53100  1.0000
  O   O1        1.0  0.13500  0.36500  0.19900  1.0000
  O   O2        1.0  0.86500  0.63500  0.19900  1.0000
  O   O3        1.0  0.82100  0.08640  0.30800  1.0000
  O   O4        1.0  0.58600  0.32100  0.30800  1.0000
  O   O5        1.0  0.41400  0.67900  0.30800  1.0000
  O   O6        1.0  0.17900  0.91400  0.30800  1.0000
  O   O7        1.0  0.50000  0.00000  0.32800  1.0000
  O   O8        1.0  0.00000  0.50000  0.67200  1.0000
  O   O9        1.0  0.08640  0.17900  0.69200  1.0000
  O   O10       1.0  0.32100  0.41400  0.69200  1.0000
  O   O11       1.0  0.67900  0.58600  0.69200  1.0000
  O   O12       1.0  0.91400  0.82100  0.69200  1.0000
  O   O13       1.0  0.63500  0.13500  0.80100  1.0000
  O   O14       1.0  0.36500  0.86500  0.80100  1.0000
  Sr  Sr1       1.0  0.83600  0.33600  0.00691  1.0000
  Sr  Sr2       1.0  0.16400  0.66400  0.00691  1.0000
  Sr  Sr3       1.0  0.33600  0.16400  0.99300  1.0000
  Sr  Sr4       1.0  0.66400  0.83600  0.99300  1.0000
