data_image0
_chemical_formula_structural       Ca2O16Se4U2
_chemical_formula_sum              "Ca2 O16 Se4 U2"
_cell_length_a       5.50711
_cell_length_b       6.6566
_cell_length_c       10.9338
_cell_angle_alpha    104.229
_cell_angle_beta     92.4265
_cell_angle_gamma    110.784

_space_group_name_H-M_alt    "P 1"
_space_group_IT_number       1

loop_
  _space_group_symop_operation_xyz
  'x, y, z'

loop_
  _atom_site_type_symbol
  _atom_site_label
  _atom_site_symmetry_multiplicity
  _atom_site_fract_x
  _atom_site_fract_y
  _atom_site_fract_z
  _atom_site_occupancy
  Ca  Ca1       1.0  0.66800  0.25200  0.44100  1.0000
  Ca  Ca2       1.0  0.33200  0.74800  0.55900  1.0000
  O   O1        1.0  0.11300  0.87600  0.03110  1.0000
  O   O2        1.0  0.45100  0.35100  0.09160  1.0000
  O   O3        1.0  0.10000  0.58100  0.16200  1.0000
  O   O4        1.0  0.88300  0.17000  0.24800  1.0000
  O   O5        1.0  0.33400  0.02400  0.25800  1.0000
  O   O6        1.0  0.44000  0.48500  0.35500  1.0000
  O   O7        1.0  0.93400  0.62100  0.43300  1.0000
  O   O8        1.0  0.68700  0.91200  0.45700  1.0000
  O   O9        1.0  0.31300  0.08790  0.54300  1.0000
  O   O10       1.0  0.06580  0.37900  0.56700  1.0000
  O   O11       1.0  0.56000  0.51500  0.64500  1.0000
  O   O12       1.0  0.66600  0.97600  0.74200  1.0000
  O   O13       1.0  0.11700  0.83000  0.75200  1.0000
  O   O14       1.0  0.90000  0.41900  0.83800  1.0000
  O   O15       1.0  0.54900  0.64900  0.90800  1.0000
  O   O16       1.0  0.88700  0.12400  0.96900  1.0000
  Se  Se1       1.0  0.31900  0.81000  0.12800  1.0000
  Se  Se2       1.0  0.74300  0.70600  0.35000  1.0000
  Se  Se3       1.0  0.25700  0.29400  0.65000  1.0000
  Se  Se4       1.0  0.68100  0.19000  0.87200  1.0000
  U   U1        1.0  0.16700  0.25900  0.16800  1.0000
  U   U2        1.0  0.83300  0.74100  0.83200  1.0000
