data_image0
_chemical_formula_structural       B4Ba4Li4S12
_chemical_formula_sum              "B4 Ba4 Li4 S12"
_cell_length_a       7.65082
_cell_length_b       8.7493
_cell_length_c       8.77545
_cell_angle_alpha    90
_cell_angle_beta     116.303
_cell_angle_gamma    90

_space_group_name_H-M_alt    "P 1"
_space_group_IT_number       1

loop_
  _space_group_symop_operation_xyz
  'x, y, z'

loop_
  _atom_site_type_symbol
  _atom_site_label
  _atom_site_symmetry_multiplicity
  _atom_site_fract_x
  _atom_site_fract_y
  _atom_site_fract_z
  _atom_site_occupancy
  B   B1        1.0  0.77200  0.15900  0.07980  1.0000
  B   B2        1.0  0.22800  0.65900  0.42000  1.0000
  B   B3        1.0  0.77200  0.34100  0.58000  1.0000
  B   B4        1.0  0.22800  0.84100  0.92000  1.0000
  Ba  Ba1       1.0  0.31400  0.36900  0.18900  1.0000
  Ba  Ba2       1.0  0.68600  0.86900  0.31100  1.0000
  Ba  Ba3       1.0  0.31400  0.13100  0.68900  1.0000
  Ba  Ba4       1.0  0.68600  0.63100  0.81100  1.0000
  Li  Li1       1.0  0.11200  0.92600  0.20500  1.0000
  Li  Li2       1.0  0.88800  0.42600  0.29500  1.0000
  Li  Li3       1.0  0.11200  0.57400  0.70500  1.0000
  Li  Li4       1.0  0.88800  0.07420  0.79500  1.0000
  S   S1        1.0  0.61700  0.32800  0.01030  1.0000
  S   S2        1.0  0.28600  0.01530  0.04680  1.0000
  S   S3        1.0  0.01390  0.65600  0.21200  1.0000
  S   S4        1.0  0.98600  0.15600  0.28800  1.0000
  S   S5        1.0  0.71400  0.51500  0.45300  1.0000
  S   S6        1.0  0.38300  0.82800  0.49000  1.0000
  S   S7        1.0  0.61700  0.17200  0.51000  1.0000
  S   S8        1.0  0.28600  0.48500  0.54700  1.0000
  S   S9        1.0  0.01390  0.84400  0.71200  1.0000
  S   S10       1.0  0.98600  0.34400  0.78800  1.0000
  S   S11       1.0  0.71400  0.98500  0.95300  1.0000
  S   S12       1.0  0.38300  0.67200  0.99000  1.0000
