data_image0
_chemical_formula_structural       Li2Mo4O16Sb2
_chemical_formula_sum              "Li2 Mo4 O16 Sb2"
_cell_length_a       4.91639
_cell_length_b       5.54039
_cell_length_c       10.9914
_cell_angle_alpha    99.9867
_cell_angle_beta     102.923
_cell_angle_gamma    90

_space_group_name_H-M_alt    "P 1"
_space_group_IT_number       1

loop_
  _space_group_symop_operation_xyz
  'x, y, z'

loop_
  _atom_site_type_symbol
  _atom_site_label
  _atom_site_symmetry_multiplicity
  _atom_site_fract_x
  _atom_site_fract_y
  _atom_site_fract_z
  _atom_site_occupancy
  Li  Li1       1.0  0.00000  0.00000  0.50000  1.0000
  Li  Li2       1.0  0.50000  0.50000  0.50000  1.0000
  Mo  Mo1       1.0  0.89100  0.28600  0.27700  1.0000
  Mo  Mo2       1.0  0.38600  0.78600  0.27700  1.0000
  Mo  Mo3       1.0  0.61400  0.21400  0.72300  1.0000
  Mo  Mo4       1.0  0.10900  0.71400  0.72300  1.0000
  O   O1        1.0  0.64400  0.11700  0.10500  1.0000
  O   O2        1.0  0.46100  0.61700  0.10500  1.0000
  O   O3        1.0  0.15200  0.99600  0.20400  1.0000
  O   O4        1.0  0.05300  0.49600  0.20400  1.0000
  O   O5        1.0  0.61000  0.45700  0.32500  1.0000
  O   O6        1.0  0.71500  0.95700  0.32500  1.0000
  O   O7        1.0  0.12600  0.28700  0.42300  1.0000
  O   O8        1.0  0.29700  0.78700  0.42300  1.0000
  O   O9        1.0  0.70300  0.21300  0.57700  1.0000
  O   O10       1.0  0.87400  0.71300  0.57700  1.0000
  O   O11       1.0  0.28500  0.04290  0.67500  1.0000
  O   O12       1.0  0.39000  0.54300  0.67500  1.0000
  O   O13       1.0  0.84800  0.00438  0.79600  1.0000
  O   O14       1.0  0.94700  0.50400  0.79600  1.0000
  O   O15       1.0  0.53900  0.38300  0.89500  1.0000
  O   O16       1.0  0.35600  0.88300  0.89500  1.0000
  Sb  Sb1       1.0  0.30000  0.25000  0.00000  1.0000
  Sb  Sb2       1.0  0.70000  0.75000  0.00000  1.0000
