data_image0
_chemical_formula_structural       Ag4Rb4Se16
_chemical_formula_sum              "Ag4 Rb4 Se16"
_cell_length_a       5.85772
_cell_length_b       9.01046
_cell_length_c       13.5521
_cell_angle_alpha    90
_cell_angle_beta     90
_cell_angle_gamma    90

_space_group_name_H-M_alt    "P 1"
_space_group_IT_number       1

loop_
  _space_group_symop_operation_xyz
  'x, y, z'

loop_
  _atom_site_type_symbol
  _atom_site_label
  _atom_site_symmetry_multiplicity
  _atom_site_fract_x
  _atom_site_fract_y
  _atom_site_fract_z
  _atom_site_occupancy
  Ag  Ag1       1.0  0.96500  0.86900  0.06670  1.0000
  Ag  Ag2       1.0  0.03520  0.36900  0.43300  1.0000
  Ag  Ag3       1.0  0.53500  0.13100  0.56700  1.0000
  Ag  Ag4       1.0  0.46500  0.63100  0.93300  1.0000
  Rb  Rb1       1.0  0.17300  0.44500  0.16100  1.0000
  Rb  Rb2       1.0  0.82700  0.94500  0.33900  1.0000
  Rb  Rb3       1.0  0.32700  0.55500  0.66100  1.0000
  Rb  Rb4       1.0  0.67300  0.05510  0.83900  1.0000
  Se  Se1       1.0  0.41600  0.08240  0.07550  1.0000
  Se  Se2       1.0  0.80800  0.13900  0.10400  1.0000
  Se  Se3       1.0  0.62900  0.68600  0.11200  1.0000
  Se  Se4       1.0  0.36500  0.86500  0.17900  1.0000
  Se  Se5       1.0  0.63500  0.36500  0.32100  1.0000
  Se  Se6       1.0  0.37100  0.18600  0.38800  1.0000
  Se  Se7       1.0  0.19200  0.63900  0.39600  1.0000
  Se  Se8       1.0  0.58400  0.58200  0.42400  1.0000
  Se  Se9       1.0  0.08440  0.91800  0.57600  1.0000
  Se  Se10      1.0  0.69200  0.86100  0.60400  1.0000
  Se  Se11      1.0  0.87100  0.31400  0.61200  1.0000
  Se  Se12      1.0  0.13500  0.13500  0.67900  1.0000
  Se  Se13      1.0  0.86500  0.63500  0.82100  1.0000
  Se  Se14      1.0  0.12900  0.81400  0.88800  1.0000
  Se  Se15      1.0  0.30800  0.36100  0.89600  1.0000
  Se  Se16      1.0  0.91600  0.41800  0.92400  1.0000
