data_image0
_chemical_formula_structural       Au2K4O8
_chemical_formula_sum              "Au2 K4 O8"
_cell_length_a       6.67728
_cell_length_b       6.67728
_cell_length_c       6.67728
_cell_angle_alpha    113.922
_cell_angle_beta     100.895
_cell_angle_gamma    113.922

_space_group_name_H-M_alt    "P 1"
_space_group_IT_number       1

loop_
  _space_group_symop_operation_xyz
  'x, y, z'

loop_
  _atom_site_type_symbol
  _atom_site_label
  _atom_site_symmetry_multiplicity
  _atom_site_fract_x
  _atom_site_fract_y
  _atom_site_fract_z
  _atom_site_occupancy
  Au  Au1       1.0  0.00000  0.00000  0.00000  1.0000
  Au  Au2       1.0  0.75000  0.50000  0.25000  1.0000
  K   K1        1.0  0.37500  0.75000  0.12500  1.0000
  K   K2        1.0  0.37500  0.25000  0.62500  1.0000
  K   K3        1.0  0.87500  0.25000  0.62500  1.0000
  K   K4        1.0  0.37500  0.75000  0.62500  1.0000
  O   O1        1.0  0.05460  0.76000  0.29500  1.0000
  O   O2        1.0  0.53500  0.24000  0.29500  1.0000
  O   O3        1.0  0.04460  0.26000  0.30500  1.0000
  O   O4        1.0  0.70500  0.76000  0.46500  1.0000
  O   O5        1.0  0.04460  0.74000  0.78500  1.0000
  O   O6        1.0  0.70500  0.24000  0.94500  1.0000
  O   O7        1.0  0.21500  0.26000  0.95500  1.0000
  O   O8        1.0  0.69500  0.74000  0.95500  1.0000
