data_image0
_chemical_formula_structural       Cu2Gd2O16W4
_chemical_formula_sum              "Cu2 Gd2 O16 W4"
_cell_length_a       7.31364
_cell_length_b       7.87305
_cell_length_c       7.06783
_cell_angle_alpha    114.782
_cell_angle_beta     116.058
_cell_angle_gamma    56.9421

_space_group_name_H-M_alt    "P 1"
_space_group_IT_number       1

loop_
  _space_group_symop_operation_xyz
  'x, y, z'

loop_
  _atom_site_type_symbol
  _atom_site_label
  _atom_site_symmetry_multiplicity
  _atom_site_fract_x
  _atom_site_fract_y
  _atom_site_fract_z
  _atom_site_occupancy
  Cu  Cu1       1.0  0.37600  0.69800  0.27400  1.0000
  Cu  Cu2       1.0  0.62400  0.30200  0.72600  1.0000
  Gd  Gd1       1.0  0.16300  0.28100  0.17500  1.0000
  Gd  Gd2       1.0  0.83700  0.71900  0.82500  1.0000
  O   O1        1.0  0.77400  0.30800  0.03260  1.0000
  O   O2        1.0  0.81500  0.98300  0.13600  1.0000
  O   O3        1.0  0.43400  0.33900  0.17500  1.0000
  O   O4        1.0  0.92300  0.62800  0.17900  1.0000
  O   O5        1.0  0.51400  0.97600  0.28400  1.0000
  O   O6        1.0  0.08180  0.18200  0.38400  1.0000
  O   O7        1.0  0.70200  0.55000  0.45300  1.0000
  O   O8        1.0  0.18900  0.82700  0.48300  1.0000
  O   O9        1.0  0.81100  0.17300  0.51700  1.0000
  O   O10       1.0  0.29800  0.45000  0.54700  1.0000
  O   O11       1.0  0.91800  0.81800  0.61600  1.0000
  O   O12       1.0  0.48600  0.02390  0.71600  1.0000
  O   O13       1.0  0.07720  0.37200  0.82100  1.0000
  O   O14       1.0  0.56600  0.66100  0.82500  1.0000
  O   O15       1.0  0.18500  0.01670  0.86400  1.0000
  O   O16       1.0  0.22600  0.69200  0.96700  1.0000
  W   W1        1.0  0.72100  0.29900  0.25700  1.0000
  W   W2        1.0  0.81100  0.88900  0.35000  1.0000
  W   W3        1.0  0.18900  0.11100  0.65000  1.0000
  W   W4        1.0  0.27900  0.70100  0.74300  1.0000
