data_image0
_chemical_formula_structural       Hg4O16Re4
_chemical_formula_sum              "Hg4 O16 Re4"
_cell_length_a       5.60683
_cell_length_b       5.0304
_cell_length_c       15.0986
_cell_angle_alpha    90
_cell_angle_beta     109.378
_cell_angle_gamma    90

_space_group_name_H-M_alt    "P 1"
_space_group_IT_number       1

loop_
  _space_group_symop_operation_xyz
  'x, y, z'

loop_
  _atom_site_type_symbol
  _atom_site_label
  _atom_site_symmetry_multiplicity
  _atom_site_fract_x
  _atom_site_fract_y
  _atom_site_fract_z
  _atom_site_occupancy
  Hg  Hg1       1.0  0.60600  0.67300  0.06160  1.0000
  Hg  Hg2       1.0  0.39400  0.17300  0.43800  1.0000
  Hg  Hg3       1.0  0.60600  0.82700  0.56200  1.0000
  Hg  Hg4       1.0  0.39400  0.32700  0.93800  1.0000
  O   O1        1.0  0.27800  0.01600  0.07620  1.0000
  O   O2        1.0  0.83400  0.02530  0.13500  1.0000
  O   O3        1.0  0.11700  0.49200  0.14000  1.0000
  O   O4        1.0  0.66800  0.56900  0.22900  1.0000
  O   O5        1.0  0.33200  0.06930  0.27100  1.0000
  O   O6        1.0  0.88300  0.99200  0.36000  1.0000
  O   O7        1.0  0.16600  0.52500  0.36500  1.0000
  O   O8        1.0  0.72200  0.51600  0.42400  1.0000
  O   O9        1.0  0.27800  0.48400  0.57600  1.0000
  O   O10       1.0  0.83400  0.47500  0.63500  1.0000
  O   O11       1.0  0.11700  0.00789  0.64000  1.0000
  O   O12       1.0  0.66800  0.93100  0.72900  1.0000
  O   O13       1.0  0.33200  0.43100  0.77100  1.0000
  O   O14       1.0  0.88300  0.50800  0.86000  1.0000
  O   O15       1.0  0.16600  0.97500  0.86500  1.0000
  O   O16       1.0  0.72200  0.98400  0.92400  1.0000
  Re  Re1       1.0  0.14200  0.14900  0.15600  1.0000
  Re  Re2       1.0  0.85800  0.64900  0.34400  1.0000
  Re  Re3       1.0  0.14200  0.35100  0.65600  1.0000
  Re  Re4       1.0  0.85800  0.85100  0.84400  1.0000
