data_image0
_chemical_formula_structural       Cs2Dy2Mo4O16
_chemical_formula_sum              "Cs2 Dy2 Mo4 O16"
_cell_length_a       9.42017
_cell_length_b       5.03241
_cell_length_c       7.90113
_cell_angle_alpha    90
_cell_angle_beta     91.7504
_cell_angle_gamma    90

_space_group_name_H-M_alt    "P 1"
_space_group_IT_number       1

loop_
  _space_group_symop_operation_xyz
  'x, y, z'

loop_
  _atom_site_type_symbol
  _atom_site_label
  _atom_site_symmetry_multiplicity
  _atom_site_fract_x
  _atom_site_fract_y
  _atom_site_fract_z
  _atom_site_occupancy
  Cs  Cs1       1.0  0.50000  0.03380  0.25000  1.0000
  Cs  Cs2       1.0  0.50000  0.96600  0.75000  1.0000
  Dy  Dy1       1.0  0.00000  0.99800  0.25000  1.0000
  Dy  Dy2       1.0  0.00000  0.00154  0.75000  1.0000
  Mo  Mo1       1.0  0.19800  0.47900  0.00826  1.0000
  Mo  Mo2       1.0  0.80200  0.47900  0.49200  1.0000
  Mo  Mo3       1.0  0.19800  0.52100  0.50800  1.0000
  Mo  Mo4       1.0  0.80200  0.52100  0.99200  1.0000
  O   O1        1.0  0.06330  0.75100  0.00291  1.0000
  O   O2        1.0  0.36600  0.62100  0.01630  1.0000
  O   O3        1.0  0.80700  0.74200  0.17000  1.0000
  O   O4        1.0  0.19100  0.25900  0.18700  1.0000
  O   O5        1.0  0.80900  0.25900  0.31300  1.0000
  O   O6        1.0  0.19300  0.74200  0.33000  1.0000
  O   O7        1.0  0.63400  0.62100  0.48400  1.0000
  O   O8        1.0  0.93700  0.75100  0.49700  1.0000
  O   O9        1.0  0.06330  0.24900  0.50300  1.0000
  O   O10       1.0  0.36600  0.37900  0.51600  1.0000
  O   O11       1.0  0.80700  0.25800  0.67000  1.0000
  O   O12       1.0  0.19100  0.74100  0.68700  1.0000
  O   O13       1.0  0.80900  0.74100  0.81300  1.0000
  O   O14       1.0  0.19300  0.25800  0.83000  1.0000
  O   O15       1.0  0.63400  0.37900  0.98400  1.0000
  O   O16       1.0  0.93700  0.24900  0.99700  1.0000
