data_image0
_chemical_formula_structural       Cl12N4Nd8
_chemical_formula_sum              "Cl12 N4 Nd8"
_cell_length_a       13.5481
_cell_length_b       6.8703
_cell_length_c       6.23846
_cell_angle_alpha    90
_cell_angle_beta     90
_cell_angle_gamma    90

_space_group_name_H-M_alt    "P 1"
_space_group_IT_number       1

loop_
  _space_group_symop_operation_xyz
  'x, y, z'

loop_
  _atom_site_type_symbol
  _atom_site_label
  _atom_site_symmetry_multiplicity
  _atom_site_fract_x
  _atom_site_fract_y
  _atom_site_fract_z
  _atom_site_occupancy
  Cl  Cl1       1.0  0.28700  0.35000  0.08870  1.0000
  Cl  Cl2       1.0  0.21300  0.85000  0.08870  1.0000
  Cl  Cl3       1.0  0.00000  0.49800  0.25000  1.0000
  Cl  Cl4       1.0  0.50000  0.99800  0.25000  1.0000
  Cl  Cl5       1.0  0.71300  0.35000  0.41100  1.0000
  Cl  Cl6       1.0  0.78700  0.85000  0.41100  1.0000
  Cl  Cl7       1.0  0.21300  0.15000  0.58900  1.0000
  Cl  Cl8       1.0  0.28700  0.65000  0.58900  1.0000
  Cl  Cl9       1.0  0.50000  0.00240  0.75000  1.0000
  Cl  Cl10      1.0  0.00000  0.50200  0.75000  1.0000
  Cl  Cl11      1.0  0.78700  0.15000  0.91100  1.0000
  Cl  Cl12      1.0  0.71300  0.65000  0.91100  1.0000
  N   N1        1.0  0.00000  0.00710  0.25000  1.0000
  N   N2        1.0  0.50000  0.50700  0.25000  1.0000
  N   N3        1.0  0.50000  0.49300  0.75000  1.0000
  N   N4        1.0  0.00000  0.99300  0.75000  1.0000
  Nd  Nd1       1.0  0.59200  0.32400  0.00676  1.0000
  Nd  Nd2       1.0  0.90800  0.82400  0.00676  1.0000
  Nd  Nd3       1.0  0.40800  0.32400  0.49300  1.0000
  Nd  Nd4       1.0  0.09230  0.82400  0.49300  1.0000
  Nd  Nd5       1.0  0.90800  0.17600  0.50700  1.0000
  Nd  Nd6       1.0  0.59200  0.67600  0.50700  1.0000
  Nd  Nd7       1.0  0.09230  0.17600  0.99300  1.0000
  Nd  Nd8       1.0  0.40800  0.67600  0.99300  1.0000
