data_image0
_chemical_formula_structural       Bi4I4O12Te4
_chemical_formula_sum              "Bi4 I4 O12 Te4"
_cell_length_a       9.0503
_cell_length_b       7.07557
_cell_length_c       7.96731
_cell_angle_alpha    90
_cell_angle_beta     104.905
_cell_angle_gamma    90

_space_group_name_H-M_alt    "P 1"
_space_group_IT_number       1

loop_
  _space_group_symop_operation_xyz
  'x, y, z'

loop_
  _atom_site_type_symbol
  _atom_site_label
  _atom_site_symmetry_multiplicity
  _atom_site_fract_x
  _atom_site_fract_y
  _atom_site_fract_z
  _atom_site_occupancy
  Bi  Bi1       1.0  0.40400  0.36800  0.17300  1.0000
  Bi  Bi2       1.0  0.59600  0.86800  0.32700  1.0000
  Bi  Bi3       1.0  0.40400  0.13200  0.67300  1.0000
  Bi  Bi4       1.0  0.59600  0.63200  0.82700  1.0000
  I   I1        1.0  0.87400  0.65900  0.15300  1.0000
  I   I2        1.0  0.12600  0.15900  0.34700  1.0000
  I   I3        1.0  0.87400  0.84100  0.65300  1.0000
  I   I4        1.0  0.12600  0.34100  0.84700  1.0000
  O   O1        1.0  0.43400  0.65000  0.02960  1.0000
  O   O2        1.0  0.38700  0.00551  0.12400  1.0000
  O   O3        1.0  0.71800  0.12100  0.23400  1.0000
  O   O4        1.0  0.28200  0.62100  0.26600  1.0000
  O   O5        1.0  0.61300  0.50600  0.37600  1.0000
  O   O6        1.0  0.56600  0.15000  0.47000  1.0000
  O   O7        1.0  0.43400  0.85000  0.53000  1.0000
  O   O8        1.0  0.38700  0.49400  0.62400  1.0000
  O   O9        1.0  0.71800  0.37900  0.73400  1.0000
  O   O10       1.0  0.28200  0.87900  0.76600  1.0000
  O   O11       1.0  0.61300  0.99400  0.87600  1.0000
  O   O12       1.0  0.56600  0.35000  0.97000  1.0000
  Te  Te1       1.0  0.74300  0.18300  0.00866  1.0000
  Te  Te2       1.0  0.25700  0.68300  0.49100  1.0000
  Te  Te3       1.0  0.74300  0.31700  0.50900  1.0000
  Te  Te4       1.0  0.25700  0.81700  0.99100  1.0000
