data_image0
_chemical_formula_structural       Cs4I4O16
_chemical_formula_sum              "Cs4 I4 O16"
_cell_length_a       5.78995
_cell_length_b       5.92352
_cell_length_c       14.2631
_cell_angle_alpha    90
_cell_angle_beta     90
_cell_angle_gamma    90

_space_group_name_H-M_alt    "P 1"
_space_group_IT_number       1

loop_
  _space_group_symop_operation_xyz
  'x, y, z'

loop_
  _atom_site_type_symbol
  _atom_site_label
  _atom_site_symmetry_multiplicity
  _atom_site_fract_x
  _atom_site_fract_y
  _atom_site_fract_z
  _atom_site_occupancy
  Cs  Cs1       1.0  0.02060  0.75000  0.12800  1.0000
  Cs  Cs2       1.0  0.52100  0.75000  0.37200  1.0000
  Cs  Cs3       1.0  0.47900  0.25000  0.62800  1.0000
  Cs  Cs4       1.0  0.97900  0.25000  0.87200  1.0000
  I   I1        1.0  0.53400  0.25000  0.11800  1.0000
  I   I2        1.0  0.03410  0.25000  0.38200  1.0000
  I   I3        1.0  0.96600  0.75000  0.61800  1.0000
  I   I4        1.0  0.46600  0.75000  0.88200  1.0000
  O   O1        1.0  0.34100  0.25000  0.02010  1.0000
  O   O2        1.0  0.82900  0.25000  0.07960  1.0000
  O   O3        1.0  0.48300  0.00269  0.18800  1.0000
  O   O4        1.0  0.48300  0.49700  0.18800  1.0000
  O   O5        1.0  0.98300  0.00269  0.31200  1.0000
  O   O6        1.0  0.98300  0.49700  0.31200  1.0000
  O   O7        1.0  0.32900  0.25000  0.42000  1.0000
  O   O8        1.0  0.84100  0.25000  0.48000  1.0000
  O   O9        1.0  0.15900  0.75000  0.52000  1.0000
  O   O10       1.0  0.67100  0.75000  0.58000  1.0000
  O   O11       1.0  0.01720  0.50300  0.68800  1.0000
  O   O12       1.0  0.01720  0.99700  0.68800  1.0000
  O   O13       1.0  0.51700  0.50300  0.81200  1.0000
  O   O14       1.0  0.51700  0.99700  0.81200  1.0000
  O   O15       1.0  0.17100  0.75000  0.92000  1.0000
  O   O16       1.0  0.65900  0.75000  0.98000  1.0000
