data_image0
_chemical_formula_structural       O8Pu2Ru4
_chemical_formula_sum              "O8 Pu2 Ru4"
_cell_length_a       6.63989
_cell_length_b       6.63989
_cell_length_c       6.63989
_cell_angle_alpha    130.125
_cell_angle_beta     73.2072
_cell_angle_gamma    130.125

_space_group_name_H-M_alt    "P 1"
_space_group_IT_number       1

loop_
  _space_group_symop_operation_xyz
  'x, y, z'

loop_
  _atom_site_type_symbol
  _atom_site_label
  _atom_site_symmetry_multiplicity
  _atom_site_fract_x
  _atom_site_fract_y
  _atom_site_fract_z
  _atom_site_occupancy
  O   O1        1.0  0.57200  0.73900  0.31100  1.0000
  O   O2        1.0  0.17800  0.23900  0.41700  1.0000
  O   O3        1.0  0.16700  0.73900  0.42800  1.0000
  O   O4        1.0  0.68900  0.26100  0.42800  1.0000
  O   O5        1.0  0.06080  0.23900  0.82200  1.0000
  O   O6        1.0  0.58300  0.76100  0.82200  1.0000
  O   O7        1.0  0.57200  0.26100  0.83300  1.0000
  O   O8        1.0  0.17800  0.76100  0.93900  1.0000
  Pu  Pu1       1.0  0.00000  0.00000  0.00000  1.0000
  Pu  Pu2       1.0  0.75000  0.50000  0.25000  1.0000
  Ru  Ru1       1.0  0.37500  0.75000  0.12500  1.0000
  Ru  Ru2       1.0  0.87500  0.25000  0.62500  1.0000
  Ru  Ru3       1.0  0.37500  0.75000  0.62500  1.0000
  Ru  Ru4       1.0  0.37500  0.25000  0.62500  1.0000
