data_image0
_chemical_formula_structural       Ba6C6N12
_chemical_formula_sum              "Ba6 C6 N12"
_cell_length_a       7.42704
_cell_length_b       8.9409
_cell_length_c       8.9409
_cell_angle_alpha    112.643
_cell_angle_beta     106.075
_cell_angle_gamma    106.075

_space_group_name_H-M_alt    "P 1"
_space_group_IT_number       1

loop_
  _space_group_symop_operation_xyz
  'x, y, z'

loop_
  _atom_site_type_symbol
  _atom_site_label
  _atom_site_symmetry_multiplicity
  _atom_site_fract_x
  _atom_site_fract_y
  _atom_site_fract_z
  _atom_site_occupancy
  Ba  Ba1       1.0  0.95700  0.41400  0.20700  1.0000
  Ba  Ba2       1.0  0.75000  0.79300  0.20700  1.0000
  Ba  Ba3       1.0  0.45700  0.20700  0.41400  1.0000
  Ba  Ba4       1.0  0.54300  0.79300  0.58600  1.0000
  Ba  Ba5       1.0  0.25000  0.20700  0.79300  1.0000
  Ba  Ba6       1.0  0.04300  0.58600  0.79300  1.0000
  C   C1        1.0  0.46700  0.43500  0.21700  1.0000
  C   C2        1.0  0.25000  0.78300  0.21700  1.0000
  C   C3        1.0  0.96700  0.21700  0.43500  1.0000
  C   C4        1.0  0.03260  0.78300  0.56500  1.0000
  C   C5        1.0  0.53300  0.56500  0.78300  1.0000
  C   C6        1.0  0.75000  0.21700  0.78300  1.0000
  N   N1        1.0  0.58600  0.43300  0.14300  1.0000
  N   N2        1.0  0.05720  0.71100  0.14300  1.0000
  N   N3        1.0  0.44300  0.85700  0.28900  1.0000
  N   N4        1.0  0.34700  0.43300  0.28900  1.0000
  N   N5        1.0  0.84700  0.28900  0.43300  1.0000
  N   N6        1.0  0.08590  0.14300  0.43300  1.0000
  N   N7        1.0  0.15300  0.71100  0.56700  1.0000
  N   N8        1.0  0.91400  0.85700  0.56700  1.0000
  N   N9        1.0  0.65300  0.56700  0.71100  1.0000
  N   N10       1.0  0.55700  0.14300  0.71100  1.0000
  N   N11       1.0  0.94300  0.28900  0.85700  1.0000
  N   N12       1.0  0.41400  0.56700  0.85700  1.0000
