data_image0
_chemical_formula_structural       Ba4Ca2O12Pd6
_chemical_formula_sum              "Ba4 Ca2 O12 Pd6"
_cell_length_a       7.2081
_cell_length_b       7.2081
_cell_length_c       8.6977
_cell_angle_alpha    107.854
_cell_angle_beta     107.854
_cell_angle_gamma    105.075

_space_group_name_H-M_alt    "P 1"
_space_group_IT_number       1

loop_
  _space_group_symop_operation_xyz
  'x, y, z'

loop_
  _atom_site_type_symbol
  _atom_site_label
  _atom_site_symmetry_multiplicity
  _atom_site_fract_x
  _atom_site_fract_y
  _atom_site_fract_z
  _atom_site_occupancy
  Ba  Ba1       1.0  0.77200  0.22800  0.00000  1.0000
  Ba  Ba2       1.0  0.22800  0.77200  0.00000  1.0000
  Ba  Ba3       1.0  0.75000  0.25000  0.50000  1.0000
  Ba  Ba4       1.0  0.25000  0.75000  0.50000  1.0000
  Ca  Ca1       1.0  0.67100  0.67100  0.34100  1.0000
  Ca  Ca2       1.0  0.32900  0.32900  0.65900  1.0000
  O   O1        1.0  0.53400  0.29600  0.20300  1.0000
  O   O2        1.0  0.29600  0.53400  0.20300  1.0000
  O   O3        1.0  0.90700  0.66900  0.20300  1.0000
  O   O4        1.0  0.66900  0.90700  0.20300  1.0000
  O   O5        1.0  0.31500  0.07620  0.39100  1.0000
  O   O6        1.0  0.07620  0.31500  0.39100  1.0000
  O   O7        1.0  0.92400  0.68500  0.60900  1.0000
  O   O8        1.0  0.68500  0.92400  0.60900  1.0000
  O   O9        1.0  0.33100  0.09280  0.79700  1.0000
  O   O10       1.0  0.09280  0.33100  0.79700  1.0000
  O   O11       1.0  0.70400  0.46600  0.79700  1.0000
  O   O12       1.0  0.46600  0.70400  0.79700  1.0000
  Pd  Pd1       1.0  0.32700  0.32700  0.00000  1.0000
  Pd  Pd2       1.0  0.67300  0.67300  0.00000  1.0000
  Pd  Pd3       1.0  0.31100  0.31100  0.30400  1.0000
  Pd  Pd4       1.0  0.99300  0.99300  0.30400  1.0000
  Pd  Pd5       1.0  0.00668  0.00668  0.69600  1.0000
  Pd  Pd6       1.0  0.68900  0.68900  0.69600  1.0000
