data_image0
_chemical_formula_structural       N8O6Si6Y4
_chemical_formula_sum              "N8 O6 Si6 Y4"
_cell_length_a       7.59958
_cell_length_b       7.59958
_cell_length_c       4.90796
_cell_angle_alpha    90
_cell_angle_beta     90
_cell_angle_gamma    90

_space_group_name_H-M_alt    "P 1"
_space_group_IT_number       1

loop_
  _space_group_symop_operation_xyz
  'x, y, z'

loop_
  _atom_site_type_symbol
  _atom_site_label
  _atom_site_symmetry_multiplicity
  _atom_site_fract_x
  _atom_site_fract_y
  _atom_site_fract_z
  _atom_site_occupancy
  N   N1        1.0  0.83300  0.07630  0.20900  1.0000
  N   N2        1.0  0.57600  0.33300  0.20900  1.0000
  N   N3        1.0  0.42400  0.66700  0.20900  1.0000
  N   N4        1.0  0.16700  0.92400  0.20900  1.0000
  N   N5        1.0  0.07630  0.16700  0.79100  1.0000
  N   N6        1.0  0.33300  0.42400  0.79100  1.0000
  N   N7        1.0  0.66700  0.57600  0.79100  1.0000
  N   N8        1.0  0.92400  0.83300  0.79100  1.0000
  O   O1        1.0  0.50000  0.00000  0.18400  1.0000
  O   O2        1.0  0.13100  0.36900  0.28100  1.0000
  O   O3        1.0  0.86900  0.63100  0.28100  1.0000
  O   O4        1.0  0.63100  0.13100  0.71900  1.0000
  O   O5        1.0  0.36900  0.86900  0.71900  1.0000
  O   O6        1.0  0.00000  0.50000  0.81600  1.0000
  Si  Si1       1.0  0.00000  0.00000  0.00000  1.0000
  Si  Si2       1.0  0.50000  0.50000  0.00000  1.0000
  Si  Si3       1.0  0.64600  0.14600  0.05440  1.0000
  Si  Si4       1.0  0.35400  0.85400  0.05440  1.0000
  Si  Si5       1.0  0.14600  0.35400  0.94600  1.0000
  Si  Si6       1.0  0.85400  0.64600  0.94600  1.0000
  Y   Y1        1.0  0.83000  0.33000  0.49700  1.0000
  Y   Y2        1.0  0.17000  0.67000  0.49700  1.0000
  Y   Y3        1.0  0.33000  0.17000  0.50300  1.0000
  Y   Y4        1.0  0.67000  0.83000  0.50300  1.0000
