data_image0
_chemical_formula_structural       Cu2O16Tb2W4
_chemical_formula_sum              "Cu2 O16 Tb2 W4"
_cell_length_a       7.27743
_cell_length_b       7.84599
_cell_length_c       7.06349
_cell_angle_alpha    114.858
_cell_angle_beta     116.037
_cell_angle_gamma    57.0103

_space_group_name_H-M_alt    "P 1"
_space_group_IT_number       1

loop_
  _space_group_symop_operation_xyz
  'x, y, z'

loop_
  _atom_site_type_symbol
  _atom_site_label
  _atom_site_symmetry_multiplicity
  _atom_site_fract_x
  _atom_site_fract_y
  _atom_site_fract_z
  _atom_site_occupancy
  Cu  Cu1       1.0  0.38000  0.70400  0.27400  1.0000
  Cu  Cu2       1.0  0.62000  0.29600  0.72600  1.0000
  O   O1        1.0  0.77500  0.30600  0.03270  1.0000
  O   O2        1.0  0.81500  0.98100  0.13500  1.0000
  O   O3        1.0  0.43300  0.33800  0.17400  1.0000
  O   O4        1.0  0.92400  0.62500  0.18100  1.0000
  O   O5        1.0  0.51200  0.97400  0.28300  1.0000
  O   O6        1.0  0.08230  0.18100  0.38300  1.0000
  O   O7        1.0  0.70100  0.55100  0.45300  1.0000
  O   O8        1.0  0.19000  0.82700  0.48300  1.0000
  O   O9        1.0  0.81000  0.17300  0.51700  1.0000
  O   O10       1.0  0.29900  0.44900  0.54700  1.0000
  O   O11       1.0  0.91800  0.81900  0.61700  1.0000
  O   O12       1.0  0.48800  0.02600  0.71700  1.0000
  O   O13       1.0  0.07580  0.37500  0.81900  1.0000
  O   O14       1.0  0.56700  0.66200  0.82600  1.0000
  O   O15       1.0  0.18500  0.01860  0.86500  1.0000
  O   O16       1.0  0.22500  0.69400  0.96700  1.0000
  Tb  Tb1       1.0  0.16300  0.28000  0.17500  1.0000
  Tb  Tb2       1.0  0.83700  0.72000  0.82500  1.0000
  W   W1        1.0  0.72100  0.30000  0.25800  1.0000
  W   W2        1.0  0.81100  0.88700  0.34900  1.0000
  W   W3        1.0  0.18900  0.11300  0.65100  1.0000
  W   W4        1.0  0.27900  0.70000  0.74200  1.0000
