data_image0
_chemical_formula_structural       K2Li4O8
_chemical_formula_sum              "K2 Li4 O8"
_cell_length_a       6.13054
_cell_length_b       6.13054
_cell_length_c       6.13054
_cell_angle_alpha    114.957
_cell_angle_beta     98.9819
_cell_angle_gamma    114.957

_space_group_name_H-M_alt    "P 1"
_space_group_IT_number       1

loop_
  _space_group_symop_operation_xyz
  'x, y, z'

loop_
  _atom_site_type_symbol
  _atom_site_label
  _atom_site_symmetry_multiplicity
  _atom_site_fract_x
  _atom_site_fract_y
  _atom_site_fract_z
  _atom_site_occupancy
  K   K1        1.0  0.00000  0.00000  0.00000  1.0000
  K   K2        1.0  0.75000  0.50000  0.25000  1.0000
  Li  Li1       1.0  0.37500  0.75000  0.12500  1.0000
  Li  Li2       1.0  0.37500  0.25000  0.62500  1.0000
  Li  Li3       1.0  0.37500  0.75000  0.62500  1.0000
  Li  Li4       1.0  0.87500  0.25000  0.62500  1.0000
  O   O1        1.0  0.21100  0.89100  0.32100  1.0000
  O   O2        1.0  0.43000  0.10900  0.32100  1.0000
  O   O3        1.0  0.07080  0.39100  0.46100  1.0000
  O   O4        1.0  0.67900  0.89100  0.57000  1.0000
  O   O5        1.0  0.07080  0.60900  0.68000  1.0000
  O   O6        1.0  0.67900  0.10900  0.78900  1.0000
  O   O7        1.0  0.32000  0.39100  0.92900  1.0000
  O   O8        1.0  0.53900  0.60900  0.92900  1.0000
