data_image0
_chemical_formula_structural       N12Sr8V4
_chemical_formula_sum              "N12 Sr8 V4"
_cell_length_a       5.69363
_cell_length_b       6.17876
_cell_length_c       12.2699
_cell_angle_alpha    90.4998
_cell_angle_beta     91.0848
_cell_angle_gamma    62.565

_space_group_name_H-M_alt    "P 1"
_space_group_IT_number       1

loop_
  _space_group_symop_operation_xyz
  'x, y, z'

loop_
  _atom_site_type_symbol
  _atom_site_label
  _atom_site_symmetry_multiplicity
  _atom_site_fract_x
  _atom_site_fract_y
  _atom_site_fract_z
  _atom_site_occupancy
  N   N1        1.0  0.32500  0.81900  0.04430  1.0000
  N   N2        1.0  0.12600  0.32000  0.13300  1.0000
  N   N3        1.0  0.56200  0.87600  0.25000  1.0000
  N   N4        1.0  0.02200  0.95600  0.25000  1.0000
  N   N5        1.0  0.55400  0.32000  0.36700  1.0000
  N   N6        1.0  0.85600  0.81900  0.45600  1.0000
  N   N7        1.0  0.14400  0.18100  0.54400  1.0000
  N   N8        1.0  0.44600  0.68000  0.63300  1.0000
  N   N9        1.0  0.43800  0.12400  0.75000  1.0000
  N   N10       1.0  0.97800  0.04400  0.75000  1.0000
  N   N11       1.0  0.87400  0.68000  0.86700  1.0000
  N   N12       1.0  0.67500  0.18100  0.95600  1.0000
  Sr  Sr1       1.0  0.86800  0.77800  0.07660  1.0000
  Sr  Sr2       1.0  0.55800  0.39700  0.14700  1.0000
  Sr  Sr3       1.0  0.04590  0.39700  0.35300  1.0000
  Sr  Sr4       1.0  0.35500  0.77800  0.42300  1.0000
  Sr  Sr5       1.0  0.64500  0.22200  0.57700  1.0000
  Sr  Sr6       1.0  0.95400  0.60300  0.64700  1.0000
  Sr  Sr7       1.0  0.44200  0.60300  0.85300  1.0000
  Sr  Sr8       1.0  0.13200  0.22200  0.92300  1.0000
  V   V1        1.0  0.25700  0.00107  0.16400  1.0000
  V   V2        1.0  0.74200  0.00107  0.33600  1.0000
  V   V3        1.0  0.25800  0.99900  0.66400  1.0000
  V   V4        1.0  0.74300  0.99900  0.83600  1.0000
