data_image0
_chemical_formula_structural       Ni4Si8Sm12
_chemical_formula_sum              "Ni4 Si8 Sm12"
_cell_length_a       11.5175
_cell_length_b       4.19561
_cell_length_c       11.4918
_cell_angle_alpha    90
_cell_angle_beta     90
_cell_angle_gamma    90

_space_group_name_H-M_alt    "P 1"
_space_group_IT_number       1

loop_
  _space_group_symop_operation_xyz
  'x, y, z'

loop_
  _atom_site_type_symbol
  _atom_site_label
  _atom_site_symmetry_multiplicity
  _atom_site_fract_x
  _atom_site_fract_y
  _atom_site_fract_z
  _atom_site_occupancy
  Ni  Ni1       1.0  0.12900  0.25000  0.13500  1.0000
  Ni  Ni2       1.0  0.62900  0.25000  0.36500  1.0000
  Ni  Ni3       1.0  0.37100  0.75000  0.63500  1.0000
  Ni  Ni4       1.0  0.87100  0.75000  0.86500  1.0000
  Si  Si1       1.0  0.30200  0.25000  0.00711  1.0000
  Si  Si2       1.0  0.02760  0.75000  0.18700  1.0000
  Si  Si3       1.0  0.52800  0.75000  0.31300  1.0000
  Si  Si4       1.0  0.80200  0.25000  0.49300  1.0000
  Si  Si5       1.0  0.19800  0.75000  0.50700  1.0000
  Si  Si6       1.0  0.47200  0.25000  0.68700  1.0000
  Si  Si7       1.0  0.97200  0.25000  0.81300  1.0000
  Si  Si8       1.0  0.69800  0.75000  0.99300  1.0000
  Sm  Sm1       1.0  0.88300  0.25000  0.05920  1.0000
  Sm  Sm2       1.0  0.55900  0.25000  0.12400  1.0000
  Sm  Sm3       1.0  0.28800  0.75000  0.19600  1.0000
  Sm  Sm4       1.0  0.78800  0.75000  0.30400  1.0000
  Sm  Sm5       1.0  0.05910  0.25000  0.37600  1.0000
  Sm  Sm6       1.0  0.38300  0.25000  0.44100  1.0000
  Sm  Sm7       1.0  0.61700  0.75000  0.55900  1.0000
  Sm  Sm8       1.0  0.94100  0.75000  0.62400  1.0000
  Sm  Sm9       1.0  0.21200  0.25000  0.69600  1.0000
  Sm  Sm10      1.0  0.71200  0.25000  0.80400  1.0000
  Sm  Sm11      1.0  0.44100  0.75000  0.87600  1.0000
  Sm  Sm12      1.0  0.11700  0.75000  0.94100  1.0000
