data_image0
_chemical_formula_structural       Cu2O16Sm2W4
_chemical_formula_sum              "Cu2 O16 Sm2 W4"
_cell_length_a       7.38607
_cell_length_b       7.9
_cell_length_c       7.16237
_cell_angle_alpha    115.035
_cell_angle_beta     116.212
_cell_angle_gamma    56.8302

_space_group_name_H-M_alt    "P 1"
_space_group_IT_number       1

loop_
  _space_group_symop_operation_xyz
  'x, y, z'

loop_
  _atom_site_type_symbol
  _atom_site_label
  _atom_site_symmetry_multiplicity
  _atom_site_fract_x
  _atom_site_fract_y
  _atom_site_fract_z
  _atom_site_occupancy
  Cu  Cu1       1.0  0.32300  0.68900  0.24900  1.0000
  Cu  Cu2       1.0  0.67700  0.31100  0.75100  1.0000
  O   O1        1.0  0.77600  0.31100  0.04480  1.0000
  O   O2        1.0  0.80900  0.98900  0.14000  1.0000
  O   O3        1.0  0.91700  0.63200  0.17800  1.0000
  O   O4        1.0  0.43400  0.35600  0.18600  1.0000
  O   O5        1.0  0.51200  0.97900  0.28200  1.0000
  O   O6        1.0  0.08420  0.17800  0.38700  1.0000
  O   O7        1.0  0.71300  0.54800  0.45800  1.0000
  O   O8        1.0  0.18800  0.82600  0.48400  1.0000
  O   O9        1.0  0.81200  0.17400  0.51600  1.0000
  O   O10       1.0  0.28700  0.45200  0.54200  1.0000
  O   O11       1.0  0.91600  0.82200  0.61300  1.0000
  O   O12       1.0  0.48800  0.02120  0.71800  1.0000
  O   O13       1.0  0.56600  0.64400  0.81400  1.0000
  O   O14       1.0  0.08350  0.36800  0.82200  1.0000
  O   O15       1.0  0.19100  0.01130  0.86000  1.0000
  O   O16       1.0  0.22400  0.68900  0.95500  1.0000
  Sm  Sm1       1.0  0.16500  0.28000  0.17500  1.0000
  Sm  Sm2       1.0  0.83500  0.72000  0.82500  1.0000
  W   W1        1.0  0.72500  0.30300  0.26700  1.0000
  W   W2        1.0  0.80600  0.89200  0.35000  1.0000
  W   W3        1.0  0.19400  0.10800  0.65000  1.0000
  W   W4        1.0  0.27500  0.69700  0.73300  1.0000
