data_image0
_chemical_formula_structural       Cu4Dy4Eu4S12
_chemical_formula_sum              "Cu4 Dy4 Eu4 S12"
_cell_length_a       10.2019
_cell_length_b       3.88852
_cell_length_c       12.684
_cell_angle_alpha    90
_cell_angle_beta     90
_cell_angle_gamma    90

_space_group_name_H-M_alt    "P 1"
_space_group_IT_number       1

loop_
  _space_group_symop_operation_xyz
  'x, y, z'

loop_
  _atom_site_type_symbol
  _atom_site_label
  _atom_site_symmetry_multiplicity
  _atom_site_fract_x
  _atom_site_fract_y
  _atom_site_fract_z
  _atom_site_occupancy
  Cu  Cu1       1.0  0.23700  0.25000  0.22200  1.0000
  Cu  Cu2       1.0  0.73700  0.25000  0.27800  1.0000
  Cu  Cu3       1.0  0.26300  0.75000  0.72200  1.0000
  Cu  Cu4       1.0  0.76300  0.75000  0.77800  1.0000
  Dy  Dy1       1.0  0.48600  0.75000  0.24300  1.0000
  Dy  Dy2       1.0  0.98600  0.75000  0.25700  1.0000
  Dy  Dy3       1.0  0.01390  0.25000  0.74300  1.0000
  Dy  Dy4       1.0  0.51400  0.25000  0.75700  1.0000
  Eu  Eu1       1.0  0.77200  0.25000  0.00046  1.0000
  Eu  Eu2       1.0  0.27200  0.25000  0.50000  1.0000
  Eu  Eu3       1.0  0.72800  0.75000  0.50000  1.0000
  Eu  Eu4       1.0  0.22800  0.75000  0.00000  1.0000
  S   S1        1.0  0.41100  0.25000  0.10500  1.0000
  S   S2        1.0  0.05380  0.25000  0.11300  1.0000
  S   S3        1.0  0.74000  0.75000  0.17000  1.0000
  S   S4        1.0  0.24000  0.75000  0.33000  1.0000
  S   S5        1.0  0.55400  0.25000  0.38700  1.0000
  S   S6        1.0  0.91100  0.25000  0.39500  1.0000
  S   S7        1.0  0.08890  0.75000  0.60500  1.0000
  S   S8        1.0  0.44600  0.75000  0.61300  1.0000
  S   S9        1.0  0.76000  0.25000  0.67000  1.0000
  S   S10       1.0  0.26000  0.25000  0.83000  1.0000
  S   S11       1.0  0.94600  0.75000  0.88700  1.0000
  S   S12       1.0  0.58900  0.75000  0.89500  1.0000
