data_image0
_chemical_formula_structural       Ag8O12Se4
_chemical_formula_sum              "Ag8 O12 Se4"
_cell_length_a       4.8275
_cell_length_b       10.3356
_cell_length_c       6.93971
_cell_angle_alpha    90
_cell_angle_beta     90.9401
_cell_angle_gamma    90

_space_group_name_H-M_alt    "P 1"
_space_group_IT_number       1

loop_
  _space_group_symop_operation_xyz
  'x, y, z'

loop_
  _atom_site_type_symbol
  _atom_site_label
  _atom_site_symmetry_multiplicity
  _atom_site_fract_x
  _atom_site_fract_y
  _atom_site_fract_z
  _atom_site_occupancy
  Ag  Ag1       1.0  0.26500  0.24700  0.09050  1.0000
  Ag  Ag2       1.0  0.26100  0.91500  0.12900  1.0000
  Ag  Ag3       1.0  0.73900  0.41500  0.37100  1.0000
  Ag  Ag4       1.0  0.73500  0.74700  0.40900  1.0000
  Ag  Ag5       1.0  0.26500  0.25300  0.59100  1.0000
  Ag  Ag6       1.0  0.26100  0.58500  0.62900  1.0000
  Ag  Ag7       1.0  0.73900  0.08450  0.87100  1.0000
  Ag  Ag8       1.0  0.73500  0.75300  0.90900  1.0000
  O   O1        1.0  0.61600  0.60300  0.14400  1.0000
  O   O2        1.0  0.79900  0.21800  0.18200  1.0000
  O   O3        1.0  0.76900  0.96000  0.19000  1.0000
  O   O4        1.0  0.23100  0.46000  0.31000  1.0000
  O   O5        1.0  0.20100  0.71800  0.31800  1.0000
  O   O6        1.0  0.38400  0.10300  0.35600  1.0000
  O   O7        1.0  0.61600  0.89700  0.64400  1.0000
  O   O8        1.0  0.79900  0.28200  0.68200  1.0000
  O   O9        1.0  0.76900  0.54000  0.69000  1.0000
  O   O10       1.0  0.23100  0.03950  0.81000  1.0000
  O   O11       1.0  0.20100  0.78200  0.81800  1.0000
  O   O12       1.0  0.38400  0.39700  0.85600  1.0000
  Se  Se1       1.0  0.25500  0.59100  0.15500  1.0000
  Se  Se2       1.0  0.74500  0.09140  0.34500  1.0000
  Se  Se3       1.0  0.25500  0.90900  0.65500  1.0000
  Se  Se4       1.0  0.74500  0.40900  0.84500  1.0000
