data_image0
_chemical_formula_structural       B3Ge3O15Pr3
_chemical_formula_sum              "B3 Ge3 O15 Pr3"
_cell_length_a       6.9365
_cell_length_b       6.9365
_cell_length_c       6.81094
_cell_angle_alpha    90
_cell_angle_beta     90
_cell_angle_gamma    120

_space_group_name_H-M_alt    "P 1"
_space_group_IT_number       1

loop_
  _space_group_symop_operation_xyz
  'x, y, z'

loop_
  _atom_site_type_symbol
  _atom_site_label
  _atom_site_symmetry_multiplicity
  _atom_site_fract_x
  _atom_site_fract_y
  _atom_site_fract_z
  _atom_site_occupancy
  B   B1        1.0  0.98400  0.10100  0.30900  1.0000
  B   B2        1.0  0.89900  0.88300  0.64200  1.0000
  B   B3        1.0  0.11700  0.01590  0.97500  1.0000
  Ge  Ge1       1.0  0.41800  0.42800  0.16900  1.0000
  Ge  Ge2       1.0  0.57200  0.99000  0.50200  1.0000
  Ge  Ge3       1.0  0.00974  0.58200  0.83500  1.0000
  O   O1        1.0  0.86700  0.38300  0.01230  1.0000
  O   O2        1.0  0.35400  0.19400  0.01560  1.0000
  O   O3        1.0  0.95300  0.01610  0.10900  1.0000
  O   O4        1.0  0.38900  0.83900  0.31600  1.0000
  O   O5        1.0  0.18600  0.32900  0.33200  1.0000
  O   O6        1.0  0.61700  0.48400  0.34600  1.0000
  O   O7        1.0  0.80600  0.16000  0.34900  1.0000
  O   O8        1.0  0.98400  0.93700  0.44200  1.0000
  O   O9        1.0  0.16100  0.55000  0.64900  1.0000
  O   O10       1.0  0.67100  0.85600  0.66500  1.0000
  O   O11       1.0  0.51600  0.13300  0.67900  1.0000
  O   O12       1.0  0.84000  0.64600  0.68200  1.0000
  O   O13       1.0  0.06270  0.04660  0.77500  1.0000
  O   O14       1.0  0.45000  0.61100  0.98300  1.0000
  O   O15       1.0  0.14400  0.81400  0.99900  1.0000
  Pr  Pr1       1.0  0.58800  0.00248  0.00064  1.0000
  Pr  Pr2       1.0  0.99800  0.58500  0.33400  1.0000
  Pr  Pr3       1.0  0.41500  0.41200  0.66700  1.0000
