data_image0
_chemical_formula_structural       B4Ga4O14Sr2
_chemical_formula_sum              "B4 Ga4 O14 Sr2"
_cell_length_a       5.65223
_cell_length_b       7.19196
_cell_length_c       7.19196
_cell_angle_alpha    109.064
_cell_angle_beta     90
_cell_angle_gamma    90

_space_group_name_H-M_alt    "P 1"
_space_group_IT_number       1

loop_
  _space_group_symop_operation_xyz
  'x, y, z'

loop_
  _atom_site_type_symbol
  _atom_site_label
  _atom_site_symmetry_multiplicity
  _atom_site_fract_x
  _atom_site_fract_y
  _atom_site_fract_z
  _atom_site_occupancy
  B   B1        1.0  0.25000  0.51300  0.29600  1.0000
  B   B2        1.0  0.75000  0.70400  0.48700  1.0000
  B   B3        1.0  0.25000  0.29600  0.51300  1.0000
  B   B4        1.0  0.75000  0.48700  0.70400  1.0000
  Ga  Ga1       1.0  0.75000  0.70500  0.12500  1.0000
  Ga  Ga2       1.0  0.25000  0.87500  0.29500  1.0000
  Ga  Ga3       1.0  0.75000  0.12500  0.70500  1.0000
  Ga  Ga4       1.0  0.25000  0.29500  0.87500  1.0000
  O   O1        1.0  0.25000  0.50700  0.10500  1.0000
  O   O2        1.0  0.00000  0.87300  0.12700  1.0000
  O   O3        1.0  0.50000  0.87300  0.12700  1.0000
  O   O4        1.0  0.75000  0.56200  0.30500  1.0000
  O   O5        1.0  0.25000  0.33500  0.33500  1.0000
  O   O6        1.0  0.25000  0.69500  0.43800  1.0000
  O   O7        1.0  0.75000  0.89500  0.49300  1.0000
  O   O8        1.0  0.25000  0.10500  0.50700  1.0000
  O   O9        1.0  0.75000  0.30500  0.56200  1.0000
  O   O10       1.0  0.75000  0.66500  0.66500  1.0000
  O   O11       1.0  0.25000  0.43800  0.69500  1.0000
  O   O12       1.0  0.00000  0.12700  0.87300  1.0000
  O   O13       1.0  0.50000  0.12700  0.87300  1.0000
  O   O14       1.0  0.75000  0.49300  0.89500  1.0000
  Sr  Sr1       1.0  0.75000  0.18300  0.18300  1.0000
  Sr  Sr2       1.0  0.25000  0.81700  0.81700  1.0000
