data_image0
_chemical_formula_structural       Eu4I8
_chemical_formula_sum              "Eu4 I8"
_cell_length_a       7.66725
_cell_length_b       8.13516
_cell_length_c       7.88315
_cell_angle_alpha    90
_cell_angle_beta     99.3474
_cell_angle_gamma    90

_space_group_name_H-M_alt    "P 1"
_space_group_IT_number       1

loop_
  _space_group_symop_operation_xyz
  'x, y, z'

loop_
  _atom_site_type_symbol
  _atom_site_label
  _atom_site_symmetry_multiplicity
  _atom_site_fract_x
  _atom_site_fract_y
  _atom_site_fract_z
  _atom_site_occupancy
  Eu  Eu1       1.0  0.78700  0.94600  0.19200  1.0000
  Eu  Eu2       1.0  0.21300  0.44600  0.30800  1.0000
  Eu  Eu3       1.0  0.78700  0.55400  0.69200  1.0000
  Eu  Eu4       1.0  0.21300  0.05420  0.80800  1.0000
  I   I1        1.0  0.07240  0.73200  0.00655  1.0000
  I   I2        1.0  0.41000  0.11700  0.20700  1.0000
  I   I3        1.0  0.59000  0.61700  0.29300  1.0000
  I   I4        1.0  0.92800  0.23200  0.49300  1.0000
  I   I5        1.0  0.07240  0.76800  0.50700  1.0000
  I   I6        1.0  0.41000  0.38300  0.70700  1.0000
  I   I7        1.0  0.59000  0.88300  0.79300  1.0000
  I   I8        1.0  0.92800  0.26800  0.99300  1.0000
