data_image0
_chemical_formula_structural       Li2Nb2O7Sr
_chemical_formula_sum              "Li2 Nb2 O7 Sr1"
_cell_length_a       3.9857
_cell_length_b       3.9857
_cell_length_c       9.3247
_cell_angle_alpha    102.336
_cell_angle_beta     102.336
_cell_angle_gamma    90.0197

_space_group_name_H-M_alt    "P 1"
_space_group_IT_number       1

loop_
  _space_group_symop_operation_xyz
  'x, y, z'

loop_
  _atom_site_type_symbol
  _atom_site_label
  _atom_site_symmetry_multiplicity
  _atom_site_fract_x
  _atom_site_fract_y
  _atom_site_fract_z
  _atom_site_occupancy
  Li  Li1       1.0  0.75000  0.25000  0.50000  1.0000
  Li  Li2       1.0  0.25000  0.75000  0.50000  1.0000
  Nb  Nb1       1.0  0.61800  0.61800  0.23700  1.0000
  Nb  Nb2       1.0  0.38200  0.38200  0.76300  1.0000
  O   O1        1.0  0.50000  0.50000  0.00000  1.0000
  O   O2        1.0  0.60800  0.10800  0.21500  1.0000
  O   O3        1.0  0.10800  0.60800  0.21500  1.0000
  O   O4        1.0  0.72500  0.72500  0.44900  1.0000
  O   O5        1.0  0.27500  0.27500  0.55100  1.0000
  O   O6        1.0  0.89200  0.39200  0.78500  1.0000
  O   O7        1.0  0.39200  0.89200  0.78500  1.0000
  Sr  Sr1       1.0  0.00000  0.00000  0.00000  1.0000
