data_image0
_chemical_formula_structural       O16P4Sm4
_chemical_formula_sum              "O16 P4 Sm4"
_cell_length_a       6.67188
_cell_length_b       6.87319
_cell_length_c       6.34096
_cell_angle_alpha    90
_cell_angle_beta     103.857
_cell_angle_gamma    90

_space_group_name_H-M_alt    "P 1"
_space_group_IT_number       1

loop_
  _space_group_symop_operation_xyz
  'x, y, z'

loop_
  _atom_site_type_symbol
  _atom_site_label
  _atom_site_symmetry_multiplicity
  _atom_site_fract_x
  _atom_site_fract_y
  _atom_site_fract_z
  _atom_site_occupancy
  O   O1        1.0  0.11600  0.83500  0.00033  1.0000
  O   O2        1.0  0.25100  0.50200  0.06320  1.0000
  O   O3        1.0  0.52600  0.89600  0.18700  1.0000
  O   O4        1.0  0.62100  0.28900  0.21400  1.0000
  O   O5        1.0  0.87900  0.78900  0.28600  1.0000
  O   O6        1.0  0.97400  0.39600  0.31300  1.0000
  O   O7        1.0  0.24900  0.00226  0.43700  1.0000
  O   O8        1.0  0.38400  0.33500  0.50000  1.0000
  O   O9        1.0  0.61600  0.66500  0.50000  1.0000
  O   O10       1.0  0.75100  0.99800  0.56300  1.0000
  O   O11       1.0  0.02550  0.60400  0.68700  1.0000
  O   O12       1.0  0.12100  0.21100  0.71400  1.0000
  O   O13       1.0  0.37900  0.71100  0.78600  1.0000
  O   O14       1.0  0.47400  0.10400  0.81300  1.0000
  O   O15       1.0  0.74900  0.49800  0.93700  1.0000
  O   O16       1.0  0.88400  0.16500  0.00000  1.0000
  P   P1        1.0  0.80300  0.33800  0.11300  1.0000
  P   P2        1.0  0.69700  0.83800  0.38700  1.0000
  P   P3        1.0  0.30300  0.16200  0.61300  1.0000
  P   P4        1.0  0.19700  0.66200  0.88700  1.0000
  Sm  Sm1       1.0  0.28100  0.15600  0.09820  1.0000
  Sm  Sm2       1.0  0.21900  0.65600  0.40200  1.0000
  Sm  Sm3       1.0  0.78100  0.34400  0.59800  1.0000
  Sm  Sm4       1.0  0.71900  0.84400  0.90200  1.0000
