data_image0
_chemical_formula_structural       Au2O8Rb4
_chemical_formula_sum              "Au2 O8 Rb4"
_cell_length_a       6.99746
_cell_length_b       6.99746
_cell_length_c       6.99746
_cell_angle_alpha    115.371
_cell_angle_beta     98.2237
_cell_angle_gamma    115.371

_space_group_name_H-M_alt    "P 1"
_space_group_IT_number       1

loop_
  _space_group_symop_operation_xyz
  'x, y, z'

loop_
  _atom_site_type_symbol
  _atom_site_label
  _atom_site_symmetry_multiplicity
  _atom_site_fract_x
  _atom_site_fract_y
  _atom_site_fract_z
  _atom_site_occupancy
  Au  Au1       1.0  0.00000  0.00000  0.00000  1.0000
  Au  Au2       1.0  0.75000  0.50000  0.25000  1.0000
  O   O1        1.0  0.04480  0.75200  0.29200  1.0000
  O   O2        1.0  0.54000  0.24800  0.29200  1.0000
  O   O3        1.0  0.04240  0.25200  0.29500  1.0000
  O   O4        1.0  0.70800  0.75200  0.46000  1.0000
  O   O5        1.0  0.04240  0.74800  0.79000  1.0000
  O   O6        1.0  0.70800  0.24800  0.95500  1.0000
  O   O7        1.0  0.21000  0.25200  0.95800  1.0000
  O   O8        1.0  0.70500  0.74800  0.95800  1.0000
  Rb  Rb1       1.0  0.37500  0.75000  0.12500  1.0000
  Rb  Rb2       1.0  0.87500  0.25000  0.62500  1.0000
  Rb  Rb3       1.0  0.37500  0.75000  0.62500  1.0000
  Rb  Rb4       1.0  0.37500  0.25000  0.62500  1.0000
