data_image0
_chemical_formula_structural       Ba4Cl2F14Mn2Ni2
_chemical_formula_sum              "Ba4 Cl2 F14 Mn2 Ni2"
_cell_length_a       7.60091
_cell_length_b       5.78888
_cell_length_c       8.83116
_cell_angle_alpha    90
_cell_angle_beta     106.561
_cell_angle_gamma    90

_space_group_name_H-M_alt    "P 1"
_space_group_IT_number       1

loop_
  _space_group_symop_operation_xyz
  'x, y, z'

loop_
  _atom_site_type_symbol
  _atom_site_label
  _atom_site_symmetry_multiplicity
  _atom_site_fract_x
  _atom_site_fract_y
  _atom_site_fract_z
  _atom_site_occupancy
  Ba  Ba1       1.0  0.29900  0.25000  0.07140  1.0000
  Ba  Ba2       1.0  0.67400  0.75000  0.41300  1.0000
  Ba  Ba3       1.0  0.32600  0.25000  0.58700  1.0000
  Ba  Ba4       1.0  0.70100  0.75000  0.92900  1.0000
  Cl  Cl1       1.0  0.88400  0.25000  0.45700  1.0000
  Cl  Cl2       1.0  0.11600  0.75000  0.54300  1.0000
  F   F1        1.0  0.26800  0.75000  0.06580  1.0000
  F   F2        1.0  0.62500  0.00542  0.16000  1.0000
  F   F3        1.0  0.62500  0.49500  0.16000  1.0000
  F   F4        1.0  0.99300  0.00386  0.16300  1.0000
  F   F5        1.0  0.99300  0.49600  0.16300  1.0000
  F   F6        1.0  0.36800  0.00499  0.34800  1.0000
  F   F7        1.0  0.36800  0.49500  0.34800  1.0000
  F   F8        1.0  0.63200  0.50500  0.65200  1.0000
  F   F9        1.0  0.63200  0.99500  0.65200  1.0000
  F   F10       1.0  0.00745  0.50400  0.83700  1.0000
  F   F11       1.0  0.00745  0.99600  0.83700  1.0000
  F   F12       1.0  0.37500  0.50500  0.84000  1.0000
  F   F13       1.0  0.37500  0.99500  0.84000  1.0000
  F   F14       1.0  0.73200  0.25000  0.93400  1.0000
  Mn  Mn1       1.0  0.17300  0.75000  0.26900  1.0000
  Mn  Mn2       1.0  0.82700  0.25000  0.73100  1.0000
  Ni  Ni1       1.0  0.81100  0.25000  0.17400  1.0000
  Ni  Ni2       1.0  0.18900  0.75000  0.82600  1.0000
