data_image0
_chemical_formula_structural       Be4Nd4O14Si2
_chemical_formula_sum              "Be4 Nd4 O14 Si2"
_cell_length_a       7.45382
_cell_length_b       7.45382
_cell_length_c       4.85773
_cell_angle_alpha    90
_cell_angle_beta     90
_cell_angle_gamma    90

_space_group_name_H-M_alt    "P 1"
_space_group_IT_number       1

loop_
  _space_group_symop_operation_xyz
  'x, y, z'

loop_
  _atom_site_type_symbol
  _atom_site_label
  _atom_site_symmetry_multiplicity
  _atom_site_fract_x
  _atom_site_fract_y
  _atom_site_fract_z
  _atom_site_occupancy
  Be  Be1       1.0  0.63600  0.13600  0.03640  1.0000
  Be  Be2       1.0  0.36400  0.86400  0.03640  1.0000
  Be  Be3       1.0  0.13600  0.36400  0.96400  1.0000
  Be  Be4       1.0  0.86400  0.63600  0.96400  1.0000
  Nd  Nd1       1.0  0.84000  0.34000  0.49400  1.0000
  Nd  Nd2       1.0  0.16000  0.66000  0.49400  1.0000
  Nd  Nd3       1.0  0.34000  0.16000  0.50600  1.0000
  Nd  Nd4       1.0  0.66000  0.84000  0.50600  1.0000
  O   O1        1.0  0.50000  0.00000  0.16900  1.0000
  O   O2        1.0  0.83500  0.07730  0.19200  1.0000
  O   O3        1.0  0.57700  0.33500  0.19200  1.0000
  O   O4        1.0  0.42300  0.66500  0.19200  1.0000
  O   O5        1.0  0.16500  0.92300  0.19200  1.0000
  O   O6        1.0  0.14100  0.35900  0.28900  1.0000
  O   O7        1.0  0.85900  0.64100  0.28900  1.0000
  O   O8        1.0  0.64100  0.14100  0.71100  1.0000
  O   O9        1.0  0.35900  0.85900  0.71100  1.0000
  O   O10       1.0  0.07730  0.16500  0.80800  1.0000
  O   O11       1.0  0.33500  0.42300  0.80800  1.0000
  O   O12       1.0  0.66500  0.57700  0.80800  1.0000
  O   O13       1.0  0.92300  0.83500  0.80800  1.0000
  O   O14       1.0  0.00000  0.50000  0.83100  1.0000
  Si  Si1       1.0  0.00000  0.00000  0.00000  1.0000
  Si  Si2       1.0  0.50000  0.50000  0.00000  1.0000
