data_image0
_chemical_formula_structural       Cl16Fe4K4
_chemical_formula_sum              "Cl16 Fe4 K4"
_cell_length_a       7.26611
_cell_length_b       10.4015
_cell_length_c       9.29585
_cell_angle_alpha    90
_cell_angle_beta     93.9448
_cell_angle_gamma    90

_space_group_name_H-M_alt    "P 1"
_space_group_IT_number       1

loop_
  _space_group_symop_operation_xyz
  'x, y, z'

loop_
  _atom_site_type_symbol
  _atom_site_label
  _atom_site_symmetry_multiplicity
  _atom_site_fract_x
  _atom_site_fract_y
  _atom_site_fract_z
  _atom_site_occupancy
  Cl  Cl1       1.0  0.27600  0.63700  0.05910  1.0000
  Cl  Cl2       1.0  0.78900  0.69000  0.08140  1.0000
  Cl  Cl3       1.0  0.06090  0.98100  0.18700  1.0000
  Cl  Cl4       1.0  0.96700  0.32500  0.20700  1.0000
  Cl  Cl5       1.0  0.53200  0.88600  0.29700  1.0000
  Cl  Cl6       1.0  0.45000  0.23500  0.30900  1.0000
  Cl  Cl7       1.0  0.71500  0.52800  0.42300  1.0000
  Cl  Cl8       1.0  0.22600  0.57600  0.43900  1.0000
  Cl  Cl9       1.0  0.77400  0.07630  0.56100  1.0000
  Cl  Cl10      1.0  0.28500  0.02850  0.57700  1.0000
  Cl  Cl11      1.0  0.55000  0.73500  0.69100  1.0000
  Cl  Cl12      1.0  0.46800  0.38600  0.70300  1.0000
  Cl  Cl13      1.0  0.03250  0.82500  0.79300  1.0000
  Cl  Cl14      1.0  0.93900  0.48100  0.81300  1.0000
  Cl  Cl15      1.0  0.21100  0.19000  0.91900  1.0000
  Cl  Cl16      1.0  0.72400  0.13700  0.94100  1.0000
  Fe  Fe1       1.0  0.99200  0.15700  0.06590  1.0000
  Fe  Fe2       1.0  0.50900  0.05770  0.43100  1.0000
  Fe  Fe3       1.0  0.49100  0.55800  0.56900  1.0000
  Fe  Fe4       1.0  0.00807  0.65700  0.93400  1.0000
  K   K1        1.0  0.57400  0.41400  0.04720  1.0000
  K   K2        1.0  0.93300  0.80400  0.44600  1.0000
  K   K3        1.0  0.06680  0.30400  0.55400  1.0000
  K   K4        1.0  0.42600  0.91400  0.95300  1.0000
