data_image0
_chemical_formula_structural       Ba2O14Si4Zn4
_chemical_formula_sum              "Ba2 O14 Si4 Zn4"
_cell_length_a       6.75615
_cell_length_b       7.53946
_cell_length_c       7.53946
_cell_angle_alpha    60.1872
_cell_angle_beta     90
_cell_angle_gamma    90

_space_group_name_H-M_alt    "P 1"
_space_group_IT_number       1

loop_
  _space_group_symop_operation_xyz
  'x, y, z'

loop_
  _atom_site_type_symbol
  _atom_site_label
  _atom_site_symmetry_multiplicity
  _atom_site_fract_x
  _atom_site_fract_y
  _atom_site_fract_z
  _atom_site_occupancy
  Ba  Ba1       1.0  0.62400  0.74000  0.26000  1.0000
  Ba  Ba2       1.0  0.12400  0.26000  0.74000  1.0000
  O   O1        1.0  0.11800  0.89800  0.10200  1.0000
  O   O2        1.0  0.62300  0.21900  0.17000  1.0000
  O   O3        1.0  0.91900  0.56200  0.17900  1.0000
  O   O4        1.0  0.32400  0.56400  0.18200  1.0000
  O   O5        1.0  0.12300  0.17000  0.21900  1.0000
  O   O6        1.0  0.32400  0.81800  0.43600  1.0000
  O   O7        1.0  0.91900  0.82100  0.43800  1.0000
  O   O8        1.0  0.41900  0.17900  0.56200  1.0000
  O   O9        1.0  0.82400  0.18200  0.56400  1.0000
  O   O10       1.0  0.62300  0.83000  0.78100  1.0000
  O   O11       1.0  0.82400  0.43600  0.81800  1.0000
  O   O12       1.0  0.41900  0.43800  0.82100  1.0000
  O   O13       1.0  0.12300  0.78100  0.83000  1.0000
  O   O14       1.0  0.61800  0.10200  0.89800  1.0000
  Si  Si1       1.0  0.12200  0.68600  0.08000  1.0000
  Si  Si2       1.0  0.12200  0.92000  0.31400  1.0000
  Si  Si3       1.0  0.62200  0.08000  0.68600  1.0000
  Si  Si4       1.0  0.62200  0.31400  0.92000  1.0000
  Zn  Zn1       1.0  0.37300  0.27500  0.27100  1.0000
  Zn  Zn2       1.0  0.87300  0.27100  0.27500  1.0000
  Zn  Zn3       1.0  0.37300  0.72900  0.72500  1.0000
  Zn  Zn4       1.0  0.87300  0.72500  0.72900  1.0000
