data_image0
_chemical_formula_structural       Ag4Cs4Se16
_chemical_formula_sum              "Ag4 Cs4 Se16"
_cell_length_a       5.89074
_cell_length_b       9.20746
_cell_length_c       14.077
_cell_angle_alpha    90
_cell_angle_beta     90
_cell_angle_gamma    90

_space_group_name_H-M_alt    "P 1"
_space_group_IT_number       1

loop_
  _space_group_symop_operation_xyz
  'x, y, z'

loop_
  _atom_site_type_symbol
  _atom_site_label
  _atom_site_symmetry_multiplicity
  _atom_site_fract_x
  _atom_site_fract_y
  _atom_site_fract_z
  _atom_site_occupancy
  Ag  Ag1       1.0  0.95300  0.87100  0.06040  1.0000
  Ag  Ag2       1.0  0.04750  0.37100  0.44000  1.0000
  Ag  Ag3       1.0  0.54700  0.12900  0.56000  1.0000
  Ag  Ag4       1.0  0.45300  0.62900  0.94000  1.0000
  Cs  Cs1       1.0  0.16700  0.43700  0.16600  1.0000
  Cs  Cs2       1.0  0.83300  0.93700  0.33400  1.0000
  Cs  Cs3       1.0  0.33300  0.56300  0.66600  1.0000
  Cs  Cs4       1.0  0.66700  0.06270  0.83400  1.0000
  Se  Se1       1.0  0.40300  0.07520  0.07240  1.0000
  Se  Se2       1.0  0.79300  0.13400  0.09780  1.0000
  Se  Se3       1.0  0.62400  0.69100  0.10900  1.0000
  Se  Se4       1.0  0.35500  0.86200  0.17100  1.0000
  Se  Se5       1.0  0.64500  0.36200  0.32900  1.0000
  Se  Se6       1.0  0.37600  0.19100  0.39100  1.0000
  Se  Se7       1.0  0.20700  0.63400  0.40200  1.0000
  Se  Se8       1.0  0.59700  0.57500  0.42800  1.0000
  Se  Se9       1.0  0.09680  0.92500  0.57200  1.0000
  Se  Se10      1.0  0.70700  0.86600  0.59800  1.0000
  Se  Se11      1.0  0.87600  0.30900  0.60900  1.0000
  Se  Se12      1.0  0.14500  0.13800  0.67100  1.0000
  Se  Se13      1.0  0.85500  0.63800  0.82900  1.0000
  Se  Se14      1.0  0.12400  0.80900  0.89100  1.0000
  Se  Se15      1.0  0.29300  0.36600  0.90200  1.0000
  Se  Se16      1.0  0.90300  0.42500  0.92800  1.0000
