data_image0
_chemical_formula_structural       Gd4O16P4
_chemical_formula_sum              "Gd4 O16 P4"
_cell_length_a       6.61734
_cell_length_b       6.80288
_cell_length_c       6.29418
_cell_angle_alpha    90
_cell_angle_beta     104.034
_cell_angle_gamma    90

_space_group_name_H-M_alt    "P 1"
_space_group_IT_number       1

loop_
  _space_group_symop_operation_xyz
  'x, y, z'

loop_
  _atom_site_type_symbol
  _atom_site_label
  _atom_site_symmetry_multiplicity
  _atom_site_fract_x
  _atom_site_fract_y
  _atom_site_fract_z
  _atom_site_occupancy
  Gd  Gd1       1.0  0.28100  0.15400  0.09650  1.0000
  Gd  Gd2       1.0  0.21900  0.65400  0.40400  1.0000
  Gd  Gd3       1.0  0.78100  0.34600  0.59600  1.0000
  Gd  Gd4       1.0  0.71900  0.84600  0.90400  1.0000
  O   O1        1.0  0.88500  0.16200  0.00143  1.0000
  O   O2        1.0  0.25000  0.50100  0.06540  1.0000
  O   O3        1.0  0.52600  0.89700  0.18300  1.0000
  O   O4        1.0  0.61900  0.28900  0.21400  1.0000
  O   O5        1.0  0.88100  0.78900  0.28600  1.0000
  O   O6        1.0  0.97400  0.39700  0.31700  1.0000
  O   O7        1.0  0.25000  0.00085  0.43500  1.0000
  O   O8        1.0  0.61500  0.66200  0.49900  1.0000
  O   O9        1.0  0.38500  0.33800  0.50100  1.0000
  O   O10       1.0  0.75000  0.99900  0.56500  1.0000
  O   O11       1.0  0.02610  0.60300  0.68300  1.0000
  O   O12       1.0  0.11900  0.21100  0.71400  1.0000
  O   O13       1.0  0.38100  0.71100  0.78600  1.0000
  O   O14       1.0  0.47400  0.10300  0.81700  1.0000
  O   O15       1.0  0.75000  0.49900  0.93500  1.0000
  O   O16       1.0  0.11500  0.83800  0.99900  1.0000
  P   P1        1.0  0.80200  0.33900  0.11300  1.0000
  P   P2        1.0  0.69800  0.83900  0.38700  1.0000
  P   P3        1.0  0.30200  0.16100  0.61300  1.0000
  P   P4        1.0  0.19800  0.66100  0.88700  1.0000
