data_image0
_chemical_formula_structural       Ag12S8Tl4
_chemical_formula_sum              "Ag12 S8 Tl4"
_cell_length_a       8.42031
_cell_length_b       8.90639
_cell_length_c       7.04921
_cell_angle_alpha    90
_cell_angle_beta     90
_cell_angle_gamma    90

_space_group_name_H-M_alt    "P 1"
_space_group_IT_number       1

loop_
  _space_group_symop_operation_xyz
  'x, y, z'

loop_
  _atom_site_type_symbol
  _atom_site_label
  _atom_site_symmetry_multiplicity
  _atom_site_fract_x
  _atom_site_fract_y
  _atom_site_fract_z
  _atom_site_occupancy
  Ag  Ag1       1.0  0.83800  0.40500  0.11700  1.0000
  Ag  Ag2       1.0  0.66200  0.90500  0.11700  1.0000
  Ag  Ag3       1.0  0.50000  0.18200  0.25000  1.0000
  Ag  Ag4       1.0  0.00000  0.68200  0.25000  1.0000
  Ag  Ag5       1.0  0.16200  0.40500  0.38300  1.0000
  Ag  Ag6       1.0  0.33800  0.90500  0.38300  1.0000
  Ag  Ag7       1.0  0.66200  0.09510  0.61700  1.0000
  Ag  Ag8       1.0  0.83800  0.59500  0.61700  1.0000
  Ag  Ag9       1.0  0.00000  0.31800  0.75000  1.0000
  Ag  Ag10      1.0  0.50000  0.81800  0.75000  1.0000
  Ag  Ag11      1.0  0.33800  0.09510  0.88300  1.0000
  Ag  Ag12      1.0  0.16200  0.59500  0.88300  1.0000
  S   S1        1.0  0.18400  0.32500  0.01680  1.0000
  S   S2        1.0  0.31600  0.82500  0.01680  1.0000
  S   S3        1.0  0.81600  0.32500  0.48300  1.0000
  S   S4        1.0  0.68400  0.82500  0.48300  1.0000
  S   S5        1.0  0.31600  0.17500  0.51700  1.0000
  S   S6        1.0  0.18400  0.67500  0.51700  1.0000
  S   S7        1.0  0.68400  0.17500  0.98300  1.0000
  S   S8        1.0  0.81600  0.67500  0.98300  1.0000
  Tl  Tl1       1.0  0.00000  0.07990  0.25000  1.0000
  Tl  Tl2       1.0  0.50000  0.58000  0.25000  1.0000
  Tl  Tl3       1.0  0.50000  0.42000  0.75000  1.0000
  Tl  Tl4       1.0  0.00000  0.92000  0.75000  1.0000
