data_image0
_chemical_formula_structural       Eu4O16P4
_chemical_formula_sum              "Eu4 O16 P4"
_cell_length_a       6.70174
_cell_length_b       6.911
_cell_length_c       6.43078
_cell_angle_alpha    90
_cell_angle_beta     103.8
_cell_angle_gamma    90

_space_group_name_H-M_alt    "P 1"
_space_group_IT_number       1

loop_
  _space_group_symop_operation_xyz
  'x, y, z'

loop_
  _atom_site_type_symbol
  _atom_site_label
  _atom_site_symmetry_multiplicity
  _atom_site_fract_x
  _atom_site_fract_y
  _atom_site_fract_z
  _atom_site_occupancy
  Eu  Eu1       1.0  0.27100  0.15500  0.10300  1.0000
  Eu  Eu2       1.0  0.22900  0.65500  0.39700  1.0000
  Eu  Eu3       1.0  0.77100  0.34500  0.60300  1.0000
  Eu  Eu4       1.0  0.72900  0.84500  0.89700  1.0000
  O   O1        1.0  0.88100  0.16500  0.00278  1.0000
  O   O2        1.0  0.25600  0.50000  0.05650  1.0000
  O   O3        1.0  0.52400  0.89800  0.19500  1.0000
  O   O4        1.0  0.61900  0.28900  0.20500  1.0000
  O   O5        1.0  0.88100  0.78900  0.29500  1.0000
  O   O6        1.0  0.97600  0.39800  0.30500  1.0000
  O   O7        1.0  0.24400  0.00038  0.44400  1.0000
  O   O8        1.0  0.61900  0.66500  0.49700  1.0000
  O   O9        1.0  0.38100  0.33500  0.50300  1.0000
  O   O10       1.0  0.75600  0.00000  0.55600  1.0000
  O   O11       1.0  0.02380  0.60200  0.69500  1.0000
  O   O12       1.0  0.11900  0.21100  0.70500  1.0000
  O   O13       1.0  0.38100  0.71100  0.79500  1.0000
  O   O14       1.0  0.47600  0.10200  0.80500  1.0000
  O   O15       1.0  0.74400  0.50000  0.94400  1.0000
  O   O16       1.0  0.11900  0.83500  0.99700  1.0000
  P   P1        1.0  0.80300  0.33800  0.11100  1.0000
  P   P2        1.0  0.69700  0.83800  0.38900  1.0000
  P   P3        1.0  0.30300  0.16200  0.61100  1.0000
  P   P4        1.0  0.19700  0.66200  0.88900  1.0000
