data_image0
_chemical_formula_structural       La8P16
_chemical_formula_sum              "La8 P16"
_cell_length_a       8.83242
_cell_length_b       8.91899
_cell_length_c       9.38918
_cell_angle_alpha    118.281
_cell_angle_beta     117.98
_cell_angle_gamma    90.1428

_space_group_name_H-M_alt    "P 1"
_space_group_IT_number       1

loop_
  _space_group_symop_operation_xyz
  'x, y, z'

loop_
  _atom_site_type_symbol
  _atom_site_label
  _atom_site_symmetry_multiplicity
  _atom_site_fract_x
  _atom_site_fract_y
  _atom_site_fract_z
  _atom_site_occupancy
  La  La1       1.0  0.42200  0.22600  0.04610  1.0000
  La  La2       1.0  0.05810  0.05670  0.11600  1.0000
  La  La3       1.0  0.83600  0.98300  0.41400  1.0000
  La  La4       1.0  0.03380  0.59200  0.42300  1.0000
  La  La5       1.0  0.61100  0.66900  0.57700  1.0000
  La  La6       1.0  0.42200  0.06850  0.58600  1.0000
  La  La7       1.0  0.94200  0.44100  0.88400  1.0000
  La  La8       1.0  0.37600  0.68000  0.95400  1.0000
  P   P1        1.0  0.67300  0.92000  0.00967  1.0000
  P   P2        1.0  0.23200  0.43100  0.23400  1.0000
  P   P3        1.0  0.64900  0.60400  0.23900  1.0000
  P   P4        1.0  0.79800  0.20800  0.24200  1.0000
  P   P5        1.0  0.28200  0.68100  0.24500  1.0000
  P   P6        1.0  0.06350  0.80400  0.25600  1.0000
  P   P7        1.0  0.45300  0.04840  0.27000  1.0000
  P   P8        1.0  0.68000  0.28400  0.43400  1.0000
  P   P9        1.0  0.24700  0.35000  0.56600  1.0000
  P   P10       1.0  0.18300  0.27800  0.73000  1.0000
  P   P11       1.0  0.80700  0.04740  0.74400  1.0000
  P   P12       1.0  0.03660  0.93600  0.75500  1.0000
  P   P13       1.0  0.55500  0.46600  0.75800  1.0000
  P   P14       1.0  0.40900  0.86500  0.76100  1.0000
  P   P15       1.0  0.99700  0.69700  0.76600  1.0000
  P   P16       1.0  0.66300  0.41100  0.99000  1.0000
