data_image0
_chemical_formula_structural       B16Cr4Th4
_chemical_formula_sum              "B16 Cr4 Th4"
_cell_length_a       6.02911
_cell_length_b       11.6558
_cell_length_c       3.62658
_cell_angle_alpha    90
_cell_angle_beta     90
_cell_angle_gamma    90

_space_group_name_H-M_alt    "P 1"
_space_group_IT_number       1

loop_
  _space_group_symop_operation_xyz
  'x, y, z'

loop_
  _atom_site_type_symbol
  _atom_site_label
  _atom_site_symmetry_multiplicity
  _atom_site_fract_x
  _atom_site_fract_y
  _atom_site_fract_z
  _atom_site_occupancy
  B   B1        1.0  0.14300  0.03310  0.00000  1.0000
  B   B2        1.0  0.61100  0.04490  0.00000  1.0000
  B   B3        1.0  0.22500  0.18100  0.00000  1.0000
  B   B4        1.0  0.52500  0.18800  0.00000  1.0000
  B   B5        1.0  0.02540  0.31200  0.00000  1.0000
  B   B6        1.0  0.72500  0.31900  0.00000  1.0000
  B   B7        1.0  0.11100  0.45500  0.00000  1.0000
  B   B8        1.0  0.64300  0.46700  0.00000  1.0000
  B   B9        1.0  0.35700  0.53300  0.00000  1.0000
  B   B10       1.0  0.88900  0.54500  0.00000  1.0000
  B   B11       1.0  0.27500  0.68100  0.00000  1.0000
  B   B12       1.0  0.97500  0.68800  0.00000  1.0000
  B   B13       1.0  0.47500  0.81200  0.00000  1.0000
  B   B14       1.0  0.77500  0.81900  0.00000  1.0000
  B   B15       1.0  0.38900  0.95500  0.00000  1.0000
  B   B16       1.0  0.85700  0.96700  0.00000  1.0000
  Cr  Cr1       1.0  0.37800  0.08150  0.50000  1.0000
  Cr  Cr2       1.0  0.87800  0.41900  0.50000  1.0000
  Cr  Cr3       1.0  0.12200  0.58100  0.50000  1.0000
  Cr  Cr4       1.0  0.62200  0.91900  0.50000  1.0000
  Th  Th1       1.0  0.87700  0.15100  0.50000  1.0000
  Th  Th2       1.0  0.37700  0.34900  0.50000  1.0000
  Th  Th3       1.0  0.62300  0.65100  0.50000  1.0000
  Th  Th4       1.0  0.12300  0.84900  0.50000  1.0000
