data_image0
_chemical_formula_structural       Al4Br16Cs4
_chemical_formula_sum              "Al4 Br16 Cs4"
_cell_length_a       12.4332
_cell_length_b       7.60281
_cell_length_c       10.047
_cell_angle_alpha    90
_cell_angle_beta     90
_cell_angle_gamma    90

_space_group_name_H-M_alt    "P 1"
_space_group_IT_number       1

loop_
  _space_group_symop_operation_xyz
  'x, y, z'

loop_
  _atom_site_type_symbol
  _atom_site_label
  _atom_site_symmetry_multiplicity
  _atom_site_fract_x
  _atom_site_fract_y
  _atom_site_fract_z
  _atom_site_occupancy
  Al  Al1       1.0  0.43000  0.75000  0.19300  1.0000
  Al  Al2       1.0  0.93000  0.75000  0.30700  1.0000
  Al  Al3       1.0  0.06990  0.25000  0.69300  1.0000
  Al  Al4       1.0  0.57000  0.25000  0.80700  1.0000
  Br  Br1       1.0  0.28100  0.75000  0.05200  1.0000
  Br  Br2       1.0  0.59200  0.75000  0.07970  1.0000
  Br  Br3       1.0  0.91800  0.50400  0.16900  1.0000
  Br  Br4       1.0  0.91800  0.99600  0.16900  1.0000
  Br  Br5       1.0  0.41800  0.50400  0.33100  1.0000
  Br  Br6       1.0  0.41800  0.99600  0.33100  1.0000
  Br  Br7       1.0  0.09180  0.75000  0.42000  1.0000
  Br  Br8       1.0  0.78100  0.75000  0.44800  1.0000
  Br  Br9       1.0  0.21900  0.25000  0.55200  1.0000
  Br  Br10      1.0  0.90800  0.25000  0.58000  1.0000
  Br  Br11      1.0  0.58200  0.00404  0.66900  1.0000
  Br  Br12      1.0  0.58200  0.49600  0.66900  1.0000
  Br  Br13      1.0  0.08240  0.00404  0.83100  1.0000
  Br  Br14      1.0  0.08240  0.49600  0.83100  1.0000
  Br  Br15      1.0  0.40800  0.25000  0.92000  1.0000
  Br  Br16      1.0  0.71900  0.25000  0.94800  1.0000
  Cs  Cs1       1.0  0.17900  0.25000  0.17500  1.0000
  Cs  Cs2       1.0  0.67900  0.25000  0.32500  1.0000
  Cs  Cs3       1.0  0.32100  0.75000  0.67500  1.0000
  Cs  Cs4       1.0  0.82100  0.75000  0.82500  1.0000
