data_image0
_chemical_formula_structural       Ag2In2O16W4
_chemical_formula_sum              "Ag2 In2 O16 W4"
_cell_length_a       10.2653
_cell_length_b       5.83234
_cell_length_c       5.05675
_cell_angle_alpha    90
_cell_angle_beta     90.2331
_cell_angle_gamma    90

_space_group_name_H-M_alt    "P 1"
_space_group_IT_number       1

loop_
  _space_group_symop_operation_xyz
  'x, y, z'

loop_
  _atom_site_type_symbol
  _atom_site_label
  _atom_site_symmetry_multiplicity
  _atom_site_fract_x
  _atom_site_fract_y
  _atom_site_fract_z
  _atom_site_occupancy
  Ag  Ag1       1.0  0.00000  0.68200  0.25000  1.0000
  Ag  Ag2       1.0  0.00000  0.31800  0.75000  1.0000
  In  In1       1.0  0.50000  0.68900  0.25000  1.0000
  In  In2       1.0  0.50000  0.31100  0.75000  1.0000
  O   O1        1.0  0.63100  0.90000  0.04300  1.0000
  O   O2        1.0  0.16900  0.90400  0.07320  1.0000
  O   O3        1.0  0.61600  0.38100  0.10100  1.0000
  O   O4        1.0  0.14600  0.37100  0.12500  1.0000
  O   O5        1.0  0.85400  0.37100  0.37500  1.0000
  O   O6        1.0  0.38400  0.38100  0.39900  1.0000
  O   O7        1.0  0.83100  0.90400  0.42700  1.0000
  O   O8        1.0  0.36900  0.90000  0.45700  1.0000
  O   O9        1.0  0.63100  0.09950  0.54300  1.0000
  O   O10       1.0  0.16900  0.09610  0.57300  1.0000
  O   O11       1.0  0.61600  0.61900  0.60100  1.0000
  O   O12       1.0  0.14600  0.62900  0.62500  1.0000
  O   O13       1.0  0.85400  0.62900  0.87500  1.0000
  O   O14       1.0  0.38400  0.61900  0.89900  1.0000
  O   O15       1.0  0.83100  0.09610  0.92700  1.0000
  O   O16       1.0  0.36900  0.09950  0.95700  1.0000
  W   W1        1.0  0.74200  0.17800  0.23800  1.0000
  W   W2        1.0  0.25800  0.17800  0.26200  1.0000
  W   W3        1.0  0.74200  0.82200  0.73800  1.0000
  W   W4        1.0  0.25800  0.82200  0.76200  1.0000
