data_image0
_chemical_formula_structural       Hg2Np4O8
_chemical_formula_sum              "Hg2 Np4 O8"
_cell_length_a       7.26232
_cell_length_b       7.26232
_cell_length_c       7.26232
_cell_angle_alpha    119.865
_cell_angle_beta     90.2346
_cell_angle_gamma    119.865

_space_group_name_H-M_alt    "P 1"
_space_group_IT_number       1

loop_
  _space_group_symop_operation_xyz
  'x, y, z'

loop_
  _atom_site_type_symbol
  _atom_site_label
  _atom_site_symmetry_multiplicity
  _atom_site_fract_x
  _atom_site_fract_y
  _atom_site_fract_z
  _atom_site_occupancy
  Hg  Hg1       1.0  0.00000  0.00000  0.00000  1.0000
  Hg  Hg2       1.0  0.75000  0.50000  0.25000  1.0000
  Np  Np1       1.0  0.37500  0.75000  0.12500  1.0000
  Np  Np2       1.0  0.87500  0.25000  0.62500  1.0000
  Np  Np3       1.0  0.37500  0.75000  0.62500  1.0000
  Np  Np4       1.0  0.37500  0.25000  0.62500  1.0000
  O   O1        1.0  0.59200  0.18700  0.40500  1.0000
  O   O2        1.0  0.21800  0.81300  0.40500  1.0000
  O   O3        1.0  0.59500  0.81300  0.40800  1.0000
  O   O4        1.0  0.15500  0.31300  0.46800  1.0000
  O   O5        1.0  0.59500  0.18700  0.78200  1.0000
  O   O6        1.0  0.15500  0.68700  0.84200  1.0000
  O   O7        1.0  0.15800  0.31300  0.84500  1.0000
  O   O8        1.0  0.53200  0.68700  0.84500  1.0000
