data_image0
_chemical_formula_structural       B4Ba4Cl2O12Yb2
_chemical_formula_sum              "B4 Ba4 Cl2 O12 Yb2"
_cell_length_a       6.45651
_cell_length_b       5.34256
_cell_length_c       11.171
_cell_angle_alpha    90
_cell_angle_beta     96.5878
_cell_angle_gamma    90

_space_group_name_H-M_alt    "P 1"
_space_group_IT_number       1

loop_
  _space_group_symop_operation_xyz
  'x, y, z'

loop_
  _atom_site_type_symbol
  _atom_site_label
  _atom_site_symmetry_multiplicity
  _atom_site_fract_x
  _atom_site_fract_y
  _atom_site_fract_z
  _atom_site_occupancy
  B   B1        1.0  0.37700  0.75000  0.22400  1.0000
  B   B2        1.0  0.78700  0.25000  0.42500  1.0000
  B   B3        1.0  0.21300  0.75000  0.57500  1.0000
  B   B4        1.0  0.62300  0.25000  0.77600  1.0000
  Ba  Ba1       1.0  0.33100  0.25000  0.07070  1.0000
  Ba  Ba2       1.0  0.91200  0.75000  0.29800  1.0000
  Ba  Ba3       1.0  0.08760  0.25000  0.70200  1.0000
  Ba  Ba4       1.0  0.66900  0.75000  0.92900  1.0000
  Cl  Cl1       1.0  0.84500  0.25000  0.08320  1.0000
  Cl  Cl2       1.0  0.15500  0.75000  0.91700  1.0000
  O   O1        1.0  0.53400  0.75000  0.15000  1.0000
  O   O2        1.0  0.28900  0.52900  0.25700  1.0000
  O   O3        1.0  0.28900  0.97100  0.25700  1.0000
  O   O4        1.0  0.99200  0.25000  0.40700  1.0000
  O   O5        1.0  0.67900  0.03010  0.43200  1.0000
  O   O6        1.0  0.67900  0.47000  0.43200  1.0000
  O   O7        1.0  0.32100  0.53000  0.56800  1.0000
  O   O8        1.0  0.32100  0.97000  0.56800  1.0000
  O   O9        1.0  0.00787  0.75000  0.59300  1.0000
  O   O10       1.0  0.71100  0.02950  0.74300  1.0000
  O   O11       1.0  0.71100  0.47100  0.74300  1.0000
  O   O12       1.0  0.46600  0.25000  0.85000  1.0000
  Yb  Yb1       1.0  0.35000  0.25000  0.41500  1.0000
  Yb  Yb2       1.0  0.65000  0.75000  0.58500  1.0000
