data_image0
_chemical_formula_structural       Br10F12Sb2
_chemical_formula_sum              "Br10 F12 Sb2"
_cell_length_a       6.71987
_cell_length_b       6.71987
_cell_length_c       12.2376
_cell_angle_alpha    105.256
_cell_angle_beta     102.03
_cell_angle_gamma    98.1197

_space_group_name_H-M_alt    "P 1"
_space_group_IT_number       1

loop_
  _space_group_symop_operation_xyz
  'x, y, z'

loop_
  _atom_site_type_symbol
  _atom_site_label
  _atom_site_symmetry_multiplicity
  _atom_site_fract_x
  _atom_site_fract_y
  _atom_site_fract_z
  _atom_site_occupancy
  Br  Br1       1.0  0.00000  0.00000  0.00000  1.0000
  Br  Br2       1.0  0.16700  0.38500  0.07690  1.0000
  Br  Br3       1.0  0.91500  0.46400  0.17200  1.0000
  Br  Br4       1.0  0.29200  0.24200  0.32800  1.0000
  Br  Br5       1.0  0.30900  0.59000  0.42300  1.0000
  Br  Br6       1.0  0.00000  0.50000  0.50000  1.0000
  Br  Br7       1.0  0.69100  0.41000  0.57700  1.0000
  Br  Br8       1.0  0.70800  0.75800  0.67200  1.0000
  Br  Br9       1.0  0.08530  0.53600  0.82800  1.0000
  Br  Br10      1.0  0.83300  0.61500  0.92300  1.0000
  F   F1        1.0  0.59400  0.74300  0.08570  1.0000
  F   F2        1.0  0.64100  0.14600  0.21800  1.0000
  F   F3        1.0  0.33600  0.84800  0.22500  1.0000
  F   F4        1.0  0.62300  0.61100  0.27500  1.0000
  F   F5        1.0  0.92900  0.92300  0.28200  1.0000
  F   F6        1.0  0.65700  0.00781  0.41400  1.0000
  F   F7        1.0  0.34300  0.99200  0.58600  1.0000
  F   F8        1.0  0.07150  0.07680  0.71800  1.0000
  F   F9        1.0  0.37700  0.38900  0.72500  1.0000
  F   F10       1.0  0.66400  0.15200  0.77500  1.0000
  F   F11       1.0  0.35900  0.85400  0.78200  1.0000
  F   F12       1.0  0.40600  0.25700  0.91400  1.0000
  Sb  Sb1       1.0  0.63500  0.88500  0.25000  1.0000
  Sb  Sb2       1.0  0.36500  0.11500  0.75000  1.0000
