data_image0
_chemical_formula_structural       Gd2K2O16W4
_chemical_formula_sum              "Gd2 K2 O16 W4"
_cell_length_a       6.54763
_cell_length_b       6.54763
_cell_length_c       7.55579
_cell_angle_alpha    91.5081
_cell_angle_beta     91.5081
_cell_angle_gamma    101.814

_space_group_name_H-M_alt    "P 1"
_space_group_IT_number       1

loop_
  _space_group_symop_operation_xyz
  'x, y, z'

loop_
  _atom_site_type_symbol
  _atom_site_label
  _atom_site_symmetry_multiplicity
  _atom_site_fract_x
  _atom_site_fract_y
  _atom_site_fract_z
  _atom_site_occupancy
  Gd  Gd1       1.0  0.75000  0.25000  0.25000  1.0000
  Gd  Gd2       1.0  0.25000  0.75000  0.75000  1.0000
  K   K1        1.0  0.31900  0.68100  0.25000  1.0000
  K   K2        1.0  0.68100  0.31900  0.75000  1.0000
  O   O1        1.0  0.12500  0.88300  0.02220  1.0000
  O   O2        1.0  0.45600  0.22700  0.07060  1.0000
  O   O3        1.0  0.82400  0.54100  0.07540  1.0000
  O   O4        1.0  0.11900  0.25200  0.24900  1.0000
  O   O5        1.0  0.74800  0.88100  0.25100  1.0000
  O   O6        1.0  0.45900  0.17600  0.42500  1.0000
  O   O7        1.0  0.77300  0.54400  0.42900  1.0000
  O   O8        1.0  0.11700  0.87500  0.47800  1.0000
  O   O9        1.0  0.88300  0.12500  0.52200  1.0000
  O   O10       1.0  0.22700  0.45600  0.57100  1.0000
  O   O11       1.0  0.54100  0.82400  0.57500  1.0000
  O   O12       1.0  0.25200  0.11900  0.74900  1.0000
  O   O13       1.0  0.88100  0.74800  0.75100  1.0000
  O   O14       1.0  0.17600  0.45900  0.92500  1.0000
  O   O15       1.0  0.54400  0.77300  0.92900  1.0000
  O   O16       1.0  0.87500  0.11700  0.97800  1.0000
  W   W1        1.0  0.80800  0.80200  0.01750  1.0000
  W   W2        1.0  0.19800  0.19200  0.48200  1.0000
  W   W3        1.0  0.80200  0.80800  0.51800  1.0000
  W   W4        1.0  0.19200  0.19800  0.98200  1.0000
