data_image0
_chemical_formula_structural       O8Pa2Rb4
_chemical_formula_sum              "O8 Pa2 Rb4"
_cell_length_a       7.58637
_cell_length_b       7.58637
_cell_length_c       7.58637
_cell_angle_alpha    119.835
_cell_angle_beta     90.2859
_cell_angle_gamma    119.835

_space_group_name_H-M_alt    "P 1"
_space_group_IT_number       1

loop_
  _space_group_symop_operation_xyz
  'x, y, z'

loop_
  _atom_site_type_symbol
  _atom_site_label
  _atom_site_symmetry_multiplicity
  _atom_site_fract_x
  _atom_site_fract_y
  _atom_site_fract_z
  _atom_site_occupancy
  O   O1        1.0  0.11000  0.22200  0.33200  1.0000
  O   O2        1.0  0.63700  0.27800  0.36000  1.0000
  O   O3        1.0  0.08240  0.72200  0.36000  1.0000
  O   O4        1.0  0.64000  0.72200  0.36300  1.0000
  O   O5        1.0  0.11000  0.77800  0.88700  1.0000
  O   O6        1.0  0.11300  0.22200  0.89000  1.0000
  O   O7        1.0  0.66800  0.77800  0.89000  1.0000
  O   O8        1.0  0.64000  0.27800  0.91800  1.0000
  Pa  Pa1       1.0  0.00000  0.00000  0.00000  1.0000
  Pa  Pa2       1.0  0.75000  0.50000  0.25000  1.0000
  Rb  Rb1       1.0  0.37500  0.75000  0.12500  1.0000
  Rb  Rb2       1.0  0.87500  0.25000  0.62500  1.0000
  Rb  Rb3       1.0  0.37500  0.75000  0.62500  1.0000
  Rb  Rb4       1.0  0.37500  0.25000  0.62500  1.0000
