data_image0
_chemical_formula_structural       La6O16Re2
_chemical_formula_sum              "La6 O16 Re2"
_cell_length_a       7.60295
_cell_length_b       7.5908
_cell_length_c       6.12127
_cell_angle_alpha    90
_cell_angle_beta     90
_cell_angle_gamma    110.334

_space_group_name_H-M_alt    "P 1"
_space_group_IT_number       1

loop_
  _space_group_symop_operation_xyz
  'x, y, z'

loop_
  _atom_site_type_symbol
  _atom_site_label
  _atom_site_symmetry_multiplicity
  _atom_site_fract_x
  _atom_site_fract_y
  _atom_site_fract_z
  _atom_site_occupancy
  La  La1       1.0  0.34600  0.10900  0.25000  1.0000
  La  La2       1.0  0.39600  0.60200  0.25000  1.0000
  La  La3       1.0  0.89100  0.66300  0.25000  1.0000
  La  La4       1.0  0.10900  0.33700  0.75000  1.0000
  La  La5       1.0  0.60400  0.39800  0.75000  1.0000
  La  La6       1.0  0.65400  0.89100  0.75000  1.0000
  O   O1        1.0  0.33700  0.33500  0.00065  1.0000
  O   O2        1.0  0.19800  0.80200  0.05290  1.0000
  O   O3        1.0  0.97500  0.03740  0.25000  1.0000
  O   O4        1.0  0.66500  0.34100  0.25000  1.0000
  O   O5        1.0  0.03470  0.41000  0.25000  1.0000
  O   O6        1.0  0.59700  0.96800  0.25000  1.0000
  O   O7        1.0  0.19800  0.80200  0.44700  1.0000
  O   O8        1.0  0.33700  0.33500  0.49900  1.0000
  O   O9        1.0  0.66300  0.66500  0.50100  1.0000
  O   O10       1.0  0.80200  0.19800  0.55300  1.0000
  O   O11       1.0  0.40300  0.03240  0.75000  1.0000
  O   O12       1.0  0.96500  0.59000  0.75000  1.0000
  O   O13       1.0  0.33500  0.65900  0.75000  1.0000
  O   O14       1.0  0.02540  0.96300  0.75000  1.0000
  O   O15       1.0  0.80200  0.19800  0.94700  1.0000
  O   O16       1.0  0.66300  0.66500  0.99900  1.0000
  Re  Re1       1.0  0.82400  0.18200  0.25000  1.0000
  Re  Re2       1.0  0.17600  0.81800  0.75000  1.0000
