data_image0
_chemical_formula_structural       Cu2Na4O14P4
_chemical_formula_sum              "Cu2 Na4 O14 P4"
_cell_length_a       5.69053
_cell_length_b       7.79242
_cell_length_c       7.93878
_cell_angle_alpha    112.714
_cell_angle_beta     90
_cell_angle_gamma    111.416

_space_group_name_H-M_alt    "P 1"
_space_group_IT_number       1

loop_
  _space_group_symop_operation_xyz
  'x, y, z'

loop_
  _atom_site_type_symbol
  _atom_site_label
  _atom_site_symmetry_multiplicity
  _atom_site_fract_x
  _atom_site_fract_y
  _atom_site_fract_z
  _atom_site_occupancy
  Cu  Cu1       1.0  0.00000  0.00000  0.00000  1.0000
  Cu  Cu2       1.0  0.00000  0.00000  0.50000  1.0000
  Na  Na1       1.0  0.63500  0.54100  0.20200  1.0000
  Na  Na2       1.0  0.09330  0.45900  0.29800  1.0000
  Na  Na3       1.0  0.90700  0.54100  0.70200  1.0000
  Na  Na4       1.0  0.36500  0.45900  0.79800  1.0000
  O   O1        1.0  0.88300  0.20400  0.01190  1.0000
  O   O2        1.0  0.33100  0.61700  0.09960  1.0000
  O   O3        1.0  0.28500  0.22100  0.19700  1.0000
  O   O4        1.0  0.49300  0.00000  0.25000  1.0000
  O   O5        1.0  0.06400  0.77900  0.30300  1.0000
  O   O6        1.0  0.71300  0.38300  0.40000  1.0000
  O   O7        1.0  0.67800  0.79600  0.48800  1.0000
  O   O8        1.0  0.32200  0.20400  0.51200  1.0000
  O   O9        1.0  0.28700  0.61700  0.60000  1.0000
  O   O10       1.0  0.93600  0.22100  0.69700  1.0000
  O   O11       1.0  0.50700  0.00000  0.75000  1.0000
  O   O12       1.0  0.71500  0.77900  0.80300  1.0000
  O   O13       1.0  0.66900  0.38300  0.90000  1.0000
  O   O14       1.0  0.11700  0.79600  0.98800  1.0000
  P   P1        1.0  0.24200  0.78900  0.15600  1.0000
  P   P2        1.0  0.45300  0.21100  0.34400  1.0000
  P   P3        1.0  0.54700  0.78900  0.65600  1.0000
  P   P4        1.0  0.75800  0.21100  0.84400  1.0000
