data_image0
_chemical_formula_structural       Na2O16Pr2Se4
_chemical_formula_sum              "Na2 O16 Pr2 Se4"
_cell_length_a       6.59314
_cell_length_b       7.09299
_cell_length_c       7.29548
_cell_angle_alpha    98.8819
_cell_angle_beta     97.3141
_cell_angle_gamma    89.4289

_space_group_name_H-M_alt    "P 1"
_space_group_IT_number       1

loop_
  _space_group_symop_operation_xyz
  'x, y, z'

loop_
  _atom_site_type_symbol
  _atom_site_label
  _atom_site_symmetry_multiplicity
  _atom_site_fract_x
  _atom_site_fract_y
  _atom_site_fract_z
  _atom_site_occupancy
  Na  Na1       1.0  0.07020  0.68800  0.27900  1.0000
  Na  Na2       1.0  0.93000  0.31200  0.72100  1.0000
  O   O1        1.0  0.67400  0.11400  0.04540  1.0000
  O   O2        1.0  0.71900  0.71100  0.11800  1.0000
  O   O3        1.0  0.00693  0.35700  0.15400  1.0000
  O   O4        1.0  0.40400  0.53500  0.23900  1.0000
  O   O5        1.0  0.03510  0.01390  0.24100  1.0000
  O   O6        1.0  0.43700  0.90900  0.32500  1.0000
  O   O7        1.0  0.74200  0.26300  0.39800  1.0000
  O   O8        1.0  0.73400  0.69700  0.48300  1.0000
  O   O9        1.0  0.26600  0.30300  0.51700  1.0000
  O   O10       1.0  0.25800  0.73700  0.60200  1.0000
  O   O11       1.0  0.56300  0.09100  0.67500  1.0000
  O   O12       1.0  0.96500  0.98600  0.75900  1.0000
  O   O13       1.0  0.59600  0.46500  0.76100  1.0000
  O   O14       1.0  0.99300  0.64300  0.84600  1.0000
  O   O15       1.0  0.28100  0.28900  0.88200  1.0000
  O   O16       1.0  0.32600  0.88600  0.95500  1.0000
  Pr  Pr1       1.0  0.35600  0.19400  0.19800  1.0000
  Pr  Pr2       1.0  0.64400  0.80600  0.80200  1.0000
  Se  Se1       1.0  0.86600  0.18800  0.21700  1.0000
  Se  Se2       1.0  0.57400  0.71300  0.29000  1.0000
  Se  Se3       1.0  0.42600  0.28700  0.71000  1.0000
  Se  Se4       1.0  0.13400  0.81200  0.78300  1.0000
