data_image0
_chemical_formula_structural       Na4O14Si6
_chemical_formula_sum              "Na4 O14 Si6"
_cell_length_a       4.83147
_cell_length_b       5.07486
_cell_length_c       11.4535
_cell_angle_alpha    101.014
_cell_angle_beta     90
_cell_angle_gamma    118.426

_space_group_name_H-M_alt    "P 1"
_space_group_IT_number       1

loop_
  _space_group_symop_operation_xyz
  'x, y, z'

loop_
  _atom_site_type_symbol
  _atom_site_label
  _atom_site_symmetry_multiplicity
  _atom_site_fract_x
  _atom_site_fract_y
  _atom_site_fract_z
  _atom_site_occupancy
  Na  Na1       1.0  0.44600  0.29700  0.18400  1.0000
  Na  Na2       1.0  0.14800  0.70300  0.31600  1.0000
  Na  Na3       1.0  0.85200  0.29700  0.68400  1.0000
  Na  Na4       1.0  0.55400  0.70300  0.81600  1.0000
  O   O1        1.0  0.41500  0.73000  0.03150  1.0000
  O   O2        1.0  0.00014  0.25000  0.09020  1.0000
  O   O3        1.0  0.92900  0.72200  0.13100  1.0000
  O   O4        1.0  0.63900  0.00000  0.25000  1.0000
  O   O5        1.0  0.20700  0.27800  0.36900  1.0000
  O   O6        1.0  0.75000  0.75000  0.41000  1.0000
  O   O7        1.0  0.68500  0.27000  0.46800  1.0000
  O   O8        1.0  0.31500  0.73000  0.53200  1.0000
  O   O9        1.0  0.25000  0.25000  0.59000  1.0000
  O   O10       1.0  0.79300  0.72200  0.63100  1.0000
  O   O11       1.0  0.36100  0.00000  0.75000  1.0000
  O   O12       1.0  0.07110  0.27800  0.86900  1.0000
  O   O13       1.0  0.00000  0.75000  0.91000  1.0000
  O   O14       1.0  0.58500  0.27000  0.96800  1.0000
  Si  Si1       1.0  0.00000  0.50000  0.00000  1.0000
  Si  Si2       1.0  0.74400  0.91500  0.11500  1.0000
  Si  Si3       1.0  0.82900  0.08470  0.38500  1.0000
  Si  Si4       1.0  0.50000  0.50000  0.50000  1.0000
  Si  Si5       1.0  0.17100  0.91500  0.61500  1.0000
  Si  Si6       1.0  0.25600  0.08470  0.88500  1.0000
