data_image0
_chemical_formula_structural       K4Na8Ni4O8
_chemical_formula_sum              "K4 Na8 Ni4 O8"
_cell_length_a       6.07398
_cell_length_b       6.07398
_cell_length_c       12.2816
_cell_angle_alpha    90
_cell_angle_beta     90
_cell_angle_gamma    118.894

_space_group_name_H-M_alt    "P 1"
_space_group_IT_number       1

loop_
  _space_group_symop_operation_xyz
  'x, y, z'

loop_
  _atom_site_type_symbol
  _atom_site_label
  _atom_site_symmetry_multiplicity
  _atom_site_fract_x
  _atom_site_fract_y
  _atom_site_fract_z
  _atom_site_occupancy
  K   K1        1.0  0.31100  0.68900  0.13000  1.0000
  K   K2        1.0  0.81100  0.18900  0.37000  1.0000
  K   K3        1.0  0.18900  0.81100  0.63000  1.0000
  K   K4        1.0  0.68900  0.31100  0.87000  1.0000
  Na  Na1       1.0  0.22900  0.22900  0.00000  1.0000
  Na  Na2       1.0  0.77100  0.77100  0.00000  1.0000
  Na  Na3       1.0  0.27800  0.22200  0.25000  1.0000
  Na  Na4       1.0  0.77800  0.72200  0.25000  1.0000
  Na  Na5       1.0  0.27100  0.27100  0.50000  1.0000
  Na  Na6       1.0  0.72900  0.72900  0.50000  1.0000
  Na  Na7       1.0  0.22200  0.27800  0.75000  1.0000
  Na  Na8       1.0  0.72200  0.77800  0.75000  1.0000
  Ni  Ni1       1.0  0.74900  0.25100  0.12300  1.0000
  Ni  Ni2       1.0  0.24900  0.75100  0.37700  1.0000
  Ni  Ni3       1.0  0.75100  0.24900  0.62300  1.0000
  Ni  Ni4       1.0  0.25100  0.74900  0.87700  1.0000
  O   O1        1.0  0.58000  0.42000  0.11400  1.0000
  O   O2        1.0  0.91800  0.08230  0.13700  1.0000
  O   O3        1.0  0.41800  0.58200  0.36300  1.0000
  O   O4        1.0  0.07970  0.92000  0.38600  1.0000
  O   O5        1.0  0.92000  0.07970  0.61400  1.0000
  O   O6        1.0  0.58200  0.41800  0.63700  1.0000
  O   O7        1.0  0.08230  0.91800  0.86300  1.0000
  O   O8        1.0  0.42000  0.58000  0.88600  1.0000
