data_image0
_chemical_formula_structural       Be4Ho4O14Si2
_chemical_formula_sum              "Be4 Ho4 O14 Si2"
_cell_length_a       7.25383
_cell_length_b       7.25383
_cell_length_c       4.73332
_cell_angle_alpha    90
_cell_angle_beta     90
_cell_angle_gamma    90

_space_group_name_H-M_alt    "P 1"
_space_group_IT_number       1

loop_
  _space_group_symop_operation_xyz
  'x, y, z'

loop_
  _atom_site_type_symbol
  _atom_site_label
  _atom_site_symmetry_multiplicity
  _atom_site_fract_x
  _atom_site_fract_y
  _atom_site_fract_z
  _atom_site_occupancy
  Be  Be1       1.0  0.63800  0.13800  0.04060  1.0000
  Be  Be2       1.0  0.36200  0.86200  0.04060  1.0000
  Be  Be3       1.0  0.13800  0.36200  0.95900  1.0000
  Be  Be4       1.0  0.86200  0.63800  0.95900  1.0000
  Ho  Ho1       1.0  0.84200  0.34200  0.49300  1.0000
  Ho  Ho2       1.0  0.15800  0.65800  0.49300  1.0000
  Ho  Ho3       1.0  0.34200  0.15800  0.50700  1.0000
  Ho  Ho4       1.0  0.65800  0.84200  0.50700  1.0000
  O   O1        1.0  0.50000  0.00000  0.18100  1.0000
  O   O2        1.0  0.83700  0.08250  0.20300  1.0000
  O   O3        1.0  0.58200  0.33700  0.20300  1.0000
  O   O4        1.0  0.41800  0.66300  0.20300  1.0000
  O   O5        1.0  0.16300  0.91800  0.20300  1.0000
  O   O6        1.0  0.14200  0.35800  0.29300  1.0000
  O   O7        1.0  0.85800  0.64200  0.29300  1.0000
  O   O8        1.0  0.64200  0.14200  0.70700  1.0000
  O   O9        1.0  0.35800  0.85800  0.70700  1.0000
  O   O10       1.0  0.08250  0.16300  0.79700  1.0000
  O   O11       1.0  0.33700  0.41800  0.79700  1.0000
  O   O12       1.0  0.66300  0.58200  0.79700  1.0000
  O   O13       1.0  0.91800  0.83700  0.79700  1.0000
  O   O14       1.0  0.00000  0.50000  0.81900  1.0000
  Si  Si1       1.0  0.00000  0.00000  0.00000  1.0000
  Si  Si2       1.0  0.50000  0.50000  0.00000  1.0000
