data_image0
_chemical_formula_structural       Na4O14P4Pd2
_chemical_formula_sum              "Na4 O14 P4 Pd2"
_cell_length_a       5.84694
_cell_length_b       7.81581
_cell_length_c       7.80352
_cell_angle_alpha    111.51
_cell_angle_beta     90
_cell_angle_gamma    111.965

_space_group_name_H-M_alt    "P 1"
_space_group_IT_number       1

loop_
  _space_group_symop_operation_xyz
  'x, y, z'

loop_
  _atom_site_type_symbol
  _atom_site_label
  _atom_site_symmetry_multiplicity
  _atom_site_fract_x
  _atom_site_fract_y
  _atom_site_fract_z
  _atom_site_occupancy
  Na  Na1       1.0  0.64300  0.54500  0.19800  1.0000
  Na  Na2       1.0  0.09770  0.45500  0.30200  1.0000
  Na  Na3       1.0  0.90200  0.54500  0.69800  1.0000
  Na  Na4       1.0  0.35700  0.45500  0.80200  1.0000
  O   O1        1.0  0.87500  0.21300  0.01680  1.0000
  O   O2        1.0  0.33400  0.61900  0.10600  1.0000
  O   O3        1.0  0.29900  0.22800  0.19300  1.0000
  O   O4        1.0  0.48500  0.00000  0.25000  1.0000
  O   O5        1.0  0.07100  0.77200  0.30700  1.0000
  O   O6        1.0  0.71500  0.38100  0.39400  1.0000
  O   O7        1.0  0.66200  0.78700  0.48300  1.0000
  O   O8        1.0  0.33800  0.21300  0.51700  1.0000
  O   O9        1.0  0.28500  0.61900  0.60600  1.0000
  O   O10       1.0  0.92900  0.22800  0.69300  1.0000
  O   O11       1.0  0.51500  0.00000  0.75000  1.0000
  O   O12       1.0  0.70100  0.77200  0.80700  1.0000
  O   O13       1.0  0.66600  0.38100  0.89400  1.0000
  O   O14       1.0  0.12500  0.78700  0.98300  1.0000
  P   P1        1.0  0.24700  0.78700  0.15800  1.0000
  P   P2        1.0  0.46000  0.21300  0.34200  1.0000
  P   P3        1.0  0.54000  0.78700  0.65800  1.0000
  P   P4        1.0  0.75300  0.21300  0.84200  1.0000
  Pd  Pd1       1.0  0.00000  0.00000  0.00000  1.0000
  Pd  Pd2       1.0  0.00000  0.00000  0.50000  1.0000
