data_image0
_chemical_formula_structural       Ba8N12Nb4
_chemical_formula_sum              "Ba8 N12 Nb4"
_cell_length_a       6.17556
_cell_length_b       6.67712
_cell_length_c       13.2702
_cell_angle_alpha    90.751
_cell_angle_beta     91.6243
_cell_angle_gamma    62.4552

_space_group_name_H-M_alt    "P 1"
_space_group_IT_number       1

loop_
  _space_group_symop_operation_xyz
  'x, y, z'

loop_
  _atom_site_type_symbol
  _atom_site_label
  _atom_site_symmetry_multiplicity
  _atom_site_fract_x
  _atom_site_fract_y
  _atom_site_fract_z
  _atom_site_occupancy
  Ba  Ba1       1.0  0.87200  0.77200  0.07660  1.0000
  Ba  Ba2       1.0  0.55600  0.39900  0.14400  1.0000
  Ba  Ba3       1.0  0.04470  0.39900  0.35600  1.0000
  Ba  Ba4       1.0  0.35600  0.77200  0.42300  1.0000
  Ba  Ba5       1.0  0.64400  0.22800  0.57700  1.0000
  Ba  Ba6       1.0  0.95500  0.60100  0.64400  1.0000
  Ba  Ba7       1.0  0.44400  0.60100  0.85600  1.0000
  Ba  Ba8       1.0  0.12800  0.22800  0.92300  1.0000
  N   N1        1.0  0.31300  0.82100  0.04670  1.0000
  N   N2        1.0  0.15700  0.31500  0.13000  1.0000
  N   N3        1.0  0.00940  0.98100  0.25000  1.0000
  N   N4        1.0  0.57200  0.85600  0.25000  1.0000
  N   N5        1.0  0.52800  0.31500  0.37000  1.0000
  N   N6        1.0  0.86600  0.82100  0.45300  1.0000
  N   N7        1.0  0.13400  0.17900  0.54700  1.0000
  N   N8        1.0  0.47200  0.68500  0.63000  1.0000
  N   N9        1.0  0.42800  0.14400  0.75000  1.0000
  N   N10       1.0  0.99100  0.01880  0.75000  1.0000
  N   N11       1.0  0.84300  0.68500  0.87000  1.0000
  N   N12       1.0  0.68700  0.17900  0.95300  1.0000
  Nb  Nb1       1.0  0.26100  0.00177  0.16600  1.0000
  Nb  Nb2       1.0  0.73700  0.00177  0.33400  1.0000
  Nb  Nb3       1.0  0.26300  0.99800  0.66600  1.0000
  Nb  Nb4       1.0  0.73900  0.99800  0.83400  1.0000
