data_image0
_chemical_formula_structural       Ba4Cl2F14Ni4
_chemical_formula_sum              "Ba4 Cl2 F14 Ni4"
_cell_length_a       7.50227
_cell_length_b       5.73027
_cell_length_c       8.68393
_cell_angle_alpha    90
_cell_angle_beta     106.694
_cell_angle_gamma    90

_space_group_name_H-M_alt    "P 1"
_space_group_IT_number       1

loop_
  _space_group_symop_operation_xyz
  'x, y, z'

loop_
  _atom_site_type_symbol
  _atom_site_label
  _atom_site_symmetry_multiplicity
  _atom_site_fract_x
  _atom_site_fract_y
  _atom_site_fract_z
  _atom_site_occupancy
  Ba  Ba1       1.0  0.28900  0.25000  0.07100  1.0000
  Ba  Ba2       1.0  0.67500  0.75000  0.41200  1.0000
  Ba  Ba3       1.0  0.32500  0.25000  0.58800  1.0000
  Ba  Ba4       1.0  0.71100  0.75000  0.92900  1.0000
  Cl  Cl1       1.0  0.88400  0.25000  0.46900  1.0000
  Cl  Cl2       1.0  0.11600  0.75000  0.53100  1.0000
  F   F1        1.0  0.25800  0.75000  0.06760  1.0000
  F   F2        1.0  0.62300  0.00804  0.15900  1.0000
  F   F3        1.0  0.62300  0.49200  0.15900  1.0000
  F   F4        1.0  0.99500  0.50100  0.16900  1.0000
  F   F5        1.0  0.99500  0.99900  0.16900  1.0000
  F   F6        1.0  0.36500  0.00000  0.34700  1.0000
  F   F7        1.0  0.36500  0.50000  0.34700  1.0000
  F   F8        1.0  0.63500  0.00000  0.65300  1.0000
  F   F9        1.0  0.63500  0.50000  0.65300  1.0000
  F   F10       1.0  0.00490  0.00136  0.83100  1.0000
  F   F11       1.0  0.00490  0.49900  0.83100  1.0000
  F   F12       1.0  0.37700  0.50800  0.84100  1.0000
  F   F13       1.0  0.37700  0.99200  0.84100  1.0000
  F   F14       1.0  0.74200  0.25000  0.93200  1.0000
  Ni  Ni1       1.0  0.81400  0.25000  0.17800  1.0000
  Ni  Ni2       1.0  0.17600  0.75000  0.27200  1.0000
  Ni  Ni3       1.0  0.82400  0.25000  0.72800  1.0000
  Ni  Ni4       1.0  0.18600  0.75000  0.82200  1.0000
