data_image0
_chemical_formula_structural       Cu2La2O16W4
_chemical_formula_sum              "Cu2 La2 O16 W4"
_cell_length_a       7.55746
_cell_length_b       8.02269
_cell_length_c       7.25225
_cell_angle_alpha    114.999
_cell_angle_beta     116.298
_cell_angle_gamma    56.5551

_space_group_name_H-M_alt    "P 1"
_space_group_IT_number       1

loop_
  _space_group_symop_operation_xyz
  'x, y, z'

loop_
  _atom_site_type_symbol
  _atom_site_label
  _atom_site_symmetry_multiplicity
  _atom_site_fract_x
  _atom_site_fract_y
  _atom_site_fract_z
  _atom_site_occupancy
  Cu  Cu1       1.0  0.30000  0.69600  0.24100  1.0000
  Cu  Cu2       1.0  0.70000  0.30400  0.75900  1.0000
  La  La1       1.0  0.16600  0.28000  0.17700  1.0000
  La  La2       1.0  0.83400  0.72000  0.82300  1.0000
  O   O1        1.0  0.77000  0.31000  0.04440  1.0000
  O   O2        1.0  0.80700  0.99300  0.14500  1.0000
  O   O3        1.0  0.91200  0.64000  0.17900  1.0000
  O   O4        1.0  0.43700  0.36500  0.19100  1.0000
  O   O5        1.0  0.52100  0.97700  0.28800  1.0000
  O   O6        1.0  0.08000  0.17500  0.38800  1.0000
  O   O7        1.0  0.71900  0.54200  0.45400  1.0000
  O   O8        1.0  0.18800  0.82600  0.48300  1.0000
  O   O9        1.0  0.81200  0.17400  0.51700  1.0000
  O   O10       1.0  0.28100  0.45800  0.54600  1.0000
  O   O11       1.0  0.92000  0.82500  0.61200  1.0000
  O   O12       1.0  0.47900  0.02280  0.71200  1.0000
  O   O13       1.0  0.56300  0.63500  0.80900  1.0000
  O   O14       1.0  0.08760  0.36000  0.82100  1.0000
  O   O15       1.0  0.19300  0.00654  0.85500  1.0000
  O   O16       1.0  0.23000  0.69000  0.95600  1.0000
  W   W1        1.0  0.72500  0.30300  0.26700  1.0000
  W   W2        1.0  0.80700  0.89600  0.35300  1.0000
  W   W3        1.0  0.19300  0.10400  0.64700  1.0000
  W   W4        1.0  0.27500  0.69700  0.73300  1.0000
