data_image0
_chemical_formula_structural       Ba4Cu6S12V2
_chemical_formula_sum              "Ba4 Cu6 S12 V2"
_cell_length_a       8.80115
_cell_length_b       8.80115
_cell_length_c       8.99096
_cell_angle_alpha    103.537
_cell_angle_beta     105.8
_cell_angle_gamma    118.864

_space_group_name_H-M_alt    "P 1"
_space_group_IT_number       1

loop_
  _space_group_symop_operation_xyz
  'x, y, z'

loop_
  _atom_site_type_symbol
  _atom_site_label
  _atom_site_symmetry_multiplicity
  _atom_site_fract_x
  _atom_site_fract_y
  _atom_site_fract_z
  _atom_site_occupancy
  Ba  Ba1       1.0  0.91000  0.21500  0.05550  1.0000
  Ba  Ba2       1.0  0.65900  0.85500  0.44400  1.0000
  Ba  Ba3       1.0  0.34100  0.14500  0.55600  1.0000
  Ba  Ba4       1.0  0.08990  0.78500  0.94400  1.0000
  Cu  Cu1       1.0  0.66200  0.67700  0.00786  1.0000
  Cu  Cu2       1.0  0.91600  0.66600  0.25000  1.0000
  Cu  Cu3       1.0  0.16900  0.65400  0.49200  1.0000
  Cu  Cu4       1.0  0.83100  0.34600  0.50800  1.0000
  Cu  Cu5       1.0  0.08410  0.33400  0.75000  1.0000
  Cu  Cu6       1.0  0.33800  0.32300  0.99200  1.0000
  S   S1        1.0  0.63400  0.38400  0.01710  1.0000
  S   S2        1.0  0.93400  0.93600  0.23800  1.0000
  S   S3        1.0  0.59100  0.10400  0.24300  1.0000
  S   S4        1.0  0.36100  0.34800  0.25700  1.0000
  S   S5        1.0  0.19800  0.69500  0.26200  1.0000
  S   S6        1.0  0.86700  0.61700  0.48300  1.0000
  S   S7        1.0  0.13300  0.38300  0.51700  1.0000
  S   S8        1.0  0.80200  0.30500  0.73800  1.0000
  S   S9        1.0  0.63900  0.65200  0.74300  1.0000
  S   S10       1.0  0.40900  0.89600  0.75700  1.0000
  S   S11       1.0  0.06630  0.06360  0.76200  1.0000
  S   S12       1.0  0.36600  0.61600  0.98300  1.0000
  V   V1        1.0  0.61100  0.36100  0.25000  1.0000
  V   V2        1.0  0.38900  0.63900  0.75000  1.0000
