data_image0
_chemical_formula_structural       Ba2O16V6
_chemical_formula_sum              "Ba2 O16 V6"
_cell_length_a       7.30338
_cell_length_b       5.53406
_cell_length_c       7.74604
_cell_angle_alpha    90
_cell_angle_beta     106.552
_cell_angle_gamma    90

_space_group_name_H-M_alt    "P 1"
_space_group_IT_number       1

loop_
  _space_group_symop_operation_xyz
  'x, y, z'

loop_
  _atom_site_type_symbol
  _atom_site_label
  _atom_site_symmetry_multiplicity
  _atom_site_fract_x
  _atom_site_fract_y
  _atom_site_fract_z
  _atom_site_occupancy
  Ba  Ba1       1.0  0.20100  0.99400  0.92100  1.0000
  Ba  Ba2       1.0  0.79900  0.49400  0.07870  1.0000
  O   O1        1.0  0.20800  0.00826  0.58600  1.0000
  O   O2        1.0  0.79200  0.50800  0.41400  1.0000
  O   O3        1.0  0.84700  0.00707  0.36400  1.0000
  O   O4        1.0  0.15300  0.50700  0.63600  1.0000
  O   O5        1.0  0.19000  0.49600  0.99100  1.0000
  O   O6        1.0  0.81000  0.99600  0.00875  1.0000
  O   O7        1.0  0.14500  0.74300  0.26400  1.0000
  O   O8        1.0  0.85500  0.24300  0.73600  1.0000
  O   O9        1.0  0.14300  0.24700  0.25800  1.0000
  O   O10       1.0  0.85700  0.74700  0.74200  1.0000
  O   O11       1.0  0.49500  0.75000  0.18400  1.0000
  O   O12       1.0  0.50500  0.25000  0.81600  1.0000
  O   O13       1.0  0.45200  0.49300  0.48500  1.0000
  O   O14       1.0  0.54800  0.99300  0.51500  1.0000
  O   O15       1.0  0.49500  0.24100  0.18700  1.0000
  O   O16       1.0  0.50500  0.74100  0.81300  1.0000
  V   V1        1.0  0.09330  0.99800  0.37200  1.0000
  V   V2        1.0  0.90700  0.49800  0.62800  1.0000
  V   V3        1.0  0.31600  0.49600  0.21300  1.0000
  V   V4        1.0  0.68400  0.99600  0.78700  1.0000
  V   V5        1.0  0.59800  0.99500  0.31800  1.0000
  V   V6        1.0  0.40200  0.49500  0.68200  1.0000
