data_image0
_chemical_formula_structural       Na2O16P2W4
_chemical_formula_sum              "Na2 O16 P2 W4"
_cell_length_a       6.60285
_cell_length_b       5.34265
_cell_length_c       9.00153
_cell_angle_alpha    90
_cell_angle_beta     98.6163
_cell_angle_gamma    90

_space_group_name_H-M_alt    "P 1"
_space_group_IT_number       1

loop_
  _space_group_symop_operation_xyz
  'x, y, z'

loop_
  _atom_site_type_symbol
  _atom_site_label
  _atom_site_symmetry_multiplicity
  _atom_site_fract_x
  _atom_site_fract_y
  _atom_site_fract_z
  _atom_site_occupancy
  Na  Na1       1.0  0.28400  0.75000  0.44400  1.0000
  Na  Na2       1.0  0.71600  0.25000  0.55600  1.0000
  O   O1        1.0  0.50000  0.00000  0.00000  1.0000
  O   O2        1.0  0.50000  0.50000  0.00000  1.0000
  O   O3        1.0  0.85400  0.25000  0.08390  1.0000
  O   O4        1.0  0.20200  0.50300  0.18500  1.0000
  O   O5        1.0  0.20200  0.99700  0.18500  1.0000
  O   O6        1.0  0.55300  0.75000  0.28800  1.0000
  O   O7        1.0  0.88700  0.51000  0.35700  1.0000
  O   O8        1.0  0.88700  0.99000  0.35700  1.0000
  O   O9        1.0  0.27200  0.25000  0.45300  1.0000
  O   O10       1.0  0.72800  0.75000  0.54700  1.0000
  O   O11       1.0  0.11300  0.01050  0.64300  1.0000
  O   O12       1.0  0.11300  0.49000  0.64300  1.0000
  O   O13       1.0  0.44700  0.25000  0.71200  1.0000
  O   O14       1.0  0.79800  0.00296  0.81500  1.0000
  O   O15       1.0  0.79800  0.49700  0.81500  1.0000
  O   O16       1.0  0.14600  0.75000  0.91600  1.0000
  P   P1        1.0  0.76600  0.75000  0.38100  1.0000
  P   P2        1.0  0.23400  0.25000  0.61900  1.0000
  W   W1        1.0  0.35400  0.75000  0.08430  1.0000
  W   W2        1.0  0.05140  0.25000  0.24900  1.0000
  W   W3        1.0  0.94900  0.75000  0.75100  1.0000
  W   W4        1.0  0.64600  0.25000  0.91600  1.0000
