data_image0
_chemical_formula_structural       Ca2O16Te6
_chemical_formula_sum              "Ca2 O16 Te6"
_cell_length_a       5.62352
_cell_length_b       6.80862
_cell_length_c       9.65173
_cell_angle_alpha    92.9393
_cell_angle_beta     106.937
_cell_angle_gamma    114.392

_space_group_name_H-M_alt    "P 1"
_space_group_IT_number       1

loop_
  _space_group_symop_operation_xyz
  'x, y, z'

loop_
  _atom_site_type_symbol
  _atom_site_label
  _atom_site_symmetry_multiplicity
  _atom_site_fract_x
  _atom_site_fract_y
  _atom_site_fract_z
  _atom_site_occupancy
  Ca  Ca1       1.0  0.81000  0.25000  0.25000  1.0000
  Ca  Ca2       1.0  0.19000  0.75000  0.75000  1.0000
  O   O1        1.0  0.67200  0.45800  0.09090  1.0000
  O   O2        1.0  0.09730  0.30100  0.09320  1.0000
  O   O3        1.0  0.77000  0.91100  0.12200  1.0000
  O   O4        1.0  0.30200  0.99400  0.16000  1.0000
  O   O5        1.0  0.64800  0.50600  0.34000  1.0000
  O   O6        1.0  0.23800  0.58900  0.37800  1.0000
  O   O7        1.0  0.20400  0.19900  0.40700  1.0000
  O   O8        1.0  0.62300  0.04160  0.40900  1.0000
  O   O9        1.0  0.37700  0.95800  0.59100  1.0000
  O   O10       1.0  0.79600  0.80100  0.59300  1.0000
  O   O11       1.0  0.76200  0.41100  0.62200  1.0000
  O   O12       1.0  0.35200  0.49400  0.66000  1.0000
  O   O13       1.0  0.69800  0.00587  0.84000  1.0000
  O   O14       1.0  0.23000  0.08950  0.87800  1.0000
  O   O15       1.0  0.90300  0.69900  0.90700  1.0000
  O   O16       1.0  0.32800  0.54200  0.90900  1.0000
  Te  Te1       1.0  0.00000  0.00000  0.00000  1.0000
  Te  Te2       1.0  0.44700  0.58600  0.14000  1.0000
  Te  Te3       1.0  0.22100  0.91400  0.36000  1.0000
  Te  Te4       1.0  0.50000  0.50000  0.50000  1.0000
  Te  Te5       1.0  0.77900  0.08560  0.64000  1.0000
  Te  Te6       1.0  0.55300  0.41400  0.86000  1.0000
