data_image0
_chemical_formula_structural       Mo12N4Pd8
_chemical_formula_sum              "Mo12 N4 Pd8"
_cell_length_a       6.86547
_cell_length_b       6.86547
_cell_length_c       6.86547
_cell_angle_alpha    90
_cell_angle_beta     90
_cell_angle_gamma    90

_space_group_name_H-M_alt    "P 1"
_space_group_IT_number       1

loop_
  _space_group_symop_operation_xyz
  'x, y, z'

loop_
  _atom_site_type_symbol
  _atom_site_label
  _atom_site_symmetry_multiplicity
  _atom_site_fract_x
  _atom_site_fract_y
  _atom_site_fract_z
  _atom_site_occupancy
  Mo  Mo1       1.0  0.12500  0.79700  0.04740  1.0000
  Mo  Mo2       1.0  0.79700  0.04740  0.12500  1.0000
  Mo  Mo3       1.0  0.54700  0.37500  0.20300  1.0000
  Mo  Mo4       1.0  0.45300  0.87500  0.29700  1.0000
  Mo  Mo5       1.0  0.20300  0.54700  0.37500  1.0000
  Mo  Mo6       1.0  0.87500  0.29700  0.45300  1.0000
  Mo  Mo7       1.0  0.37500  0.20300  0.54700  1.0000
  Mo  Mo8       1.0  0.70300  0.95300  0.62500  1.0000
  Mo  Mo9       1.0  0.95300  0.62500  0.70300  1.0000
  Mo  Mo10      1.0  0.04740  0.12500  0.79700  1.0000
  Mo  Mo11      1.0  0.29700  0.45300  0.87500  1.0000
  Mo  Mo12      1.0  0.62500  0.70300  0.95300  1.0000
  N   N1        1.0  0.37500  0.62500  0.12500  1.0000
  N   N2        1.0  0.62500  0.12500  0.37500  1.0000
  N   N3        1.0  0.12500  0.37500  0.62500  1.0000
  N   N4        1.0  0.87500  0.87500  0.87500  1.0000
  Pd  Pd1       1.0  0.93900  0.43900  0.06080  1.0000
  Pd  Pd2       1.0  0.18900  0.18900  0.18900  1.0000
  Pd  Pd3       1.0  0.81100  0.68900  0.31100  1.0000
  Pd  Pd4       1.0  0.06080  0.93900  0.43900  1.0000
  Pd  Pd5       1.0  0.56100  0.56100  0.56100  1.0000
  Pd  Pd6       1.0  0.31100  0.81100  0.68900  1.0000
  Pd  Pd7       1.0  0.68900  0.31100  0.81100  1.0000
  Pd  Pd8       1.0  0.43900  0.06080  0.93900  1.0000
