data_image0
_chemical_formula_structural       Na8O12Te4
_chemical_formula_sum              "Na8 O12 Te4"
_cell_length_a       6.80127
_cell_length_b       10.1795
_cell_length_c       4.9029
_cell_angle_alpha    90
_cell_angle_beta     91.7534
_cell_angle_gamma    90

_space_group_name_H-M_alt    "P 1"
_space_group_IT_number       1

loop_
  _space_group_symop_operation_xyz
  'x, y, z'

loop_
  _atom_site_type_symbol
  _atom_site_label
  _atom_site_symmetry_multiplicity
  _atom_site_fract_x
  _atom_site_fract_y
  _atom_site_fract_z
  _atom_site_occupancy
  Na  Na1       1.0  0.14000  0.41300  0.24600  1.0000
  Na  Na2       1.0  0.64000  0.08670  0.24600  1.0000
  Na  Na3       1.0  0.09530  0.74500  0.25700  1.0000
  Na  Na4       1.0  0.59500  0.75500  0.25700  1.0000
  Na  Na5       1.0  0.90500  0.25500  0.74300  1.0000
  Na  Na6       1.0  0.40500  0.24500  0.74300  1.0000
  Na  Na7       1.0  0.36000  0.91300  0.75400  1.0000
  Na  Na8       1.0  0.86000  0.58700  0.75400  1.0000
  O   O1        1.0  0.35400  0.21900  0.23000  1.0000
  O   O2        1.0  0.85400  0.28100  0.23000  1.0000
  O   O3        1.0  0.33600  0.93600  0.24700  1.0000
  O   O4        1.0  0.83600  0.56400  0.24700  1.0000
  O   O5        1.0  0.85500  0.90600  0.35300  1.0000
  O   O6        1.0  0.35500  0.59400  0.35300  1.0000
  O   O7        1.0  0.14500  0.09360  0.64700  1.0000
  O   O8        1.0  0.64500  0.40600  0.64700  1.0000
  O   O9        1.0  0.16400  0.43600  0.75300  1.0000
  O   O10       1.0  0.66400  0.06420  0.75300  1.0000
  O   O11       1.0  0.64600  0.78100  0.77000  1.0000
  O   O12       1.0  0.14600  0.71900  0.77000  1.0000
  Te  Te1       1.0  0.16200  0.08240  0.25900  1.0000
  Te  Te2       1.0  0.66200  0.41800  0.25900  1.0000
  Te  Te3       1.0  0.33800  0.58200  0.74100  1.0000
  Te  Te4       1.0  0.83800  0.91800  0.74100  1.0000
