data_image0
_chemical_formula_structural       O18Re4V2
_chemical_formula_sum              "O18 Re4 V2"
_cell_length_a       7.80242
_cell_length_b       5.70934
_cell_length_c       8.66958
_cell_angle_alpha    90
_cell_angle_beta     90
_cell_angle_gamma    111.461

_space_group_name_H-M_alt    "P 1"
_space_group_IT_number       1

loop_
  _space_group_symop_operation_xyz
  'x, y, z'

loop_
  _atom_site_type_symbol
  _atom_site_label
  _atom_site_symmetry_multiplicity
  _atom_site_fract_x
  _atom_site_fract_y
  _atom_site_fract_z
  _atom_site_occupancy
  O   O1        1.0  0.78600  0.39300  0.04090  1.0000
  O   O2        1.0  0.38000  0.19000  0.06150  1.0000
  O   O3        1.0  0.08990  0.29500  0.17400  1.0000
  O   O4        1.0  0.08990  0.79500  0.17400  1.0000
  O   O5        1.0  0.74400  0.87200  0.25400  1.0000
  O   O6        1.0  0.42900  0.45600  0.32500  1.0000
  O   O7        1.0  0.42900  0.97200  0.32500  1.0000
  O   O8        1.0  0.83500  0.41800  0.36500  1.0000
  O   O9        1.0  0.12600  0.06310  0.44500  1.0000
  O   O10       1.0  0.21400  0.60700  0.54100  1.0000
  O   O11       1.0  0.62000  0.81000  0.56100  1.0000
  O   O12       1.0  0.91000  0.20500  0.67400  1.0000
  O   O13       1.0  0.91000  0.70500  0.67400  1.0000
  O   O14       1.0  0.25600  0.12800  0.75400  1.0000
  O   O15       1.0  0.57100  0.02760  0.82500  1.0000
  O   O16       1.0  0.57100  0.54400  0.82500  1.0000
  O   O17       1.0  0.16500  0.58200  0.86500  1.0000
  O   O18       1.0  0.87400  0.93700  0.94500  1.0000
  Re  Re1       1.0  0.94700  0.47400  0.18900  1.0000
  Re  Re2       1.0  0.55000  0.77500  0.36900  1.0000
  Re  Re3       1.0  0.05250  0.52600  0.68900  1.0000
  Re  Re4       1.0  0.45000  0.22500  0.86900  1.0000
  V   V1        1.0  0.23300  0.11700  0.28200  1.0000
  V   V2        1.0  0.76700  0.88300  0.78200  1.0000
