data_image0
_chemical_formula_structural       Er2Na2O16S4
_chemical_formula_sum              "Er2 Na2 O16 S4"
_cell_length_a       4.60877
_cell_length_b       9.41259
_cell_length_c       6.8093
_cell_angle_alpha    90
_cell_angle_beta     90
_cell_angle_gamma    96.7274

_space_group_name_H-M_alt    "P 1"
_space_group_IT_number       1

loop_
  _space_group_symop_operation_xyz
  'x, y, z'

loop_
  _atom_site_type_symbol
  _atom_site_label
  _atom_site_symmetry_multiplicity
  _atom_site_fract_x
  _atom_site_fract_y
  _atom_site_fract_z
  _atom_site_occupancy
  Er  Er1       1.0  0.35100  0.18000  0.25000  1.0000
  Er  Er2       1.0  0.64900  0.82000  0.75000  1.0000
  Na  Na1       1.0  0.36300  0.65300  0.25000  1.0000
  Na  Na2       1.0  0.63700  0.34700  0.75000  1.0000
  O   O1        1.0  0.73800  0.85200  0.07490  1.0000
  O   O2        1.0  0.67900  0.34000  0.07790  1.0000
  O   O3        1.0  0.80400  0.08010  0.25000  1.0000
  O   O4        1.0  0.14500  0.38300  0.25000  1.0000
  O   O5        1.0  0.82700  0.56700  0.25000  1.0000
  O   O6        1.0  0.18900  0.93300  0.25000  1.0000
  O   O7        1.0  0.67900  0.34000  0.42200  1.0000
  O   O8        1.0  0.73800  0.85200  0.42500  1.0000
  O   O9        1.0  0.26200  0.14800  0.57500  1.0000
  O   O10       1.0  0.32100  0.66000  0.57800  1.0000
  O   O11       1.0  0.81100  0.06730  0.75000  1.0000
  O   O12       1.0  0.17300  0.43300  0.75000  1.0000
  O   O13       1.0  0.85500  0.61700  0.75000  1.0000
  O   O14       1.0  0.19600  0.92000  0.75000  1.0000
  O   O15       1.0  0.32100  0.66000  0.92200  1.0000
  O   O16       1.0  0.26200  0.14800  0.92500  1.0000
  S   S1        1.0  0.83400  0.41300  0.25000  1.0000
  S   S2        1.0  0.86600  0.92600  0.25000  1.0000
  S   S3        1.0  0.13400  0.07370  0.75000  1.0000
  S   S4        1.0  0.16600  0.58700  0.75000  1.0000
