data_image0
_chemical_formula_structural       Cl12Cu4Rb8
_chemical_formula_sum              "Cl12 Cu4 Rb8"
_cell_length_a       12.5908
_cell_length_b       4.24309
_cell_length_c       13.0011
_cell_angle_alpha    90
_cell_angle_beta     90
_cell_angle_gamma    90

_space_group_name_H-M_alt    "P 1"
_space_group_IT_number       1

loop_
  _space_group_symop_operation_xyz
  'x, y, z'

loop_
  _atom_site_type_symbol
  _atom_site_label
  _atom_site_symmetry_multiplicity
  _atom_site_fract_x
  _atom_site_fract_y
  _atom_site_fract_z
  _atom_site_occupancy
  Cl  Cl1       1.0  0.14000  0.25000  0.05200  1.0000
  Cl  Cl2       1.0  0.43400  0.25000  0.14100  1.0000
  Cl  Cl3       1.0  0.72800  0.75000  0.22300  1.0000
  Cl  Cl4       1.0  0.22800  0.75000  0.27700  1.0000
  Cl  Cl5       1.0  0.93400  0.25000  0.35900  1.0000
  Cl  Cl6       1.0  0.64000  0.25000  0.44800  1.0000
  Cl  Cl7       1.0  0.36000  0.75000  0.55200  1.0000
  Cl  Cl8       1.0  0.06560  0.75000  0.64100  1.0000
  Cl  Cl9       1.0  0.77200  0.25000  0.72300  1.0000
  Cl  Cl10      1.0  0.27200  0.25000  0.77700  1.0000
  Cl  Cl11      1.0  0.56600  0.75000  0.85900  1.0000
  Cl  Cl12      1.0  0.86000  0.75000  0.94800  1.0000
  Cu  Cu1       1.0  0.25600  0.25000  0.19300  1.0000
  Cu  Cu2       1.0  0.75600  0.25000  0.30700  1.0000
  Cu  Cu3       1.0  0.24400  0.75000  0.69300  1.0000
  Cu  Cu4       1.0  0.74400  0.75000  0.80700  1.0000
  Rb  Rb1       1.0  0.67200  0.25000  0.02560  1.0000
  Rb  Rb2       1.0  0.98700  0.75000  0.17300  1.0000
  Rb  Rb3       1.0  0.48700  0.75000  0.32700  1.0000
  Rb  Rb4       1.0  0.17200  0.25000  0.47400  1.0000
  Rb  Rb5       1.0  0.82800  0.75000  0.52600  1.0000
  Rb  Rb6       1.0  0.51300  0.25000  0.67300  1.0000
  Rb  Rb7       1.0  0.01300  0.25000  0.82700  1.0000
  Rb  Rb8       1.0  0.32800  0.75000  0.97400  1.0000
