data_image0
_chemical_formula_structural       K2Mo4O16Sb2
_chemical_formula_sum              "K2 Mo4 O16 Sb2"
_cell_length_a       5.02172
_cell_length_b       7.33505
_cell_length_c       10.1592
_cell_angle_alpha    90.193
_cell_angle_beta     100.874
_cell_angle_gamma    108.321

_space_group_name_H-M_alt    "P 1"
_space_group_IT_number       1

loop_
  _space_group_symop_operation_xyz
  'x, y, z'

loop_
  _atom_site_type_symbol
  _atom_site_label
  _atom_site_symmetry_multiplicity
  _atom_site_fract_x
  _atom_site_fract_y
  _atom_site_fract_z
  _atom_site_occupancy
  K   K1        1.0  0.39800  0.03630  0.31400  1.0000
  K   K2        1.0  0.60200  0.96400  0.68600  1.0000
  Mo  Mo1       1.0  0.64500  0.76100  0.07390  1.0000
  Mo  Mo2       1.0  0.79000  0.63900  0.45800  1.0000
  Mo  Mo3       1.0  0.21000  0.36100  0.54200  1.0000
  Mo  Mo4       1.0  0.35500  0.23900  0.92600  1.0000
  O   O1        1.0  0.80700  0.57700  0.02550  1.0000
  O   O2        1.0  0.50900  0.19100  0.08620  1.0000
  O   O3        1.0  0.90400  0.97500  0.14300  1.0000
  O   O4        1.0  0.36200  0.71300  0.17600  1.0000
  O   O5        1.0  0.86300  0.62800  0.28100  1.0000
  O   O6        1.0  0.37300  0.46500  0.38300  1.0000
  O   O7        1.0  0.85800  0.32400  0.44300  1.0000
  O   O8        1.0  0.73900  0.86200  0.46000  1.0000
  O   O9        1.0  0.26100  0.13800  0.54000  1.0000
  O   O10       1.0  0.14200  0.67600  0.55700  1.0000
  O   O11       1.0  0.62700  0.53500  0.61700  1.0000
  O   O12       1.0  0.13700  0.37200  0.71900  1.0000
  O   O13       1.0  0.63800  0.28700  0.82400  1.0000
  O   O14       1.0  0.09650  0.02460  0.85700  1.0000
  O   O15       1.0  0.49100  0.80900  0.91400  1.0000
  O   O16       1.0  0.19300  0.42300  0.97500  1.0000
  Sb  Sb1       1.0  0.04630  0.46100  0.18800  1.0000
  Sb  Sb2       1.0  0.95400  0.53900  0.81200  1.0000
