data_image0
_chemical_formula_structural       Ho8Rh4Si12
_chemical_formula_sum              "Ho8 Rh4 Si12"
_cell_length_a       8.15816
_cell_length_b       8.15864
_cell_length_c       7.81638
_cell_angle_alpha    90
_cell_angle_beta     90
_cell_angle_gamma    120

_space_group_name_H-M_alt    "P 1"
_space_group_IT_number       1

loop_
  _space_group_symop_operation_xyz
  'x, y, z'

loop_
  _atom_site_type_symbol
  _atom_site_label
  _atom_site_symmetry_multiplicity
  _atom_site_fract_x
  _atom_site_fract_y
  _atom_site_fract_z
  _atom_site_occupancy
  Ho  Ho1       1.0  0.51000  0.02000  0.25000  1.0000
  Ho  Ho2       1.0  0.98000  0.49000  0.25000  1.0000
  Ho  Ho3       1.0  0.51000  0.49000  0.25000  1.0000
  Ho  Ho4       1.0  0.49000  0.98000  0.75000  1.0000
  Ho  Ho5       1.0  0.49000  0.51000  0.75000  1.0000
  Ho  Ho6       1.0  0.01990  0.51000  0.75000  1.0000
  Ho  Ho7       1.0  0.00000  1.00000  0.25000  1.0000
  Ho  Ho8       1.0  0.00000  0.00000  0.75000  1.0000
  Rh  Rh1       1.0  0.33300  0.66700  0.03590  1.0000
  Rh  Rh2       1.0  0.66700  0.33300  0.96400  1.0000
  Rh  Rh3       1.0  0.66700  0.33300  0.53600  1.0000
  Rh  Rh4       1.0  0.33300  0.66700  0.46400  1.0000
  Si  Si1       1.0  0.16700  0.83300  0.00248  1.0000
  Si  Si2       1.0  0.16700  0.33400  0.00249  1.0000
  Si  Si3       1.0  0.66600  0.83300  0.00249  1.0000
  Si  Si4       1.0  0.33400  0.16700  0.99800  1.0000
  Si  Si5       1.0  0.83300  0.66600  0.99800  1.0000
  Si  Si6       1.0  0.83300  0.16700  0.99800  1.0000
  Si  Si7       1.0  0.83300  0.16700  0.50200  1.0000
  Si  Si8       1.0  0.83300  0.66600  0.50200  1.0000
  Si  Si9       1.0  0.33400  0.16700  0.50200  1.0000
  Si  Si10      1.0  0.16700  0.83300  0.49800  1.0000
  Si  Si11      1.0  0.66600  0.83300  0.49800  1.0000
  Si  Si12      1.0  0.16700  0.33400  0.49800  1.0000
