data_image0
_chemical_formula_structural       N12Sr8Ta4
_chemical_formula_sum              "N12 Sr8 Ta4"
_cell_length_a       5.9995
_cell_length_b       6.37953
_cell_length_c       12.5629
_cell_angle_alpha    91.0889
_cell_angle_beta     92.3162
_cell_angle_gamma    61.9517

_space_group_name_H-M_alt    "P 1"
_space_group_IT_number       1

loop_
  _space_group_symop_operation_xyz
  'x, y, z'

loop_
  _atom_site_type_symbol
  _atom_site_label
  _atom_site_symmetry_multiplicity
  _atom_site_fract_x
  _atom_site_fract_y
  _atom_site_fract_z
  _atom_site_occupancy
  N   N1        1.0  0.61800  0.18700  0.03900  1.0000
  N   N2        1.0  0.99500  0.67200  0.12600  1.0000
  N   N3        1.0  0.49900  0.00141  0.25000  1.0000
  N   N4        1.0  0.91300  0.17300  0.25000  1.0000
  N   N5        1.0  0.33300  0.67200  0.37400  1.0000
  N   N6        1.0  0.19500  0.18700  0.46100  1.0000
  N   N7        1.0  0.80500  0.81300  0.53900  1.0000
  N   N8        1.0  0.66700  0.32800  0.62600  1.0000
  N   N9        1.0  0.08650  0.82700  0.75000  1.0000
  N   N10       1.0  0.50100  0.99900  0.75000  1.0000
  N   N11       1.0  0.00537  0.32800  0.87400  1.0000
  N   N12       1.0  0.38200  0.81300  0.96100  1.0000
  Sr  Sr1       1.0  0.15400  0.23100  0.07670  1.0000
  Sr  Sr2       1.0  0.46000  0.59500  0.14100  1.0000
  Sr  Sr3       1.0  0.94500  0.59500  0.35900  1.0000
  Sr  Sr4       1.0  0.61500  0.23100  0.42300  1.0000
  Sr  Sr5       1.0  0.38500  0.76900  0.57700  1.0000
  Sr  Sr6       1.0  0.05450  0.40500  0.64100  1.0000
  Sr  Sr7       1.0  0.54000  0.40500  0.85900  1.0000
  Sr  Sr8       1.0  0.84600  0.76900  0.92300  1.0000
  Ta  Ta1       1.0  0.76800  0.99700  0.16300  1.0000
  Ta  Ta2       1.0  0.23500  0.99700  0.33700  1.0000
  Ta  Ta3       1.0  0.76500  0.00320  0.66300  1.0000
  Ta  Ta4       1.0  0.23200  0.00320  0.83700  1.0000
