data_image0
_chemical_formula_structural       Ca7Ni4Sn13
_chemical_formula_sum              "Ca7 Ni4 Sn13"
_cell_length_a       11.2863
_cell_length_b       11.2863
_cell_length_c       4.61173
_cell_angle_alpha    90
_cell_angle_beta     90
_cell_angle_gamma    90

_space_group_name_H-M_alt    "P 1"
_space_group_IT_number       1

loop_
  _space_group_symop_operation_xyz
  'x, y, z'

loop_
  _atom_site_type_symbol
  _atom_site_label
  _atom_site_symmetry_multiplicity
  _atom_site_fract_x
  _atom_site_fract_y
  _atom_site_fract_z
  _atom_site_occupancy
  Ca  Ca1       1.0  0.50000  0.00000  0.00000  1.0000
  Ca  Ca2       1.0  0.82900  0.16200  0.00000  1.0000
  Ca  Ca3       1.0  0.16200  0.17100  0.00000  1.0000
  Ca  Ca4       1.0  0.00000  0.50000  0.00000  1.0000
  Ca  Ca5       1.0  0.83800  0.82900  0.00000  1.0000
  Ca  Ca6       1.0  0.17100  0.83800  0.00000  1.0000
  Ca  Ca7       1.0  0.50000  0.50000  0.50000  1.0000
  Ni  Ni1       1.0  0.38000  0.22400  0.50000  1.0000
  Ni  Ni2       1.0  0.77600  0.38000  0.50000  1.0000
  Ni  Ni3       1.0  0.22400  0.62000  0.50000  1.0000
  Ni  Ni4       1.0  0.62000  0.77600  0.50000  1.0000
  Sn  Sn1       1.0  0.42500  0.30900  0.00000  1.0000
  Sn  Sn2       1.0  0.69100  0.42500  0.00000  1.0000
  Sn  Sn3       1.0  0.30900  0.57500  0.00000  1.0000
  Sn  Sn4       1.0  0.57500  0.69100  0.00000  1.0000
  Sn  Sn5       1.0  0.00000  0.00000  0.50000  1.0000
  Sn  Sn6       1.0  0.28500  0.01820  0.50000  1.0000
  Sn  Sn7       1.0  0.61100  0.21600  0.50000  1.0000
  Sn  Sn8       1.0  0.98200  0.28500  0.50000  1.0000
  Sn  Sn9       1.0  0.21600  0.38900  0.50000  1.0000
  Sn  Sn10      1.0  0.78400  0.61100  0.50000  1.0000
  Sn  Sn11      1.0  0.01820  0.71500  0.50000  1.0000
  Sn  Sn12      1.0  0.38900  0.78400  0.50000  1.0000
  Sn  Sn13      1.0  0.71500  0.98200  0.50000  1.0000
