data_image0
_chemical_formula_structural       Au4Na8Sn12
_chemical_formula_sum              "Au4 Na8 Sn12"
_cell_length_a       9.73272
_cell_length_b       9.73256
_cell_length_c       7.57158
_cell_angle_alpha    90
_cell_angle_beta     90
_cell_angle_gamma    120.001

_space_group_name_H-M_alt    "P 1"
_space_group_IT_number       1

loop_
  _space_group_symop_operation_xyz
  'x, y, z'

loop_
  _atom_site_type_symbol
  _atom_site_label
  _atom_site_symmetry_multiplicity
  _atom_site_fract_x
  _atom_site_fract_y
  _atom_site_fract_z
  _atom_site_occupancy
  Au  Au1       1.0  0.33300  0.66700  0.03890  1.0000
  Au  Au2       1.0  0.33300  0.66700  0.46100  1.0000
  Au  Au3       1.0  0.66700  0.33300  0.53900  1.0000
  Au  Au4       1.0  0.66700  0.33300  0.96100  1.0000
  Na  Na1       1.0  0.00000  0.00000  0.25000  1.0000
  Na  Na2       1.0  0.53200  0.06450  0.25000  1.0000
  Na  Na3       1.0  0.53200  0.46800  0.25000  1.0000
  Na  Na4       1.0  0.93500  0.46800  0.25000  1.0000
  Na  Na5       1.0  0.00000  0.00000  0.75000  1.0000
  Na  Na6       1.0  0.06450  0.53200  0.75000  1.0000
  Na  Na7       1.0  0.46800  0.53200  0.75000  1.0000
  Na  Na8       1.0  0.46800  0.93500  0.75000  1.0000
  Sn  Sn1       1.0  0.17100  0.34200  0.05280  1.0000
  Sn  Sn2       1.0  0.17100  0.82900  0.05280  1.0000
  Sn  Sn3       1.0  0.65800  0.82900  0.05280  1.0000
  Sn  Sn4       1.0  0.17100  0.82900  0.44700  1.0000
  Sn  Sn5       1.0  0.65800  0.82900  0.44700  1.0000
  Sn  Sn6       1.0  0.17100  0.34200  0.44700  1.0000
  Sn  Sn7       1.0  0.82900  0.65800  0.55300  1.0000
  Sn  Sn8       1.0  0.34200  0.17100  0.55300  1.0000
  Sn  Sn9       1.0  0.82900  0.17100  0.55300  1.0000
  Sn  Sn10      1.0  0.34200  0.17100  0.94700  1.0000
  Sn  Sn11      1.0  0.82900  0.17100  0.94700  1.0000
  Sn  Sn12      1.0  0.82900  0.65800  0.94700  1.0000
