data_image0
_chemical_formula_structural       Pr2Zn22
_chemical_formula_sum              "Pr2 Zn22"
_cell_length_a       6.82948
_cell_length_b       8.23477
_cell_length_c       8.23477
_cell_angle_alpha    99.9014
_cell_angle_beta     65.5013
_cell_angle_gamma    114.499

_space_group_name_H-M_alt    "P 1"
_space_group_IT_number       1

loop_
  _space_group_symop_operation_xyz
  'x, y, z'

loop_
  _atom_site_type_symbol
  _atom_site_label
  _atom_site_symmetry_multiplicity
  _atom_site_fract_x
  _atom_site_fract_y
  _atom_site_fract_z
  _atom_site_occupancy
  Pr  Pr1       1.0  0.00000  0.00000  0.00000  1.0000
  Pr  Pr2       1.0  0.75000  0.50000  0.50000  1.0000
  Zn  Zn1       1.0  0.50000  0.00000  0.00000  1.0000
  Zn  Zn2       1.0  0.09660  0.67300  0.08390  1.0000
  Zn  Zn3       1.0  0.81900  0.32700  0.08390  1.0000
  Zn  Zn4       1.0  0.65300  0.58400  0.17300  1.0000
  Zn  Zn5       1.0  0.17400  0.41600  0.17300  1.0000
  Zn  Zn6       1.0  0.37500  0.75000  0.25000  1.0000
  Zn  Zn7       1.0  0.37500  0.25000  0.25000  1.0000
  Zn  Zn8       1.0  0.57600  0.08390  0.32700  1.0000
  Zn  Zn9       1.0  0.09660  0.91600  0.32700  1.0000
  Zn  Zn10      1.0  0.93100  0.17300  0.41600  1.0000
  Zn  Zn11      1.0  0.65300  0.82700  0.41600  1.0000
  Zn  Zn12      1.0  0.25000  0.50000  0.50000  1.0000
  Zn  Zn13      1.0  0.24200  0.17300  0.58400  1.0000
  Zn  Zn14      1.0  0.17400  0.82700  0.58400  1.0000
  Zn  Zn15      1.0  0.50800  0.08390  0.67300  1.0000
  Zn  Zn16      1.0  0.81900  0.91600  0.67300  1.0000
  Zn  Zn17      1.0  0.37500  0.75000  0.75000  1.0000
  Zn  Zn18      1.0  0.87500  0.25000  0.75000  1.0000
  Zn  Zn19      1.0  0.24200  0.41600  0.82700  1.0000
  Zn  Zn20      1.0  0.93100  0.58400  0.82700  1.0000
  Zn  Zn21      1.0  0.57600  0.67300  0.91600  1.0000
  Zn  Zn22      1.0  0.50800  0.32700  0.91600  1.0000
