data_image0
_chemical_formula_structural       Bi4Cl4O12Se4
_chemical_formula_sum              "Bi4 Cl4 O12 Se4"
_cell_length_a       11.8275
_cell_length_b       6.94236
_cell_length_c       5.33202
_cell_angle_alpha    90
_cell_angle_beta     90
_cell_angle_gamma    90

_space_group_name_H-M_alt    "P 1"
_space_group_IT_number       1

loop_
  _space_group_symop_operation_xyz
  'x, y, z'

loop_
  _atom_site_type_symbol
  _atom_site_label
  _atom_site_symmetry_multiplicity
  _atom_site_fract_x
  _atom_site_fract_y
  _atom_site_fract_z
  _atom_site_occupancy
  Bi  Bi1       1.0  0.54200  0.70800  0.17700  1.0000
  Bi  Bi2       1.0  0.04150  0.79200  0.17700  1.0000
  Bi  Bi3       1.0  0.95800  0.20800  0.67700  1.0000
  Bi  Bi4       1.0  0.45800  0.29200  0.67700  1.0000
  Cl  Cl1       1.0  0.44200  0.10800  0.17700  1.0000
  Cl  Cl2       1.0  0.94200  0.39200  0.17700  1.0000
  Cl  Cl3       1.0  0.05760  0.60800  0.67700  1.0000
  Cl  Cl4       1.0  0.55800  0.89200  0.67700  1.0000
  O   O1        1.0  0.22600  0.70400  0.17800  1.0000
  O   O2        1.0  0.72600  0.79600  0.17800  1.0000
  O   O3        1.0  0.38500  0.52600  0.41700  1.0000
  O   O4        1.0  0.88500  0.97400  0.41700  1.0000
  O   O5        1.0  0.11700  0.02590  0.43400  1.0000
  O   O6        1.0  0.61700  0.47400  0.43400  1.0000
  O   O7        1.0  0.27400  0.20400  0.67800  1.0000
  O   O8        1.0  0.77400  0.29600  0.67800  1.0000
  O   O9        1.0  0.11500  0.02580  0.91700  1.0000
  O   O10       1.0  0.61500  0.47400  0.91700  1.0000
  O   O11       1.0  0.38300  0.52600  0.93400  1.0000
  O   O12       1.0  0.88300  0.97400  0.93400  1.0000
  Se  Se1       1.0  0.78700  0.01930  0.17700  1.0000
  Se  Se2       1.0  0.28700  0.48100  0.17700  1.0000
  Se  Se3       1.0  0.71300  0.51900  0.67700  1.0000
  Se  Se4       1.0  0.21300  0.98100  0.67700  1.0000
