data_image0
_chemical_formula_structural       Ir2O8U4
_chemical_formula_sum              "Ir2 O8 U4"
_cell_length_a       7.04461
_cell_length_b       7.04461
_cell_length_c       7.04461
_cell_angle_alpha    119.284
_cell_angle_beta     91.2453
_cell_angle_gamma    119.284

_space_group_name_H-M_alt    "P 1"
_space_group_IT_number       1

loop_
  _space_group_symop_operation_xyz
  'x, y, z'

loop_
  _atom_site_type_symbol
  _atom_site_label
  _atom_site_symmetry_multiplicity
  _atom_site_fract_x
  _atom_site_fract_y
  _atom_site_fract_z
  _atom_site_occupancy
  Ir  Ir1       1.0  0.00000  0.00000  0.00000  1.0000
  Ir  Ir2       1.0  0.75000  0.50000  0.25000  1.0000
  O   O1        1.0  0.19300  0.79600  0.39700  1.0000
  O   O2        1.0  0.60100  0.20400  0.39700  1.0000
  O   O3        1.0  0.60300  0.79600  0.39900  1.0000
  O   O4        1.0  0.14700  0.29600  0.44300  1.0000
  O   O5        1.0  0.60300  0.20400  0.80700  1.0000
  O   O6        1.0  0.14700  0.70400  0.85100  1.0000
  O   O7        1.0  0.14900  0.29600  0.85300  1.0000
  O   O8        1.0  0.55700  0.70400  0.85300  1.0000
  U   U1        1.0  0.37500  0.75000  0.12500  1.0000
  U   U2        1.0  0.87500  0.25000  0.62500  1.0000
  U   U3        1.0  0.37500  0.75000  0.62500  1.0000
  U   U4        1.0  0.37500  0.25000  0.62500  1.0000
