data_image0
_chemical_formula_structural       In2Li2Mo4O16
_chemical_formula_sum              "In2 Li2 Mo4 O16"
_cell_length_a       4.99179
_cell_length_b       7.46228
_cell_length_c       7.46228
_cell_angle_alpha    100.691
_cell_angle_beta     90.8997
_cell_angle_gamma    90.8997

_space_group_name_H-M_alt    "P 1"
_space_group_IT_number       1

loop_
  _space_group_symop_operation_xyz
  'x, y, z'

loop_
  _atom_site_type_symbol
  _atom_site_label
  _atom_site_symmetry_multiplicity
  _atom_site_fract_x
  _atom_site_fract_y
  _atom_site_fract_z
  _atom_site_occupancy
  In  In1       1.0  0.25000  0.90700  0.09320  1.0000
  In  In2       1.0  0.75000  0.09320  0.90700  1.0000
  Li  Li1       1.0  0.75000  0.58600  0.41400  1.0000
  Li  Li2       1.0  0.25000  0.41400  0.58600  1.0000
  Mo  Mo1       1.0  0.25000  0.42700  0.11400  1.0000
  Mo  Mo2       1.0  0.75000  0.11400  0.42700  1.0000
  Mo  Mo3       1.0  0.25000  0.88600  0.57300  1.0000
  Mo  Mo4       1.0  0.75000  0.57300  0.88600  1.0000
  O   O1        1.0  0.43500  0.65200  0.05360  1.0000
  O   O2        1.0  0.11100  0.18600  0.06190  1.0000
  O   O3        1.0  0.95500  0.56000  0.17000  1.0000
  O   O4        1.0  0.61100  0.06190  0.18600  1.0000
  O   O5        1.0  0.41100  0.43400  0.32300  1.0000
  O   O6        1.0  0.06470  0.94600  0.34800  1.0000
  O   O7        1.0  0.91100  0.32300  0.43400  1.0000
  O   O8        1.0  0.54500  0.83000  0.44000  1.0000
  O   O9        1.0  0.45500  0.17000  0.56000  1.0000
  O   O10       1.0  0.08940  0.67700  0.56600  1.0000
  O   O11       1.0  0.93500  0.05360  0.65200  1.0000
  O   O12       1.0  0.58900  0.56600  0.67700  1.0000
  O   O13       1.0  0.38900  0.93800  0.81400  1.0000
  O   O14       1.0  0.04490  0.44000  0.83000  1.0000
  O   O15       1.0  0.88900  0.81400  0.93800  1.0000
  O   O16       1.0  0.56500  0.34800  0.94600  1.0000
