data_image0
_chemical_formula_structural       B3O15P3Pb3
_chemical_formula_sum              "B3 O15 P3 Pb3"
_cell_length_a       6.88164
_cell_length_b       6.88164
_cell_length_c       6.8315
_cell_angle_alpha    90
_cell_angle_beta     90
_cell_angle_gamma    120

_space_group_name_H-M_alt    "P 1"
_space_group_IT_number       1

loop_
  _space_group_symop_operation_xyz
  'x, y, z'

loop_
  _atom_site_type_symbol
  _atom_site_label
  _atom_site_symmetry_multiplicity
  _atom_site_fract_x
  _atom_site_fract_y
  _atom_site_fract_z
  _atom_site_occupancy
  B   B1        1.0  0.09980  0.09980  0.00000  1.0000
  B   B2        1.0  0.90000  0.00000  0.33300  1.0000
  B   B3        1.0  0.00000  0.90000  0.66700  1.0000
  O   O1        1.0  0.86200  0.44900  0.01990  1.0000
  O   O2        1.0  0.15000  0.33700  0.03930  1.0000
  O   O3        1.0  0.00000  0.95500  0.16700  1.0000
  O   O4        1.0  0.85000  0.18600  0.29400  1.0000
  O   O5        1.0  0.13800  0.58600  0.31300  1.0000
  O   O6        1.0  0.55100  0.41400  0.35300  1.0000
  O   O7        1.0  0.66300  0.81400  0.37300  1.0000
  O   O8        1.0  0.04490  0.04490  0.50000  1.0000
  O   O9        1.0  0.81400  0.66300  0.62700  1.0000
  O   O10       1.0  0.41400  0.55100  0.64700  1.0000
  O   O11       1.0  0.58600  0.13800  0.68700  1.0000
  O   O12       1.0  0.18600  0.85000  0.70600  1.0000
  O   O13       1.0  0.95500  0.00000  0.83300  1.0000
  O   O14       1.0  0.33700  0.15000  0.96100  1.0000
  O   O15       1.0  0.44900  0.86200  0.98000  1.0000
  P   P1        1.0  0.00000  0.40400  0.16700  1.0000
  P   P2        1.0  0.59600  0.59600  0.50000  1.0000
  P   P3        1.0  0.40400  0.00000  0.83300  1.0000
  Pb  Pb1       1.0  0.60800  0.60800  0.00000  1.0000
  Pb  Pb2       1.0  0.39200  0.00000  0.33300  1.0000
  Pb  Pb3       1.0  0.00000  0.39200  0.66700  1.0000
