data_image0
_chemical_formula_structural       Fe8Hf16
_chemical_formula_sum              "Fe8 Hf16"
_cell_length_a       8.45715
_cell_length_b       8.45715
_cell_length_c       8.45715
_cell_angle_alpha    120
_cell_angle_beta     90
_cell_angle_gamma    120

_space_group_name_H-M_alt    "P 1"
_space_group_IT_number       1

loop_
  _space_group_symop_operation_xyz
  'x, y, z'

loop_
  _atom_site_type_symbol
  _atom_site_label
  _atom_site_symmetry_multiplicity
  _atom_site_fract_x
  _atom_site_fract_y
  _atom_site_fract_z
  _atom_site_occupancy
  Fe  Fe1       1.0  0.59100  0.18100  0.40900  1.0000
  Fe  Fe2       1.0  0.22800  0.81900  0.40900  1.0000
  Fe  Fe3       1.0  0.59100  0.81900  0.40900  1.0000
  Fe  Fe4       1.0  0.15900  0.31900  0.47800  1.0000
  Fe  Fe5       1.0  0.59100  0.18100  0.77200  1.0000
  Fe  Fe6       1.0  0.15900  0.31900  0.84100  1.0000
  Fe  Fe7       1.0  0.15900  0.68100  0.84100  1.0000
  Fe  Fe8       1.0  0.52200  0.68100  0.84100  1.0000
  Hf  Hf1       1.0  0.93900  0.50000  0.06140  1.0000
  Hf  Hf2       1.0  0.56100  0.12300  0.06140  1.0000
  Hf  Hf3       1.0  0.56100  0.50000  0.06140  1.0000
  Hf  Hf4       1.0  0.37500  0.75000  0.12500  1.0000
  Hf  Hf5       1.0  0.18900  0.00000  0.18900  1.0000
  Hf  Hf6       1.0  0.18900  0.37700  0.18900  1.0000
  Hf  Hf7       1.0  0.81100  0.00000  0.18900  1.0000
  Hf  Hf8       1.0  0.56100  0.50000  0.43900  1.0000
  Hf  Hf9       1.0  0.93900  0.50000  0.43900  1.0000
  Hf  Hf10      1.0  0.93900  0.87700  0.43900  1.0000
  Hf  Hf11      1.0  0.87500  0.25000  0.62500  1.0000
  Hf  Hf12      1.0  0.37500  0.25000  0.62500  1.0000
  Hf  Hf13      1.0  0.37500  0.75000  0.62500  1.0000
  Hf  Hf14      1.0  0.81100  1.00000  0.81100  1.0000
  Hf  Hf15      1.0  0.18900  1.00000  0.81100  1.0000
  Hf  Hf16      1.0  0.81100  0.62300  0.81100  1.0000
