data_image0
_chemical_formula_structural       Na4O14P4Pb2
_chemical_formula_sum              "Na4 O14 P4 Pb2"
_cell_length_a       5.45876
_cell_length_b       6.87086
_cell_length_c       9.30869
_cell_angle_alpha    105.716
_cell_angle_beta     96.9931
_cell_angle_gamma    108.285

_space_group_name_H-M_alt    "P 1"
_space_group_IT_number       1

loop_
  _space_group_symop_operation_xyz
  'x, y, z'

loop_
  _atom_site_type_symbol
  _atom_site_label
  _atom_site_symmetry_multiplicity
  _atom_site_fract_x
  _atom_site_fract_y
  _atom_site_fract_z
  _atom_site_occupancy
  Na  Na1       1.0  0.90200  0.71600  0.00792  1.0000
  Na  Na2       1.0  0.65200  0.36500  0.22700  1.0000
  Na  Na3       1.0  0.34800  0.63500  0.77300  1.0000
  Na  Na4       1.0  0.09770  0.28400  0.99200  1.0000
  O   O1        1.0  0.33400  0.65400  0.02400  1.0000
  O   O2        1.0  0.76400  0.98100  0.15900  1.0000
  O   O3        1.0  0.31600  0.01410  0.17100  1.0000
  O   O4        1.0  0.21400  0.40900  0.26000  1.0000
  O   O5        1.0  0.00702  0.69800  0.31700  1.0000
  O   O6        1.0  0.49700  0.80300  0.31700  1.0000
  O   O7        1.0  0.66100  0.32100  0.47000  1.0000
  O   O8        1.0  0.33900  0.67900  0.53000  1.0000
  O   O9        1.0  0.50300  0.19700  0.68300  1.0000
  O   O10       1.0  0.99300  0.30200  0.68300  1.0000
  O   O11       1.0  0.78600  0.59100  0.74000  1.0000
  O   O12       1.0  0.68400  0.98600  0.82900  1.0000
  O   O13       1.0  0.23600  0.01850  0.84100  1.0000
  O   O14       1.0  0.66600  0.34600  0.97600  1.0000
  P   P1        1.0  0.47500  0.86300  0.15700  1.0000
  P   P2        1.0  0.24700  0.64000  0.36000  1.0000
  P   P3        1.0  0.75300  0.36000  0.64000  1.0000
  P   P4        1.0  0.52500  0.13700  0.84300  1.0000
  Pb  Pb1       1.0  0.13600  0.13400  0.37800  1.0000
  Pb  Pb2       1.0  0.86400  0.86600  0.62200  1.0000
