data_image0
_chemical_formula_structural       Na8O12Ru4
_chemical_formula_sum              "Na8 O12 Ru4"
_cell_length_a       5.40918
_cell_length_b       5.40918
_cell_length_c       10.7019
_cell_angle_alpha    94.9032
_cell_angle_beta     94.9032
_cell_angle_gamma    119.988

_space_group_name_H-M_alt    "P 1"
_space_group_IT_number       1

loop_
  _space_group_symop_operation_xyz
  'x, y, z'

loop_
  _atom_site_type_symbol
  _atom_site_label
  _atom_site_symmetry_multiplicity
  _atom_site_fract_x
  _atom_site_fract_y
  _atom_site_fract_z
  _atom_site_occupancy
  Na  Na1       1.0  0.00000  0.50000  0.00000  1.0000
  Na  Na2       1.0  0.31800  0.15900  0.00054  1.0000
  Na  Na3       1.0  0.08680  0.91300  0.25000  1.0000
  Na  Na4       1.0  0.84100  0.68200  0.49900  1.0000
  Na  Na5       1.0  0.50000  0.00000  0.50000  1.0000
  Na  Na6       1.0  0.15900  0.31800  0.50100  1.0000
  Na  Na7       1.0  0.91300  0.08680  0.75000  1.0000
  Na  Na8       1.0  0.68200  0.84100  0.99900  1.0000
  O   O1        1.0  0.05010  0.24400  0.14500  1.0000
  O   O2        1.0  0.41700  0.87800  0.14500  1.0000
  O   O3        1.0  0.68400  0.51200  0.14600  1.0000
  O   O4        1.0  0.48800  0.31600  0.35400  1.0000
  O   O5        1.0  0.12200  0.58300  0.35500  1.0000
  O   O6        1.0  0.75600  0.95000  0.35500  1.0000
  O   O7        1.0  0.24400  0.05010  0.64500  1.0000
  O   O8        1.0  0.87800  0.41700  0.64500  1.0000
  O   O9        1.0  0.51200  0.68400  0.64600  1.0000
  O   O10       1.0  0.31600  0.48800  0.85400  1.0000
  O   O11       1.0  0.58300  0.12200  0.85500  1.0000
  O   O12       1.0  0.95000  0.75600  0.85500  1.0000
  Ru  Ru1       1.0  0.75300  0.24700  0.25000  1.0000
  Ru  Ru2       1.0  0.42000  0.58000  0.25000  1.0000
  Ru  Ru3       1.0  0.58000  0.42000  0.75000  1.0000
  Ru  Ru4       1.0  0.24700  0.75300  0.75000  1.0000
