data_image0
_chemical_formula_structural       Cl4Ho4O12Te4
_chemical_formula_sum              "Cl4 Ho4 O12 Te4"
_cell_length_a       7.20791
_cell_length_b       6.93873
_cell_length_c       9.04233
_cell_angle_alpha    90
_cell_angle_beta     90
_cell_angle_gamma    90

_space_group_name_H-M_alt    "P 1"
_space_group_IT_number       1

loop_
  _space_group_symop_operation_xyz
  'x, y, z'

loop_
  _atom_site_type_symbol
  _atom_site_label
  _atom_site_symmetry_multiplicity
  _atom_site_fract_x
  _atom_site_fract_y
  _atom_site_fract_z
  _atom_site_occupancy
  Cl  Cl1       1.0  0.93700  0.25000  0.18400  1.0000
  Cl  Cl2       1.0  0.43700  0.25000  0.31600  1.0000
  Cl  Cl3       1.0  0.56300  0.75000  0.68400  1.0000
  Cl  Cl4       1.0  0.06300  0.75000  0.81600  1.0000
  Ho  Ho1       1.0  0.59200  0.25000  0.03740  1.0000
  Ho  Ho2       1.0  0.09210  0.25000  0.46300  1.0000
  Ho  Ho3       1.0  0.90800  0.75000  0.53700  1.0000
  Ho  Ho4       1.0  0.40800  0.75000  0.96300  1.0000
  O   O1        1.0  0.64900  0.56500  0.06320  1.0000
  O   O2        1.0  0.64900  0.93500  0.06320  1.0000
  O   O3        1.0  0.25600  0.75000  0.17000  1.0000
  O   O4        1.0  0.75600  0.75000  0.33000  1.0000
  O   O5        1.0  0.14900  0.56500  0.43700  1.0000
  O   O6        1.0  0.14900  0.93500  0.43700  1.0000
  O   O7        1.0  0.85100  0.06530  0.56300  1.0000
  O   O8        1.0  0.85100  0.43500  0.56300  1.0000
  O   O9        1.0  0.24400  0.25000  0.67000  1.0000
  O   O10       1.0  0.74400  0.25000  0.83000  1.0000
  O   O11       1.0  0.35100  0.06530  0.93700  1.0000
  O   O12       1.0  0.35100  0.43500  0.93700  1.0000
  Te  Te1       1.0  0.82500  0.75000  0.13100  1.0000
  Te  Te2       1.0  0.32500  0.75000  0.36900  1.0000
  Te  Te3       1.0  0.67500  0.25000  0.63100  1.0000
  Te  Te4       1.0  0.17500  0.25000  0.86900  1.0000
