data_image0
_chemical_formula_structural       Ge4K4O14Zr2
_chemical_formula_sum              "Ge4 K4 O14 Zr2"
_cell_length_a       5.5508
_cell_length_b       5.70943
_cell_length_c       12.8237
_cell_angle_alpha    90.0574
_cell_angle_beta     102.499
_cell_angle_gamma    119.085

_space_group_name_H-M_alt    "P 1"
_space_group_IT_number       1

loop_
  _space_group_symop_operation_xyz
  'x, y, z'

loop_
  _atom_site_type_symbol
  _atom_site_label
  _atom_site_symmetry_multiplicity
  _atom_site_fract_x
  _atom_site_fract_y
  _atom_site_fract_z
  _atom_site_occupancy
  Ge  Ge1       1.0  0.87500  0.19200  0.12200  1.0000
  Ge  Ge2       1.0  0.06120  0.30800  0.37800  1.0000
  Ge  Ge3       1.0  0.93900  0.69200  0.62200  1.0000
  Ge  Ge4       1.0  0.12500  0.80800  0.87800  1.0000
  K   K1        1.0  0.23800  0.87800  0.18100  1.0000
  K   K2        1.0  0.67900  0.62200  0.31900  1.0000
  K   K3        1.0  0.32100  0.37800  0.68100  1.0000
  K   K4        1.0  0.76200  0.12200  0.81900  1.0000
  O   O1        1.0  0.10400  0.29900  0.03680  1.0000
  O   O2        1.0  0.62900  0.84500  0.10500  1.0000
  O   O3        1.0  0.69700  0.37100  0.13100  1.0000
  O   O4        1.0  0.12000  0.25000  0.25000  1.0000
  O   O5        1.0  0.69500  0.12900  0.36900  1.0000
  O   O6        1.0  0.17900  0.65500  0.39500  1.0000
  O   O7        1.0  0.26900  0.20100  0.46300  1.0000
  O   O8        1.0  0.73100  0.79900  0.53700  1.0000
  O   O9        1.0  0.82100  0.34500  0.60500  1.0000
  O   O10       1.0  0.30500  0.87100  0.63100  1.0000
  O   O11       1.0  0.88000  0.75000  0.75000  1.0000
  O   O12       1.0  0.30300  0.62900  0.86900  1.0000
  O   O13       1.0  0.37100  0.15500  0.89500  1.0000
  O   O14       1.0  0.89600  0.70100  0.96300  1.0000
  Zr  Zr1       1.0  0.50000  0.50000  0.00000  1.0000
  Zr  Zr2       1.0  0.50000  0.00000  0.50000  1.0000
