data_image0
_chemical_formula_structural       Cd4Cu8
_chemical_formula_sum              "Cd4 Cu8"
_cell_length_a       4.99771
_cell_length_b       4.99775
_cell_length_c       8.03349
_cell_angle_alpha    90
_cell_angle_beta     90
_cell_angle_gamma    120

_space_group_name_H-M_alt    "P 1"
_space_group_IT_number       1

loop_
  _space_group_symop_operation_xyz
  'x, y, z'

loop_
  _atom_site_type_symbol
  _atom_site_label
  _atom_site_symmetry_multiplicity
  _atom_site_fract_x
  _atom_site_fract_y
  _atom_site_fract_z
  _atom_site_occupancy
  Cd  Cd1       1.0  0.33300  0.66700  0.06210  1.0000
  Cd  Cd2       1.0  0.33300  0.66700  0.43800  1.0000
  Cd  Cd3       1.0  0.66700  0.33300  0.56200  1.0000
  Cd  Cd4       1.0  0.66700  0.33300  0.93800  1.0000
  Cu  Cu1       1.0  0.00000  0.00000  0.00000  1.0000
  Cu  Cu2       1.0  0.33800  0.16900  0.25000  1.0000
  Cu  Cu3       1.0  0.83100  0.16900  0.25000  1.0000
  Cu  Cu4       1.0  0.83100  0.66200  0.25000  1.0000
  Cu  Cu5       1.0  0.00000  0.00000  0.50000  1.0000
  Cu  Cu6       1.0  0.16900  0.33800  0.75000  1.0000
  Cu  Cu7       1.0  0.16900  0.83100  0.75000  1.0000
  Cu  Cu8       1.0  0.66200  0.83100  0.75000  1.0000
