data_image0
_chemical_formula_structural       Ba2Be4O14Si4
_chemical_formula_sum              "Ba2 Be4 O14 Si4"
_cell_length_a       11.3881
_cell_length_b       4.84815
_cell_length_c       4.57797
_cell_angle_alpha    89.9988
_cell_angle_beta     90
_cell_angle_gamma    90

_space_group_name_H-M_alt    "P 1"
_space_group_IT_number       1

loop_
  _space_group_symop_operation_xyz
  'x, y, z'

loop_
  _atom_site_type_symbol
  _atom_site_label
  _atom_site_symmetry_multiplicity
  _atom_site_fract_x
  _atom_site_fract_y
  _atom_site_fract_z
  _atom_site_occupancy
  Ba  Ba1       1.0  0.50000  0.06090  0.49700  1.0000
  Ba  Ba2       1.0  0.00000  0.45900  0.99900  1.0000
  Be  Be1       1.0  0.25000  0.43000  0.52600  1.0000
  Be  Be2       1.0  0.75000  0.43000  0.52600  1.0000
  Be  Be3       1.0  0.25000  0.08990  0.02610  1.0000
  Be  Be4       1.0  0.75000  0.08990  0.02610  1.0000
  O   O1        1.0  0.13500  0.60700  0.46000  1.0000
  O   O2        1.0  0.86500  0.60700  0.46000  1.0000
  O   O3        1.0  0.27000  0.40000  0.88200  1.0000
  O   O4        1.0  0.73000  0.40000  0.88200  1.0000
  O   O5        1.0  0.36800  0.54500  0.38800  1.0000
  O   O6        1.0  0.63200  0.54500  0.38800  1.0000
  O   O7        1.0  0.13200  0.97500  0.88800  1.0000
  O   O8        1.0  0.86800  0.97500  0.88800  1.0000
  O   O9        1.0  0.23000  0.12000  0.38200  1.0000
  O   O10       1.0  0.77000  0.12000  0.38200  1.0000
  O   O11       1.0  0.00000  0.05110  0.42600  1.0000
  O   O12       1.0  0.50000  0.46800  0.92700  1.0000
  O   O13       1.0  0.36600  0.91300  0.96000  1.0000
  O   O14       1.0  0.63400  0.91300  0.96000  1.0000
  Si  Si1       1.0  0.12900  0.93100  0.53800  1.0000
  Si  Si2       1.0  0.87100  0.93100  0.53800  1.0000
  Si  Si3       1.0  0.37100  0.58900  0.03810  1.0000
  Si  Si4       1.0  0.62900  0.58900  0.03810  1.0000
