data_image0
_chemical_formula_structural       Ca2Na4O14P4
_chemical_formula_sum              "Ca2 Na4 O14 P4"
_cell_length_a       5.34589
_cell_length_b       6.9942
_cell_length_c       8.72317
_cell_angle_alpha    69.3126
_cell_angle_beta     89.1042
_cell_angle_gamma    88.7454

_space_group_name_H-M_alt    "P 1"
_space_group_IT_number       1

loop_
  _space_group_symop_operation_xyz
  'x, y, z'

loop_
  _atom_site_type_symbol
  _atom_site_label
  _atom_site_symmetry_multiplicity
  _atom_site_fract_x
  _atom_site_fract_y
  _atom_site_fract_z
  _atom_site_occupancy
  Ca  Ca1       1.0  0.76600  0.75300  0.28200  1.0000
  Ca  Ca2       1.0  0.23400  0.24700  0.71800  1.0000
  Na  Na1       1.0  0.73100  0.21600  0.02110  1.0000
  Na  Na2       1.0  0.76500  0.13200  0.45400  1.0000
  Na  Na3       1.0  0.23500  0.86800  0.54600  1.0000
  Na  Na4       1.0  0.26900  0.78400  0.97900  1.0000
  O   O1        1.0  0.72300  0.87700  0.00204  1.0000
  O   O2        1.0  0.27200  0.36100  0.14900  1.0000
  O   O3        1.0  0.98600  0.05560  0.24400  1.0000
  O   O4        1.0  0.16700  0.64300  0.24900  1.0000
  O   O5        1.0  0.45900  0.00583  0.28700  1.0000
  O   O6        1.0  0.57700  0.44600  0.33400  1.0000
  O   O7        1.0  0.16700  0.27400  0.45200  1.0000
  O   O8        1.0  0.83300  0.72600  0.54800  1.0000
  O   O9        1.0  0.42300  0.55400  0.66600  1.0000
  O   O10       1.0  0.54100  0.99400  0.71300  1.0000
  O   O11       1.0  0.83300  0.35700  0.75100  1.0000
  O   O12       1.0  0.01390  0.94400  0.75600  1.0000
  O   O13       1.0  0.72800  0.63900  0.85100  1.0000
  O   O14       1.0  0.27700  0.12300  0.99800  1.0000
  P   P1        1.0  0.24600  0.11800  0.17300  1.0000
  P   P2        1.0  0.29700  0.43400  0.30800  1.0000
  P   P3        1.0  0.70300  0.56600  0.69200  1.0000
  P   P4        1.0  0.75400  0.88200  0.82700  1.0000
