data_image0
_chemical_formula_structural       Cr2Hg10O12
_chemical_formula_sum              "Cr2 Hg10 O12"
_cell_length_a       6.60097
_cell_length_b       8.1983
_cell_length_c       8.1983
_cell_angle_alpha    92.6316
_cell_angle_beta     96.214
_cell_angle_gamma    96.214

_space_group_name_H-M_alt    "P 1"
_space_group_IT_number       1

loop_
  _space_group_symop_operation_xyz
  'x, y, z'

loop_
  _atom_site_type_symbol
  _atom_site_label
  _atom_site_symmetry_multiplicity
  _atom_site_fract_x
  _atom_site_fract_y
  _atom_site_fract_z
  _atom_site_occupancy
  Cr  Cr1       1.0  0.25000  0.68400  0.31600  1.0000
  Cr  Cr2       1.0  0.75000  0.31600  0.68400  1.0000
  Hg  Hg1       1.0  0.00000  0.00000  0.00000  1.0000
  Hg  Hg2       1.0  0.50000  0.00000  0.00000  1.0000
  Hg  Hg3       1.0  0.71000  0.61300  0.06330  1.0000
  Hg  Hg4       1.0  0.80200  0.35200  0.20400  1.0000
  Hg  Hg5       1.0  0.30200  0.20400  0.35200  1.0000
  Hg  Hg6       1.0  0.79000  0.93700  0.38700  1.0000
  Hg  Hg7       1.0  0.21000  0.06330  0.61300  1.0000
  Hg  Hg8       1.0  0.69800  0.79600  0.64800  1.0000
  Hg  Hg9       1.0  0.19800  0.64800  0.79600  1.0000
  Hg  Hg10      1.0  0.29000  0.38700  0.93700  1.0000
  O   O1        1.0  0.35800  0.19200  0.09390  1.0000
  O   O2        1.0  0.85800  0.09390  0.19200  1.0000
  O   O3        1.0  0.45400  0.76200  0.22900  1.0000
  O   O4        1.0  0.04600  0.77100  0.23800  1.0000
  O   O5        1.0  0.20500  0.48100  0.27500  1.0000
  O   O6        1.0  0.70500  0.27500  0.48100  1.0000
  O   O7        1.0  0.29500  0.72500  0.51900  1.0000
  O   O8        1.0  0.79500  0.51900  0.72500  1.0000
  O   O9        1.0  0.95400  0.22900  0.76200  1.0000
  O   O10       1.0  0.54600  0.23800  0.77100  1.0000
  O   O11       1.0  0.14200  0.90600  0.80800  1.0000
  O   O12       1.0  0.64200  0.80800  0.90600  1.0000
