data_image0
_chemical_formula_structural       O14Sn4Sr6
_chemical_formula_sum              "O14 Sn4 Sr6"
_cell_length_a       5.72925
_cell_length_b       5.80924
_cell_length_c       10.6817
_cell_angle_alpha    105.779
_cell_angle_beta     90
_cell_angle_gamma    90

_space_group_name_H-M_alt    "P 1"
_space_group_IT_number       1

loop_
  _space_group_symop_operation_xyz
  'x, y, z'

loop_
  _atom_site_type_symbol
  _atom_site_label
  _atom_site_symmetry_multiplicity
  _atom_site_fract_x
  _atom_site_fract_y
  _atom_site_fract_z
  _atom_site_occupancy
  O   O1        1.0  0.75000  0.32400  0.00000  1.0000
  O   O2        1.0  0.25000  0.67600  0.00000  1.0000
  O   O3        1.0  0.00000  0.08270  0.16500  1.0000
  O   O4        1.0  0.50000  0.08270  0.16500  1.0000
  O   O5        1.0  0.00000  0.61300  0.22500  1.0000
  O   O6        1.0  0.50000  0.61300  0.22500  1.0000
  O   O7        1.0  0.25000  0.00603  0.39600  1.0000
  O   O8        1.0  0.75000  0.38900  0.39600  1.0000
  O   O9        1.0  0.25000  0.61100  0.60400  1.0000
  O   O10       1.0  0.75000  0.99400  0.60400  1.0000
  O   O11       1.0  0.00000  0.38700  0.77500  1.0000
  O   O12       1.0  0.50000  0.38700  0.77500  1.0000
  O   O13       1.0  0.00000  0.91700  0.83500  1.0000
  O   O14       1.0  0.50000  0.91700  0.83500  1.0000
  Sn  Sn1       1.0  0.75000  0.35000  0.19800  1.0000
  Sn  Sn2       1.0  0.25000  0.84800  0.19800  1.0000
  Sn  Sn3       1.0  0.75000  0.15200  0.80200  1.0000
  Sn  Sn4       1.0  0.25000  0.65000  0.80200  1.0000
  Sr  Sr1       1.0  0.25000  0.24400  0.00000  1.0000
  Sr  Sr2       1.0  0.75000  0.75600  0.00000  1.0000
  Sr  Sr3       1.0  0.25000  0.42600  0.37500  1.0000
  Sr  Sr4       1.0  0.75000  0.94900  0.37500  1.0000
  Sr  Sr5       1.0  0.25000  0.05120  0.62500  1.0000
  Sr  Sr6       1.0  0.75000  0.57400  0.62500  1.0000
