data_image0
_chemical_formula_structural       Na16Tl8
_chemical_formula_sum              "Na16 Tl8"
_cell_length_a       8.21157
_cell_length_b       8.21157
_cell_length_c       11.5903
_cell_angle_alpha    90
_cell_angle_beta     90
_cell_angle_gamma    115.151

_space_group_name_H-M_alt    "P 1"
_space_group_IT_number       1

loop_
  _space_group_symop_operation_xyz
  'x, y, z'

loop_
  _atom_site_type_symbol
  _atom_site_label
  _atom_site_symmetry_multiplicity
  _atom_site_fract_x
  _atom_site_fract_y
  _atom_site_fract_z
  _atom_site_occupancy
  Na  Na1       1.0  0.07090  0.92900  0.00000  1.0000
  Na  Na2       1.0  0.89500  0.48800  0.07740  1.0000
  Na  Na3       1.0  0.78400  0.04700  0.16900  1.0000
  Na  Na4       1.0  0.40200  0.15700  0.21000  1.0000
  Na  Na5       1.0  0.59500  0.59500  0.25000  1.0000
  Na  Na6       1.0  0.15700  0.40200  0.29000  1.0000
  Na  Na7       1.0  0.04700  0.78400  0.33100  1.0000
  Na  Na8       1.0  0.48800  0.89500  0.42300  1.0000
  Na  Na9       1.0  0.92900  0.07090  0.50000  1.0000
  Na  Na10      1.0  0.10500  0.51200  0.57700  1.0000
  Na  Na11      1.0  0.21600  0.95300  0.66900  1.0000
  Na  Na12      1.0  0.59800  0.84300  0.71000  1.0000
  Na  Na13      1.0  0.40500  0.40500  0.75000  1.0000
  Na  Na14      1.0  0.84300  0.59800  0.79000  1.0000
  Na  Na15      1.0  0.95300  0.21600  0.83100  1.0000
  Na  Na16      1.0  0.51200  0.10500  0.92300  1.0000
  Tl  Tl1       1.0  0.27300  0.36500  0.02630  1.0000
  Tl  Tl2       1.0  0.33200  0.76600  0.13500  1.0000
  Tl  Tl3       1.0  0.76600  0.33200  0.36500  1.0000
  Tl  Tl4       1.0  0.36500  0.27300  0.47400  1.0000
  Tl  Tl5       1.0  0.72700  0.63500  0.52600  1.0000
  Tl  Tl6       1.0  0.66800  0.23400  0.63500  1.0000
  Tl  Tl7       1.0  0.23400  0.66800  0.86500  1.0000
  Tl  Tl8       1.0  0.63500  0.72700  0.97400  1.0000
