data_image0
_chemical_formula_structural       Br12Cu4Rb8
_chemical_formula_sum              "Br12 Cu4 Rb8"
_cell_length_a       13.3131
_cell_length_b       4.45254
_cell_length_c       13.7331
_cell_angle_alpha    90
_cell_angle_beta     90
_cell_angle_gamma    90

_space_group_name_H-M_alt    "P 1"
_space_group_IT_number       1

loop_
  _space_group_symop_operation_xyz
  'x, y, z'

loop_
  _atom_site_type_symbol
  _atom_site_label
  _atom_site_symmetry_multiplicity
  _atom_site_fract_x
  _atom_site_fract_y
  _atom_site_fract_z
  _atom_site_occupancy
  Br  Br1       1.0  0.13800  0.25000  0.05220  1.0000
  Br  Br2       1.0  0.43500  0.25000  0.13900  1.0000
  Br  Br3       1.0  0.72700  0.75000  0.22100  1.0000
  Br  Br4       1.0  0.22700  0.75000  0.27900  1.0000
  Br  Br5       1.0  0.93500  0.25000  0.36100  1.0000
  Br  Br6       1.0  0.63800  0.25000  0.44800  1.0000
  Br  Br7       1.0  0.36200  0.75000  0.55200  1.0000
  Br  Br8       1.0  0.06520  0.75000  0.63900  1.0000
  Br  Br9       1.0  0.77300  0.25000  0.72100  1.0000
  Br  Br10      1.0  0.27300  0.25000  0.77900  1.0000
  Br  Br11      1.0  0.56500  0.75000  0.86100  1.0000
  Br  Br12      1.0  0.86200  0.75000  0.94800  1.0000
  Cu  Cu1       1.0  0.25500  0.25000  0.19100  1.0000
  Cu  Cu2       1.0  0.75500  0.25000  0.30900  1.0000
  Cu  Cu3       1.0  0.24500  0.75000  0.69100  1.0000
  Cu  Cu4       1.0  0.74500  0.75000  0.80900  1.0000
  Rb  Rb1       1.0  0.67400  0.25000  0.02350  1.0000
  Rb  Rb2       1.0  0.98700  0.75000  0.17500  1.0000
  Rb  Rb3       1.0  0.48700  0.75000  0.32500  1.0000
  Rb  Rb4       1.0  0.17400  0.25000  0.47600  1.0000
  Rb  Rb5       1.0  0.82600  0.75000  0.52400  1.0000
  Rb  Rb6       1.0  0.51300  0.25000  0.67500  1.0000
  Rb  Rb7       1.0  0.01290  0.25000  0.82500  1.0000
  Rb  Rb8       1.0  0.32600  0.75000  0.97600  1.0000
