data_image0
_chemical_formula_structural       Ag4O14P4Pb2
_chemical_formula_sum              "Ag4 O14 P4 Pb2"
_cell_length_a       5.40263
_cell_length_b       6.9623
_cell_length_c       9.96253
_cell_angle_alpha    106.54
_cell_angle_beta     93.6175
_cell_angle_gamma    110.859

_space_group_name_H-M_alt    "P 1"
_space_group_IT_number       1

loop_
  _space_group_symop_operation_xyz
  'x, y, z'

loop_
  _atom_site_type_symbol
  _atom_site_label
  _atom_site_symmetry_multiplicity
  _atom_site_fract_x
  _atom_site_fract_y
  _atom_site_fract_z
  _atom_site_occupancy
  Ag  Ag1       1.0  0.08410  0.76300  0.02550  1.0000
  Ag  Ag2       1.0  0.65900  0.89900  0.19600  1.0000
  Ag  Ag3       1.0  0.34100  0.10100  0.80400  1.0000
  Ag  Ag4       1.0  0.91600  0.23700  0.97500  1.0000
  O   O1        1.0  0.32000  0.15700  0.04740  1.0000
  O   O2        1.0  0.78900  0.46600  0.15200  1.0000
  O   O3        1.0  0.36300  0.53900  0.18700  1.0000
  O   O4        1.0  0.21800  0.92100  0.27700  1.0000
  O   O5        1.0  0.51000  0.31600  0.31500  1.0000
  O   O6        1.0  0.01820  0.21000  0.34300  1.0000
  O   O7        1.0  0.63100  0.79900  0.47500  1.0000
  O   O8        1.0  0.36900  0.20100  0.52500  1.0000
  O   O9        1.0  0.98200  0.79000  0.65700  1.0000
  O   O10       1.0  0.49000  0.68400  0.68500  1.0000
  O   O11       1.0  0.78200  0.07910  0.72300  1.0000
  O   O12       1.0  0.63700  0.46100  0.81300  1.0000
  O   O13       1.0  0.21100  0.53400  0.84800  1.0000
  O   O14       1.0  0.68000  0.84300  0.95300  1.0000
  P   P1        1.0  0.49200  0.37000  0.16600  1.0000
  P   P2        1.0  0.26400  0.15500  0.37000  1.0000
  P   P3        1.0  0.73600  0.84500  0.63000  1.0000
  P   P4        1.0  0.50800  0.63000  0.83400  1.0000
  Pb  Pb1       1.0  0.13700  0.63600  0.37600  1.0000
  Pb  Pb2       1.0  0.86300  0.36400  0.62400  1.0000
