data_image0
_chemical_formula_structural       Br16Ge8
_chemical_formula_sum              "Br16 Ge8"
_cell_length_a       11.8299
_cell_length_b       9.21802
_cell_length_c       7.06496
_cell_angle_alpha    90
_cell_angle_beta     102.154
_cell_angle_gamma    90

_space_group_name_H-M_alt    "P 1"
_space_group_IT_number       1

loop_
  _space_group_symop_operation_xyz
  'x, y, z'

loop_
  _atom_site_type_symbol
  _atom_site_label
  _atom_site_symmetry_multiplicity
  _atom_site_fract_x
  _atom_site_fract_y
  _atom_site_fract_z
  _atom_site_occupancy
  Br  Br1       1.0  0.59700  0.20500  0.05820  1.0000
  Br  Br2       1.0  0.11200  0.83400  0.10300  1.0000
  Br  Br3       1.0  0.14000  0.44300  0.17400  1.0000
  Br  Br4       1.0  0.66300  0.61900  0.23700  1.0000
  Br  Br5       1.0  0.33700  0.11900  0.26300  1.0000
  Br  Br6       1.0  0.86000  0.94300  0.32600  1.0000
  Br  Br7       1.0  0.88800  0.33400  0.39700  1.0000
  Br  Br8       1.0  0.40300  0.70500  0.44200  1.0000
  Br  Br9       1.0  0.59700  0.29500  0.55800  1.0000
  Br  Br10      1.0  0.11200  0.66600  0.60300  1.0000
  Br  Br11      1.0  0.14000  0.05670  0.67400  1.0000
  Br  Br12      1.0  0.66300  0.88100  0.73700  1.0000
  Br  Br13      1.0  0.33700  0.38100  0.76300  1.0000
  Br  Br14      1.0  0.86000  0.55700  0.82600  1.0000
  Br  Br15      1.0  0.88800  0.16600  0.89700  1.0000
  Br  Br16      1.0  0.40300  0.79500  0.94200  1.0000
  Ge  Ge1       1.0  0.45000  0.34400  0.21900  1.0000
  Ge  Ge2       1.0  0.98700  0.62600  0.23000  1.0000
  Ge  Ge3       1.0  0.01260  0.12600  0.27000  1.0000
  Ge  Ge4       1.0  0.55000  0.84400  0.28100  1.0000
  Ge  Ge5       1.0  0.45000  0.15600  0.71900  1.0000
  Ge  Ge6       1.0  0.98700  0.87400  0.73000  1.0000
  Ge  Ge7       1.0  0.01260  0.37400  0.77000  1.0000
  Ge  Ge8       1.0  0.55000  0.65600  0.78100  1.0000
