data_image0
_chemical_formula_structural       B2Ba6O14P2
_chemical_formula_sum              "B2 Ba6 O14 P2"
_cell_length_a       5.50423
_cell_length_b       5.50428
_cell_length_c       14.6746
_cell_angle_alpha    90
_cell_angle_beta     90
_cell_angle_gamma    120

_space_group_name_H-M_alt    "P 1"
_space_group_IT_number       1

loop_
  _space_group_symop_operation_xyz
  'x, y, z'

loop_
  _atom_site_type_symbol
  _atom_site_label
  _atom_site_symmetry_multiplicity
  _atom_site_fract_x
  _atom_site_fract_y
  _atom_site_fract_z
  _atom_site_occupancy
  B   B1        1.0  0.66700  0.33300  0.24200  1.0000
  B   B2        1.0  0.33300  0.66700  0.74200  1.0000
  Ba  Ba1       1.0  0.33300  0.66700  0.09710  1.0000
  Ba  Ba2       1.0  0.00000  0.00000  0.21900  1.0000
  Ba  Ba3       1.0  0.33300  0.66700  0.38200  1.0000
  Ba  Ba4       1.0  0.66700  0.33300  0.59700  1.0000
  Ba  Ba5       1.0  0.00000  0.00000  0.71900  1.0000
  Ba  Ba6       1.0  0.66700  0.33300  0.88200  1.0000
  O   O1        1.0  0.30500  0.15200  0.03330  1.0000
  O   O2        1.0  0.84700  0.15200  0.03330  1.0000
  O   O3        1.0  0.84700  0.69500  0.03330  1.0000
  O   O4        1.0  0.52100  0.47900  0.24200  1.0000
  O   O5        1.0  0.95900  0.47900  0.24200  1.0000
  O   O6        1.0  0.52100  0.04110  0.24200  1.0000
  O   O7        1.0  0.00000  0.00000  0.39100  1.0000
  O   O8        1.0  0.15300  0.30500  0.53300  1.0000
  O   O9        1.0  0.15300  0.84800  0.53300  1.0000
  O   O10       1.0  0.69500  0.84800  0.53300  1.0000
  O   O11       1.0  0.04110  0.52100  0.74200  1.0000
  O   O12       1.0  0.47900  0.52100  0.74200  1.0000
  O   O13       1.0  0.47900  0.95900  0.74200  1.0000
  O   O14       1.0  0.00000  0.00000  0.89100  1.0000
  P   P1        1.0  0.00000  0.00000  0.49600  1.0000
  P   P2        1.0  0.00000  0.00000  0.99600  1.0000
