data_image0
_chemical_formula_structural       Ag4Br12Rb8
_chemical_formula_sum              "Ag4 Br12 Rb8"
_cell_length_a       9.68556
_cell_length_b       4.68555
_cell_length_c       18.8512
_cell_angle_alpha    90
_cell_angle_beta     90
_cell_angle_gamma    90

_space_group_name_H-M_alt    "P 1"
_space_group_IT_number       1

loop_
  _space_group_symop_operation_xyz
  'x, y, z'

loop_
  _atom_site_type_symbol
  _atom_site_label
  _atom_site_symmetry_multiplicity
  _atom_site_fract_x
  _atom_site_fract_y
  _atom_site_fract_z
  _atom_site_occupancy
  Ag  Ag1       1.0  0.12800  0.25000  0.13400  1.0000
  Ag  Ag2       1.0  0.62800  0.25000  0.36600  1.0000
  Ag  Ag3       1.0  0.37200  0.75000  0.63400  1.0000
  Ag  Ag4       1.0  0.87200  0.75000  0.86600  1.0000
  Br  Br1       1.0  0.38000  0.25000  0.07170  1.0000
  Br  Br2       1.0  0.99600  0.75000  0.09890  1.0000
  Br  Br3       1.0  0.68700  0.25000  0.22500  1.0000
  Br  Br4       1.0  0.18700  0.25000  0.27500  1.0000
  Br  Br5       1.0  0.49600  0.75000  0.40100  1.0000
  Br  Br6       1.0  0.88000  0.25000  0.42800  1.0000
  Br  Br7       1.0  0.12000  0.75000  0.57200  1.0000
  Br  Br8       1.0  0.50400  0.25000  0.59900  1.0000
  Br  Br9       1.0  0.81300  0.75000  0.72500  1.0000
  Br  Br10      1.0  0.31300  0.75000  0.77500  1.0000
  Br  Br11      1.0  0.00372  0.25000  0.90100  1.0000
  Br  Br12      1.0  0.62000  0.75000  0.92800  1.0000
  Rb  Rb1       1.0  0.74500  0.25000  0.04230  1.0000
  Rb  Rb2       1.0  0.42200  0.75000  0.21200  1.0000
  Rb  Rb3       1.0  0.92200  0.75000  0.28800  1.0000
  Rb  Rb4       1.0  0.24500  0.25000  0.45800  1.0000
  Rb  Rb5       1.0  0.75500  0.75000  0.54200  1.0000
  Rb  Rb6       1.0  0.07750  0.25000  0.71200  1.0000
  Rb  Rb7       1.0  0.57800  0.25000  0.78800  1.0000
  Rb  Rb8       1.0  0.25500  0.75000  0.95800  1.0000
