data_image0
_chemical_formula_structural       Na4P20
_chemical_formula_sum              "Na4 P20"
_cell_length_a       11.0363
_cell_length_b       6.52759
_cell_length_c       6.97839
_cell_angle_alpha    90
_cell_angle_beta     90
_cell_angle_gamma    90

_space_group_name_H-M_alt    "P 1"
_space_group_IT_number       1

loop_
  _space_group_symop_operation_xyz
  'x, y, z'

loop_
  _atom_site_type_symbol
  _atom_site_label
  _atom_site_symmetry_multiplicity
  _atom_site_fract_x
  _atom_site_fract_y
  _atom_site_fract_z
  _atom_site_occupancy
  Na  Na1       1.0  0.42500  0.25000  0.08760  1.0000
  Na  Na2       1.0  0.92500  0.25000  0.41200  1.0000
  Na  Na3       1.0  0.07540  0.75000  0.58800  1.0000
  Na  Na4       1.0  0.57500  0.75000  0.91200  1.0000
  P   P1        1.0  0.81100  0.25000  0.02240  1.0000
  P   P2        1.0  0.81300  0.75000  0.06420  1.0000
  P   P3        1.0  0.08150  0.01260  0.09560  1.0000
  P   P4        1.0  0.08150  0.48700  0.09560  1.0000
  P   P5        1.0  0.36000  0.75000  0.13200  1.0000
  P   P6        1.0  0.86000  0.75000  0.36800  1.0000
  P   P7        1.0  0.58100  0.01260  0.40400  1.0000
  P   P8        1.0  0.58100  0.48700  0.40400  1.0000
  P   P9        1.0  0.31300  0.75000  0.43600  1.0000
  P   P10       1.0  0.31100  0.25000  0.47800  1.0000
  P   P11       1.0  0.68900  0.75000  0.52200  1.0000
  P   P12       1.0  0.68700  0.25000  0.56400  1.0000
  P   P13       1.0  0.41900  0.51300  0.59600  1.0000
  P   P14       1.0  0.41900  0.98700  0.59600  1.0000
  P   P15       1.0  0.14000  0.25000  0.63200  1.0000
  P   P16       1.0  0.64000  0.25000  0.86800  1.0000
  P   P17       1.0  0.91900  0.51300  0.90400  1.0000
  P   P18       1.0  0.91900  0.98700  0.90400  1.0000
  P   P19       1.0  0.18700  0.25000  0.93600  1.0000
  P   P20       1.0  0.18900  0.75000  0.97800  1.0000
