data_image0
_chemical_formula_structural       Na4O14V4Zn2
_chemical_formula_sum              "Na4 O14 V4 Zn2"
_cell_length_a       8.24417
_cell_length_b       8.24417
_cell_length_c       4.99979
_cell_angle_alpha    90
_cell_angle_beta     90
_cell_angle_gamma    90

_space_group_name_H-M_alt    "P 1"
_space_group_IT_number       1

loop_
  _space_group_symop_operation_xyz
  'x, y, z'

loop_
  _atom_site_type_symbol
  _atom_site_label
  _atom_site_symmetry_multiplicity
  _atom_site_fract_x
  _atom_site_fract_y
  _atom_site_fract_z
  _atom_site_occupancy
  Na  Na1       1.0  0.83700  0.33700  0.49300  1.0000
  Na  Na2       1.0  0.16300  0.66300  0.49300  1.0000
  Na  Na3       1.0  0.33700  0.16300  0.50700  1.0000
  Na  Na4       1.0  0.66300  0.83700  0.50700  1.0000
  O   O1        1.0  0.50000  0.00000  0.20900  1.0000
  O   O2        1.0  0.83100  0.09640  0.21700  1.0000
  O   O3        1.0  0.59600  0.33100  0.21700  1.0000
  O   O4        1.0  0.40400  0.66900  0.21700  1.0000
  O   O5        1.0  0.16900  0.90400  0.21700  1.0000
  O   O6        1.0  0.14900  0.35100  0.25500  1.0000
  O   O7        1.0  0.85100  0.64900  0.25500  1.0000
  O   O8        1.0  0.64900  0.14900  0.74500  1.0000
  O   O9        1.0  0.35100  0.85100  0.74500  1.0000
  O   O10       1.0  0.09640  0.16900  0.78300  1.0000
  O   O11       1.0  0.33100  0.40400  0.78300  1.0000
  O   O12       1.0  0.66900  0.59600  0.78300  1.0000
  O   O13       1.0  0.90400  0.83100  0.78300  1.0000
  O   O14       1.0  0.00000  0.50000  0.79100  1.0000
  V   V1        1.0  0.64600  0.14600  0.07920  1.0000
  V   V2        1.0  0.35400  0.85400  0.07920  1.0000
  V   V3        1.0  0.14600  0.35400  0.92100  1.0000
  V   V4        1.0  0.85400  0.64600  0.92100  1.0000
  Zn  Zn1       1.0  0.00000  0.00000  0.00000  1.0000
  Zn  Zn2       1.0  0.50000  0.50000  0.00000  1.0000
