data_image0
_chemical_formula_structural       O16P4Sr2Zr2
_chemical_formula_sum              "O16 P4 Sr2 Zr2"
_cell_length_a       7.69277
_cell_length_b       7.84135
_cell_length_c       5.12544
_cell_angle_alpha    95.7549
_cell_angle_beta     90.0916
_cell_angle_gamma    92.5914

_space_group_name_H-M_alt    "P 1"
_space_group_IT_number       1

loop_
  _space_group_symop_operation_xyz
  'x, y, z'

loop_
  _atom_site_type_symbol
  _atom_site_label
  _atom_site_symmetry_multiplicity
  _atom_site_fract_x
  _atom_site_fract_y
  _atom_site_fract_z
  _atom_site_occupancy
  O   O1        1.0  0.17300  0.24500  0.05010  1.0000
  O   O2        1.0  0.76900  0.33400  0.07750  1.0000
  O   O3        1.0  0.59700  0.92500  0.19000  1.0000
  O   O4        1.0  0.92100  0.02390  0.22700  1.0000
  O   O5        1.0  0.42000  0.54300  0.26200  1.0000
  O   O6        1.0  0.08320  0.53600  0.30700  1.0000
  O   O7        1.0  0.24500  0.79800  0.40600  1.0000
  O   O8        1.0  0.80800  0.76900  0.43900  1.0000
  O   O9        1.0  0.19200  0.23100  0.56100  1.0000
  O   O10       1.0  0.75500  0.20200  0.59400  1.0000
  O   O11       1.0  0.91700  0.46400  0.69300  1.0000
  O   O12       1.0  0.58000  0.45700  0.73800  1.0000
  O   O13       1.0  0.07910  0.97600  0.77300  1.0000
  O   O14       1.0  0.40300  0.07540  0.81000  1.0000
  O   O15       1.0  0.23100  0.66600  0.92300  1.0000
  O   O16       1.0  0.82700  0.75500  0.95000  1.0000
  P   P1        1.0  0.78500  0.87400  0.19900  1.0000
  P   P2        1.0  0.25500  0.63100  0.21200  1.0000
  P   P3        1.0  0.74500  0.36900  0.78800  1.0000
  P   P4        1.0  0.21500  0.12600  0.80100  1.0000
  Sr  Sr1       1.0  0.47700  0.22800  0.30200  1.0000
  Sr  Sr2       1.0  0.52300  0.77200  0.69800  1.0000
  Zr  Zr1       1.0  0.97300  0.27700  0.34100  1.0000
  Zr  Zr2       1.0  0.02660  0.72300  0.65900  1.0000
