data_image0
_chemical_formula_structural       B4Li4O12Sr4
_chemical_formula_sum              "B4 Li4 O12 Sr4"
_cell_length_a       6.43577
_cell_length_b       6.68306
_cell_length_c       6.85484
_cell_angle_alpha    90
_cell_angle_beta     109.579
_cell_angle_gamma    90

_space_group_name_H-M_alt    "P 1"
_space_group_IT_number       1

loop_
  _space_group_symop_operation_xyz
  'x, y, z'

loop_
  _atom_site_type_symbol
  _atom_site_label
  _atom_site_symmetry_multiplicity
  _atom_site_fract_x
  _atom_site_fract_y
  _atom_site_fract_z
  _atom_site_occupancy
  B   B1        1.0  0.31200  0.63400  0.07380  1.0000
  B   B2        1.0  0.18800  0.13400  0.42600  1.0000
  B   B3        1.0  0.81200  0.86600  0.57400  1.0000
  B   B4        1.0  0.68800  0.36600  0.92600  1.0000
  Li  Li1       1.0  0.10200  0.40700  0.19500  1.0000
  Li  Li2       1.0  0.39800  0.90700  0.30500  1.0000
  Li  Li3       1.0  0.60200  0.09310  0.69500  1.0000
  Li  Li4       1.0  0.89800  0.59300  0.80500  1.0000
  O   O1        1.0  0.39400  0.80100  0.00589  1.0000
  O   O2        1.0  0.80500  0.51200  0.06280  1.0000
  O   O3        1.0  0.15500  0.11000  0.21600  1.0000
  O   O4        1.0  0.34500  0.61000  0.28400  1.0000
  O   O5        1.0  0.69500  0.01190  0.43700  1.0000
  O   O6        1.0  0.10600  0.30100  0.49400  1.0000
  O   O7        1.0  0.89400  0.69900  0.50600  1.0000
  O   O8        1.0  0.30500  0.98800  0.56300  1.0000
  O   O9        1.0  0.65500  0.39000  0.71600  1.0000
  O   O10       1.0  0.84500  0.89000  0.78400  1.0000
  O   O11       1.0  0.19500  0.48800  0.93700  1.0000
  O   O12       1.0  0.60600  0.19900  0.99400  1.0000
  Sr  Sr1       1.0  0.80200  0.87700  0.13500  1.0000
  Sr  Sr2       1.0  0.69800  0.37700  0.36500  1.0000
  Sr  Sr3       1.0  0.30200  0.62300  0.63500  1.0000
  Sr  Sr4       1.0  0.19800  0.12300  0.86500  1.0000
