data_image0
_chemical_formula_structural       Hg19Rb5
_chemical_formula_sum              "Hg19 Rb5"
_cell_length_a       9.8365
_cell_length_b       9.8365
_cell_length_c       9.8365
_cell_angle_alpha    106.868
_cell_angle_beta     114.813
_cell_angle_gamma    106.868

_space_group_name_H-M_alt    "P 1"
_space_group_IT_number       1

loop_
  _space_group_symop_operation_xyz
  'x, y, z'

loop_
  _atom_site_type_symbol
  _atom_site_label
  _atom_site_symmetry_multiplicity
  _atom_site_fract_x
  _atom_site_fract_y
  _atom_site_fract_z
  _atom_site_occupancy
  Hg  Hg1       1.0  0.00000  0.00000  0.00000  1.0000
  Hg  Hg2       1.0  0.29300  0.90600  0.04070  1.0000
  Hg  Hg3       1.0  0.24800  0.59200  0.06670  1.0000
  Hg  Hg4       1.0  0.04070  0.74800  0.13500  1.0000
  Hg  Hg5       1.0  0.65600  0.18100  0.24800  1.0000
  Hg  Hg6       1.0  0.75000  0.50000  0.25000  1.0000
  Hg  Hg7       1.0  0.38700  0.25200  0.29300  1.0000
  Hg  Hg8       1.0  0.52500  0.59200  0.34400  1.0000
  Hg  Hg9       1.0  0.13500  0.09450  0.38700  1.0000
  Hg  Hg10      1.0  0.06670  0.81900  0.47500  1.0000
  Hg  Hg11      1.0  0.93300  0.18100  0.52500  1.0000
  Hg  Hg12      1.0  0.86500  0.90600  0.61300  1.0000
  Hg  Hg13      1.0  0.47500  0.40800  0.65600  1.0000
  Hg  Hg14      1.0  0.61300  0.74800  0.70700  1.0000
  Hg  Hg15      1.0  0.25000  0.50000  0.75000  1.0000
  Hg  Hg16      1.0  0.34400  0.81900  0.75200  1.0000
  Hg  Hg17      1.0  0.95900  0.25200  0.86500  1.0000
  Hg  Hg18      1.0  0.75200  0.40800  0.93300  1.0000
  Hg  Hg19      1.0  0.70700  0.09450  0.95900  1.0000
  Rb  Rb1       1.0  0.67400  0.79400  0.12000  1.0000
  Rb  Rb2       1.0  0.12000  0.44600  0.32600  1.0000
  Rb  Rb3       1.0  0.50000  0.00000  0.50000  1.0000
  Rb  Rb4       1.0  0.88000  0.55400  0.67400  1.0000
  Rb  Rb5       1.0  0.32600  0.20600  0.88000  1.0000
