data_image0
_chemical_formula_structural       Ba2Mn4O14Tb4
_chemical_formula_sum              "Ba2 Mn4 O14 Tb4"
_cell_length_a       5.51002
_cell_length_b       5.5739
_cell_length_c       10.3154
_cell_angle_alpha    105.675
_cell_angle_beta     90.0264
_cell_angle_gamma    89.9024

_space_group_name_H-M_alt    "P 1"
_space_group_IT_number       1

loop_
  _space_group_symop_operation_xyz
  'x, y, z'

loop_
  _atom_site_type_symbol
  _atom_site_label
  _atom_site_symmetry_multiplicity
  _atom_site_fract_x
  _atom_site_fract_y
  _atom_site_fract_z
  _atom_site_occupancy
  Ba  Ba1       1.0  0.74600  0.25900  0.00000  1.0000
  Ba  Ba2       1.0  0.25400  0.74100  0.00000  1.0000
  Mn  Mn1       1.0  0.24500  0.34800  0.20700  1.0000
  Mn  Mn2       1.0  0.75500  0.85900  0.20700  1.0000
  Mn  Mn3       1.0  0.24500  0.14100  0.79300  1.0000
  Mn  Mn4       1.0  0.75500  0.65200  0.79300  1.0000
  O   O1        1.0  0.23800  0.22100  0.00000  1.0000
  O   O2        1.0  0.76200  0.77900  0.00000  1.0000
  O   O3        1.0  0.50000  0.60000  0.20000  1.0000
  O   O4        1.0  0.00000  0.60800  0.21600  1.0000
  O   O5        1.0  0.50000  0.11700  0.23500  1.0000
  O   O6        1.0  0.00000  0.12700  0.25500  1.0000
  O   O7        1.0  0.28000  0.53200  0.42100  1.0000
  O   O8        1.0  0.72000  0.88800  0.42100  1.0000
  O   O9        1.0  0.28000  0.11200  0.57900  1.0000
  O   O10       1.0  0.72000  0.46800  0.57900  1.0000
  O   O11       1.0  0.00000  0.87300  0.74500  1.0000
  O   O12       1.0  0.50000  0.88300  0.76500  1.0000
  O   O13       1.0  0.00000  0.39200  0.78400  1.0000
  O   O14       1.0  0.50000  0.40000  0.80000  1.0000
  Tb  Tb1       1.0  0.73000  0.45900  0.36700  1.0000
  Tb  Tb2       1.0  0.27000  0.90800  0.36700  1.0000
  Tb  Tb3       1.0  0.73000  0.09250  0.63300  1.0000
  Tb  Tb4       1.0  0.27000  0.54100  0.63300  1.0000
