data_image0
_chemical_formula_structural       Ce4In8Pd12
_chemical_formula_sum              "Ce4 In8 Pd12"
_cell_length_a       10.3429
_cell_length_b       4.68035
_cell_length_c       10.0347
_cell_angle_alpha    90
_cell_angle_beta     90
_cell_angle_gamma    90

_space_group_name_H-M_alt    "P 1"
_space_group_IT_number       1

loop_
  _space_group_symop_operation_xyz
  'x, y, z'

loop_
  _atom_site_type_symbol
  _atom_site_label
  _atom_site_symmetry_multiplicity
  _atom_site_fract_x
  _atom_site_fract_y
  _atom_site_fract_z
  _atom_site_occupancy
  Ce  Ce1       1.0  0.23200  0.25000  0.05680  1.0000
  Ce  Ce2       1.0  0.73200  0.25000  0.44300  1.0000
  Ce  Ce3       1.0  0.26800  0.75000  0.55700  1.0000
  Ce  Ce4       1.0  0.76800  0.75000  0.94300  1.0000
  In  In1       1.0  0.48400  0.75000  0.11600  1.0000
  In  In2       1.0  0.89500  0.25000  0.15900  1.0000
  In  In3       1.0  0.39500  0.25000  0.34100  1.0000
  In  In4       1.0  0.98400  0.75000  0.38400  1.0000
  In  In5       1.0  0.01620  0.25000  0.61600  1.0000
  In  In6       1.0  0.60500  0.75000  0.65900  1.0000
  In  In7       1.0  0.10500  0.75000  0.84100  1.0000
  In  In8       1.0  0.51600  0.25000  0.88400  1.0000
  Pd  Pd1       1.0  0.02580  0.75000  0.10700  1.0000
  Pd  Pd2       1.0  0.61900  0.25000  0.14500  1.0000
  Pd  Pd3       1.0  0.75700  0.75000  0.23900  1.0000
  Pd  Pd4       1.0  0.25700  0.75000  0.26100  1.0000
  Pd  Pd5       1.0  0.11900  0.25000  0.35500  1.0000
  Pd  Pd6       1.0  0.52600  0.75000  0.39300  1.0000
  Pd  Pd7       1.0  0.47400  0.25000  0.60700  1.0000
  Pd  Pd8       1.0  0.88100  0.75000  0.64500  1.0000
  Pd  Pd9       1.0  0.74300  0.25000  0.73900  1.0000
  Pd  Pd10      1.0  0.24300  0.25000  0.76100  1.0000
  Pd  Pd11      1.0  0.38100  0.75000  0.85500  1.0000
  Pd  Pd12      1.0  0.97400  0.25000  0.89300  1.0000
