data_image0
_chemical_formula_structural       Cu2Ge2S14Y6
_chemical_formula_sum              "Cu2 Ge2 S14 Y6"
_cell_length_a       9.88672
_cell_length_b       9.88676
_cell_length_c       5.81381
_cell_angle_alpha    90
_cell_angle_beta     90
_cell_angle_gamma    120

_space_group_name_H-M_alt    "P 1"
_space_group_IT_number       1

loop_
  _space_group_symop_operation_xyz
  'x, y, z'

loop_
  _atom_site_type_symbol
  _atom_site_label
  _atom_site_symmetry_multiplicity
  _atom_site_fract_x
  _atom_site_fract_y
  _atom_site_fract_z
  _atom_site_occupancy
  Cu  Cu1       1.0  0.00000  0.00000  0.19500  1.0000
  Cu  Cu2       1.0  0.00000  0.00000  0.69500  1.0000
  Ge  Ge1       1.0  0.33300  0.66700  0.33200  1.0000
  Ge  Ge2       1.0  0.66700  0.33300  0.83200  1.0000
  S   S1        1.0  0.16000  0.25900  0.21400  1.0000
  S   S2        1.0  0.09970  0.84000  0.21400  1.0000
  S   S3        1.0  0.74100  0.90000  0.21400  1.0000
  S   S4        1.0  0.66700  0.33300  0.45300  1.0000
  S   S5        1.0  0.09810  0.52000  0.49500  1.0000
  S   S6        1.0  0.42200  0.90200  0.49500  1.0000
  S   S7        1.0  0.48000  0.57800  0.49500  1.0000
  S   S8        1.0  0.84000  0.74100  0.71400  1.0000
  S   S9        1.0  0.90000  0.16000  0.71400  1.0000
  S   S10       1.0  0.25900  0.09970  0.71400  1.0000
  S   S11       1.0  0.33300  0.66700  0.95300  1.0000
  S   S12       1.0  0.90200  0.48000  0.99500  1.0000
  S   S13       1.0  0.57800  0.09810  0.99500  1.0000
  S   S14       1.0  0.52000  0.42200  0.99500  1.0000
  Y   Y1        1.0  0.35700  0.13400  0.25200  1.0000
  Y   Y2        1.0  0.86600  0.22400  0.25200  1.0000
  Y   Y3        1.0  0.77600  0.64300  0.25200  1.0000
  Y   Y4        1.0  0.64300  0.86600  0.75200  1.0000
  Y   Y5        1.0  0.22400  0.35700  0.75200  1.0000
  Y   Y6        1.0  0.13400  0.77600  0.75200  1.0000
