data_image0
_chemical_formula_structural       O8Pu2Rb4
_chemical_formula_sum              "O8 Pu2 Rb4"
_cell_length_a       7.52099
_cell_length_b       7.52099
_cell_length_c       7.52099
_cell_angle_alpha    119.964
_cell_angle_beta     90.0616
_cell_angle_gamma    119.964

_space_group_name_H-M_alt    "P 1"
_space_group_IT_number       1

loop_
  _space_group_symop_operation_xyz
  'x, y, z'

loop_
  _atom_site_type_symbol
  _atom_site_label
  _atom_site_symmetry_multiplicity
  _atom_site_fract_x
  _atom_site_fract_y
  _atom_site_fract_z
  _atom_site_occupancy
  O   O1        1.0  0.10900  0.22000  0.32900  1.0000
  O   O2        1.0  0.63900  0.28000  0.35900  1.0000
  O   O3        1.0  0.07870  0.72000  0.35900  1.0000
  O   O4        1.0  0.64100  0.72000  0.36100  1.0000
  O   O5        1.0  0.10900  0.78000  0.88900  1.0000
  O   O6        1.0  0.11100  0.22000  0.89100  1.0000
  O   O7        1.0  0.67100  0.78000  0.89100  1.0000
  O   O8        1.0  0.64100  0.28000  0.92100  1.0000
  Pu  Pu1       1.0  0.00000  0.00000  0.00000  1.0000
  Pu  Pu2       1.0  0.75000  0.50000  0.25000  1.0000
  Rb  Rb1       1.0  0.37500  0.75000  0.12500  1.0000
  Rb  Rb2       1.0  0.87500  0.25000  0.62500  1.0000
  Rb  Rb3       1.0  0.37500  0.75000  0.62500  1.0000
  Rb  Rb4       1.0  0.37500  0.25000  0.62500  1.0000
