data_image0
_chemical_formula_structural       In2O8V2
_chemical_formula_sum              "In2 O8 V2"
_cell_length_a       5.12757
_cell_length_b       5.12757
_cell_length_c       6.59954
_cell_angle_alpha    90
_cell_angle_beta     90
_cell_angle_gamma    111.474

_space_group_name_H-M_alt    "P 1"
_space_group_IT_number       1

loop_
  _space_group_symop_operation_xyz
  'x, y, z'

loop_
  _atom_site_type_symbol
  _atom_site_label
  _atom_site_symmetry_multiplicity
  _atom_site_fract_x
  _atom_site_fract_y
  _atom_site_fract_z
  _atom_site_occupancy
  In  In1       1.0  0.00000  0.00000  0.00000  1.0000
  In  In2       1.0  0.00000  0.00000  0.50000  1.0000
  O   O1        1.0  0.25200  0.74800  0.03850  1.0000
  O   O2        1.0  0.22400  0.26200  0.25000  1.0000
  O   O3        1.0  0.73800  0.77600  0.25000  1.0000
  O   O4        1.0  0.25200  0.74800  0.46100  1.0000
  O   O5        1.0  0.74800  0.25200  0.53900  1.0000
  O   O6        1.0  0.26200  0.22400  0.75000  1.0000
  O   O7        1.0  0.77600  0.73800  0.75000  1.0000
  O   O8        1.0  0.74800  0.25200  0.96100  1.0000
  V   V1        1.0  0.36300  0.63700  0.25000  1.0000
  V   V2        1.0  0.63700  0.36300  0.75000  1.0000
