data_image0
_chemical_formula_structural       Ag4I12Rb8
_chemical_formula_sum              "Ag4 I12 Rb8"
_cell_length_a       10.359
_cell_length_b       4.94049
_cell_length_c       20.1874
_cell_angle_alpha    90
_cell_angle_beta     90
_cell_angle_gamma    90

_space_group_name_H-M_alt    "P 1"
_space_group_IT_number       1

loop_
  _space_group_symop_operation_xyz
  'x, y, z'

loop_
  _atom_site_type_symbol
  _atom_site_label
  _atom_site_symmetry_multiplicity
  _atom_site_fract_x
  _atom_site_fract_y
  _atom_site_fract_z
  _atom_site_occupancy
  Ag  Ag1       1.0  0.13500  0.25000  0.13600  1.0000
  Ag  Ag2       1.0  0.63500  0.25000  0.36400  1.0000
  Ag  Ag3       1.0  0.36500  0.75000  0.63600  1.0000
  Ag  Ag4       1.0  0.86500  0.75000  0.86400  1.0000
  I   I1        1.0  0.38100  0.25000  0.07050  1.0000
  I   I2        1.0  0.00262  0.75000  0.10100  1.0000
  I   I3        1.0  0.68900  0.25000  0.22500  1.0000
  I   I4        1.0  0.18900  0.25000  0.27500  1.0000
  I   I5        1.0  0.50300  0.75000  0.39900  1.0000
  I   I6        1.0  0.88100  0.25000  0.42900  1.0000
  I   I7        1.0  0.11900  0.75000  0.57100  1.0000
  I   I8        1.0  0.49700  0.25000  0.60100  1.0000
  I   I9        1.0  0.81100  0.75000  0.72500  1.0000
  I   I10       1.0  0.31100  0.75000  0.77500  1.0000
  I   I11       1.0  0.99700  0.25000  0.89900  1.0000
  I   I12       1.0  0.61900  0.75000  0.92900  1.0000
  Rb  Rb1       1.0  0.75200  0.25000  0.04260  1.0000
  Rb  Rb2       1.0  0.42300  0.75000  0.21100  1.0000
  Rb  Rb3       1.0  0.92300  0.75000  0.28900  1.0000
  Rb  Rb4       1.0  0.25200  0.25000  0.45700  1.0000
  Rb  Rb5       1.0  0.74800  0.75000  0.54300  1.0000
  Rb  Rb6       1.0  0.07700  0.25000  0.71100  1.0000
  Rb  Rb7       1.0  0.57700  0.25000  0.78900  1.0000
  Rb  Rb8       1.0  0.24800  0.75000  0.95700  1.0000
