data_image0
_chemical_formula_structural       Mn2Na4O14P4
_chemical_formula_sum              "Mn2 Na4 O14 P4"
_cell_length_a       5.27875
_cell_length_b       6.52519
_cell_length_c       9.34991
_cell_angle_alpha    109.814
_cell_angle_beta     95.3366
_cell_angle_gamma    106.402

_space_group_name_H-M_alt    "P 1"
_space_group_IT_number       1

loop_
  _space_group_symop_operation_xyz
  'x, y, z'

loop_
  _atom_site_type_symbol
  _atom_site_label
  _atom_site_symmetry_multiplicity
  _atom_site_fract_x
  _atom_site_fract_y
  _atom_site_fract_z
  _atom_site_occupancy
  Mn  Mn1       1.0  0.08470  0.59600  0.36000  1.0000
  Mn  Mn2       1.0  0.91500  0.40400  0.64000  1.0000
  Na  Na1       1.0  0.12500  0.78000  0.03990  1.0000
  Na  Na2       1.0  0.64800  0.86800  0.27300  1.0000
  Na  Na3       1.0  0.35200  0.13200  0.72700  1.0000
  Na  Na4       1.0  0.87500  0.22000  0.96000  1.0000
  O   O1        1.0  0.67600  0.86200  0.03330  1.0000
  O   O2        1.0  0.26600  0.49200  0.16100  1.0000
  O   O3        1.0  0.73400  0.45400  0.17100  1.0000
  O   O4        1.0  0.37800  0.18000  0.24100  1.0000
  O   O5        1.0  0.09650  0.90300  0.32900  1.0000
  O   O6        1.0  0.05680  0.30000  0.41800  1.0000
  O   O7        1.0  0.51200  0.75600  0.47600  1.0000
  O   O8        1.0  0.48800  0.24400  0.52400  1.0000
  O   O9        1.0  0.94300  0.70000  0.58200  1.0000
  O   O10       1.0  0.90400  0.09660  0.67100  1.0000
  O   O11       1.0  0.62200  0.82000  0.75900  1.0000
  O   O12       1.0  0.26600  0.54600  0.82900  1.0000
  O   O13       1.0  0.73400  0.50800  0.83900  1.0000
  O   O14       1.0  0.32400  0.13800  0.96700  1.0000
  P   P1        1.0  0.43000  0.32700  0.12800  1.0000
  P   P2        1.0  0.25400  0.16200  0.38900  1.0000
  P   P3        1.0  0.74600  0.83800  0.61100  1.0000
  P   P4        1.0  0.57000  0.67300  0.87200  1.0000
