data_image0
_chemical_formula_structural       Cu2Se14Si2Y6
_chemical_formula_sum              "Cu2 Se14 Si2 Y6"
_cell_length_a       10.3482
_cell_length_b       10.3481
_cell_length_c       6.02216
_cell_angle_alpha    90
_cell_angle_beta     90
_cell_angle_gamma    119.999

_space_group_name_H-M_alt    "P 1"
_space_group_IT_number       1

loop_
  _space_group_symop_operation_xyz
  'x, y, z'

loop_
  _atom_site_type_symbol
  _atom_site_label
  _atom_site_symmetry_multiplicity
  _atom_site_fract_x
  _atom_site_fract_y
  _atom_site_fract_z
  _atom_site_occupancy
  Cu  Cu1       1.0  0.00000  0.00000  0.47200  1.0000
  Cu  Cu2       1.0  0.00000  0.00000  0.97200  1.0000
  Se  Se1       1.0  0.47900  0.57900  0.17900  1.0000
  Se  Se2       1.0  0.42100  0.90000  0.17900  1.0000
  Se  Se3       1.0  0.10000  0.52100  0.17900  1.0000
  Se  Se4       1.0  0.66700  0.33300  0.21200  1.0000
  Se  Se5       1.0  0.16200  0.26200  0.45200  1.0000
  Se  Se6       1.0  0.73800  0.90100  0.45200  1.0000
  Se  Se7       1.0  0.09940  0.83800  0.45200  1.0000
  Se  Se8       1.0  0.57900  0.10000  0.67900  1.0000
  Se  Se9       1.0  0.52100  0.42100  0.67900  1.0000
  Se  Se10      1.0  0.90000  0.47900  0.67900  1.0000
  Se  Se11      1.0  0.33300  0.66700  0.71200  1.0000
  Se  Se12      1.0  0.26200  0.09940  0.95200  1.0000
  Se  Se13      1.0  0.83800  0.73800  0.95200  1.0000
  Se  Se14      1.0  0.90100  0.16200  0.95200  1.0000
  Si  Si1       1.0  0.33300  0.66700  0.33400  1.0000
  Si  Si2       1.0  0.66700  0.33300  0.83400  1.0000
  Y   Y1        1.0  0.86700  0.22300  0.42300  1.0000
  Y   Y2        1.0  0.77700  0.64400  0.42300  1.0000
  Y   Y3        1.0  0.35600  0.13300  0.42300  1.0000
  Y   Y4        1.0  0.22300  0.35600  0.92300  1.0000
  Y   Y5        1.0  0.13300  0.77700  0.92300  1.0000
  Y   Y6        1.0  0.64400  0.86700  0.92300  1.0000
