data_image0
_chemical_formula_structural       Ag8O12Ti4
_chemical_formula_sum              "Ag8 O12 Ti4"
_cell_length_a       5.02613
_cell_length_b       7.70023
_cell_length_c       9.21673
_cell_angle_alpha    114.691
_cell_angle_beta     100.805
_cell_angle_gamma    90

_space_group_name_H-M_alt    "P 1"
_space_group_IT_number       1

loop_
  _space_group_symop_operation_xyz
  'x, y, z'

loop_
  _atom_site_type_symbol
  _atom_site_label
  _atom_site_symmetry_multiplicity
  _atom_site_fract_x
  _atom_site_fract_y
  _atom_site_fract_z
  _atom_site_occupancy
  Ag  Ag1       1.0  0.06170  0.19600  0.20100  1.0000
  Ag  Ag2       1.0  0.56200  0.00595  0.20100  1.0000
  Ag  Ag3       1.0  0.76900  0.37800  0.49900  1.0000
  Ag  Ag4       1.0  0.26900  0.12100  0.49900  1.0000
  Ag  Ag5       1.0  0.23100  0.62200  0.50100  1.0000
  Ag  Ag6       1.0  0.73100  0.87900  0.50100  1.0000
  Ag  Ag7       1.0  0.93800  0.80400  0.79900  1.0000
  Ag  Ag8       1.0  0.43800  0.99400  0.79900  1.0000
  O   O1        1.0  0.75000  0.23000  0.00000  1.0000
  O   O2        1.0  0.25000  0.42700  0.00000  1.0000
  O   O3        1.0  0.75000  0.57300  0.00000  1.0000
  O   O4        1.0  0.25000  0.77000  0.00000  1.0000
  O   O5        1.0  0.00754  0.94200  0.27500  1.0000
  O   O6        1.0  0.50800  0.33300  0.27500  1.0000
  O   O7        1.0  0.96800  0.56900  0.27500  1.0000
  O   O8        1.0  0.46800  0.70700  0.27500  1.0000
  O   O9        1.0  0.03240  0.43100  0.72500  1.0000
  O   O10       1.0  0.53200  0.29300  0.72500  1.0000
  O   O11       1.0  0.49200  0.66700  0.72500  1.0000
  O   O12       1.0  0.99200  0.05850  0.72500  1.0000
  Ti  Ti1       1.0  0.10700  0.69900  0.15400  1.0000
  Ti  Ti2       1.0  0.60700  0.45600  0.15400  1.0000
  Ti  Ti3       1.0  0.89300  0.30100  0.84600  1.0000
  Ti  Ti4       1.0  0.39300  0.54400  0.84600  1.0000
