data_image0
_chemical_formula_structural       Br12Cu4K8
_chemical_formula_sum              "Br12 Cu4 K8"
_cell_length_a       12.7485
_cell_length_b       4.33586
_cell_length_c       13.3775
_cell_angle_alpha    90
_cell_angle_beta     90
_cell_angle_gamma    90

_space_group_name_H-M_alt    "P 1"
_space_group_IT_number       1

loop_
  _space_group_symop_operation_xyz
  'x, y, z'

loop_
  _atom_site_type_symbol
  _atom_site_label
  _atom_site_symmetry_multiplicity
  _atom_site_fract_x
  _atom_site_fract_y
  _atom_site_fract_z
  _atom_site_occupancy
  Br  Br1       1.0  0.13200  0.25000  0.05410  1.0000
  Br  Br2       1.0  0.43900  0.25000  0.13900  1.0000
  Br  Br3       1.0  0.72500  0.75000  0.20900  1.0000
  Br  Br4       1.0  0.22500  0.75000  0.29100  1.0000
  Br  Br5       1.0  0.93900  0.25000  0.36100  1.0000
  Br  Br6       1.0  0.63200  0.25000  0.44600  1.0000
  Br  Br7       1.0  0.36800  0.75000  0.55400  1.0000
  Br  Br8       1.0  0.06070  0.75000  0.63900  1.0000
  Br  Br9       1.0  0.77500  0.25000  0.70900  1.0000
  Br  Br10      1.0  0.27500  0.25000  0.79100  1.0000
  Br  Br11      1.0  0.56100  0.75000  0.86100  1.0000
  Br  Br12      1.0  0.86800  0.75000  0.94600  1.0000
  Cu  Cu1       1.0  0.25400  0.25000  0.19800  1.0000
  Cu  Cu2       1.0  0.75400  0.25000  0.30200  1.0000
  Cu  Cu3       1.0  0.24600  0.75000  0.69800  1.0000
  Cu  Cu4       1.0  0.74600  0.75000  0.80200  1.0000
  K   K1        1.0  0.67500  0.25000  0.01600  1.0000
  K   K2        1.0  0.98800  0.75000  0.17800  1.0000
  K   K3        1.0  0.48800  0.75000  0.32200  1.0000
  K   K4        1.0  0.17500  0.25000  0.48400  1.0000
  K   K5        1.0  0.82500  0.75000  0.51600  1.0000
  K   K6        1.0  0.51200  0.25000  0.67800  1.0000
  K   K7        1.0  0.01210  0.25000  0.82200  1.0000
  K   K8        1.0  0.32500  0.75000  0.98400  1.0000
