data_image0
_chemical_formula_structural       Ba8N12V4
_chemical_formula_sum              "Ba8 N12 V4"
_cell_length_a       5.88496
_cell_length_b       6.50066
_cell_length_c       12.9945
_cell_angle_alpha    90
_cell_angle_beta     90
_cell_angle_gamma    63.0866

_space_group_name_H-M_alt    "P 1"
_space_group_IT_number       1

loop_
  _space_group_symop_operation_xyz
  'x, y, z'

loop_
  _atom_site_type_symbol
  _atom_site_label
  _atom_site_symmetry_multiplicity
  _atom_site_fract_x
  _atom_site_fract_y
  _atom_site_fract_z
  _atom_site_occupancy
  Ba  Ba1       1.0  0.64100  0.71900  0.07840  1.0000
  Ba  Ba2       1.0  0.94400  0.11200  0.14500  1.0000
  Ba  Ba3       1.0  0.44400  0.11200  0.35500  1.0000
  Ba  Ba4       1.0  0.14100  0.71900  0.42200  1.0000
  Ba  Ba5       1.0  0.85900  0.28100  0.57800  1.0000
  Ba  Ba6       1.0  0.55600  0.88800  0.64500  1.0000
  Ba  Ba7       1.0  0.05600  0.88800  0.85500  1.0000
  Ba  Ba8       1.0  0.35900  0.28100  0.92200  1.0000
  N   N1        1.0  0.16600  0.66900  0.05530  1.0000
  N   N2        1.0  0.40500  0.18900  0.13400  1.0000
  N   N3        1.0  0.47300  0.55400  0.25000  1.0000
  N   N4        1.0  0.97300  0.55400  0.25000  1.0000
  N   N5        1.0  0.90500  0.18900  0.36600  1.0000
  N   N6        1.0  0.66600  0.66900  0.44500  1.0000
  N   N7        1.0  0.33400  0.33100  0.55500  1.0000
  N   N8        1.0  0.09460  0.81100  0.63400  1.0000
  N   N9        1.0  0.02720  0.44600  0.75000  1.0000
  N   N10       1.0  0.52700  0.44600  0.75000  1.0000
  N   N11       1.0  0.59500  0.81100  0.86600  1.0000
  N   N12       1.0  0.83400  0.33100  0.94500  1.0000
  V   V1        1.0  0.25500  0.49000  0.16700  1.0000
  V   V2        1.0  0.75500  0.49000  0.33300  1.0000
  V   V3        1.0  0.24500  0.51000  0.66700  1.0000
  V   V4        1.0  0.74500  0.51000  0.83300  1.0000
