data_image0
_chemical_formula_structural       Na8O12Se4
_chemical_formula_sum              "Na8 O12 Se4"
_cell_length_a       4.84105
_cell_length_b       9.92261
_cell_length_c       6.75094
_cell_angle_alpha    90
_cell_angle_beta     91.4358
_cell_angle_gamma    90

_space_group_name_H-M_alt    "P 1"
_space_group_IT_number       1

loop_
  _space_group_symop_operation_xyz
  'x, y, z'

loop_
  _atom_site_type_symbol
  _atom_site_label
  _atom_site_symmetry_multiplicity
  _atom_site_fract_x
  _atom_site_fract_y
  _atom_site_fract_z
  _atom_site_occupancy
  Na  Na1       1.0  0.75700  0.74900  0.08660  1.0000
  Na  Na2       1.0  0.73800  0.41200  0.15100  1.0000
  Na  Na3       1.0  0.26200  0.91200  0.34900  1.0000
  Na  Na4       1.0  0.24300  0.24900  0.41300  1.0000
  Na  Na5       1.0  0.75700  0.75100  0.58700  1.0000
  Na  Na6       1.0  0.73800  0.08850  0.65100  1.0000
  Na  Na7       1.0  0.26200  0.58800  0.84900  1.0000
  Na  Na8       1.0  0.24300  0.25100  0.91300  1.0000
  O   O1        1.0  0.28000  0.71100  0.14800  1.0000
  O   O2        1.0  0.12900  0.09730  0.15800  1.0000
  O   O3        1.0  0.24700  0.43900  0.17100  1.0000
  O   O4        1.0  0.75300  0.93900  0.32900  1.0000
  O   O5        1.0  0.87100  0.59700  0.34200  1.0000
  O   O6        1.0  0.72000  0.21100  0.35200  1.0000
  O   O7        1.0  0.28000  0.78900  0.64800  1.0000
  O   O8        1.0  0.12900  0.40300  0.65800  1.0000
  O   O9        1.0  0.24700  0.06090  0.67100  1.0000
  O   O10       1.0  0.75300  0.56100  0.82900  1.0000
  O   O11       1.0  0.87100  0.90300  0.84200  1.0000
  O   O12       1.0  0.72000  0.28900  0.85200  1.0000
  Se  Se1       1.0  0.77600  0.08230  0.18200  1.0000
  Se  Se2       1.0  0.22400  0.58200  0.31800  1.0000
  Se  Se3       1.0  0.77600  0.41800  0.68200  1.0000
  Se  Se4       1.0  0.22400  0.91800  0.81800  1.0000
