data_image0
_chemical_formula_structural       In8Na16
_chemical_formula_sum              "In8 Na16"
_cell_length_a       8.12879
_cell_length_b       8.12879
_cell_length_c       11.585
_cell_angle_alpha    90
_cell_angle_beta     90
_cell_angle_gamma    115.114

_space_group_name_H-M_alt    "P 1"
_space_group_IT_number       1

loop_
  _space_group_symop_operation_xyz
  'x, y, z'

loop_
  _atom_site_type_symbol
  _atom_site_label
  _atom_site_symmetry_multiplicity
  _atom_site_fract_x
  _atom_site_fract_y
  _atom_site_fract_z
  _atom_site_occupancy
  In  In1       1.0  0.27200  0.37400  0.02630  1.0000
  In  In2       1.0  0.33100  0.75900  0.12900  1.0000
  In  In3       1.0  0.75900  0.33100  0.37100  1.0000
  In  In4       1.0  0.37400  0.27200  0.47400  1.0000
  In  In5       1.0  0.72800  0.62600  0.52600  1.0000
  In  In6       1.0  0.66900  0.24100  0.62900  1.0000
  In  In7       1.0  0.24100  0.66900  0.87100  1.0000
  In  In8       1.0  0.62600  0.72800  0.97400  1.0000
  Na  Na1       1.0  0.06670  0.93300  0.00000  1.0000
  Na  Na2       1.0  0.89200  0.49600  0.08040  1.0000
  Na  Na3       1.0  0.77900  0.05080  0.16700  1.0000
  Na  Na4       1.0  0.39700  0.15300  0.20800  1.0000
  Na  Na5       1.0  0.59300  0.59300  0.25000  1.0000
  Na  Na6       1.0  0.15300  0.39700  0.29200  1.0000
  Na  Na7       1.0  0.05080  0.77900  0.33300  1.0000
  Na  Na8       1.0  0.49600  0.89200  0.42000  1.0000
  Na  Na9       1.0  0.93300  0.06670  0.50000  1.0000
  Na  Na10      1.0  0.10800  0.50400  0.58000  1.0000
  Na  Na11      1.0  0.22100  0.94900  0.66700  1.0000
  Na  Na12      1.0  0.60300  0.84700  0.70800  1.0000
  Na  Na13      1.0  0.40700  0.40700  0.75000  1.0000
  Na  Na14      1.0  0.84700  0.60300  0.79200  1.0000
  Na  Na15      1.0  0.94900  0.22100  0.83300  1.0000
  Na  Na16      1.0  0.50400  0.10800  0.92000  1.0000
