data_image0
_chemical_formula_structural       Ag4Br12Cs8
_chemical_formula_sum              "Ag4 Br12 Cs8"
_cell_length_a       13.9308
_cell_length_b       4.77298
_cell_length_c       14.4611
_cell_angle_alpha    90
_cell_angle_beta     90
_cell_angle_gamma    90

_space_group_name_H-M_alt    "P 1"
_space_group_IT_number       1

loop_
  _space_group_symop_operation_xyz
  'x, y, z'

loop_
  _atom_site_type_symbol
  _atom_site_label
  _atom_site_symmetry_multiplicity
  _atom_site_fract_x
  _atom_site_fract_y
  _atom_site_fract_z
  _atom_site_occupancy
  Ag  Ag1       1.0  0.25500  0.25000  0.19700  1.0000
  Ag  Ag2       1.0  0.75500  0.25000  0.30300  1.0000
  Ag  Ag3       1.0  0.24500  0.75000  0.69700  1.0000
  Ag  Ag4       1.0  0.74500  0.75000  0.80300  1.0000
  Br  Br1       1.0  0.13600  0.25000  0.04900  1.0000
  Br  Br2       1.0  0.44200  0.25000  0.14100  1.0000
  Br  Br3       1.0  0.72400  0.75000  0.21200  1.0000
  Br  Br4       1.0  0.22400  0.75000  0.28800  1.0000
  Br  Br5       1.0  0.94200  0.25000  0.35900  1.0000
  Br  Br6       1.0  0.63600  0.25000  0.45100  1.0000
  Br  Br7       1.0  0.36400  0.75000  0.54900  1.0000
  Br  Br8       1.0  0.05840  0.75000  0.64100  1.0000
  Br  Br9       1.0  0.77600  0.25000  0.71200  1.0000
  Br  Br10      1.0  0.27600  0.25000  0.78800  1.0000
  Br  Br11      1.0  0.55800  0.75000  0.85900  1.0000
  Br  Br12      1.0  0.86400  0.75000  0.95100  1.0000
  Cs  Cs1       1.0  0.67200  0.25000  0.01840  1.0000
  Cs  Cs2       1.0  0.98900  0.75000  0.17400  1.0000
  Cs  Cs3       1.0  0.48900  0.75000  0.32600  1.0000
  Cs  Cs4       1.0  0.17200  0.25000  0.48200  1.0000
  Cs  Cs5       1.0  0.82800  0.75000  0.51800  1.0000
  Cs  Cs6       1.0  0.51100  0.25000  0.67400  1.0000
  Cs  Cs7       1.0  0.01100  0.25000  0.82600  1.0000
  Cs  Cs8       1.0  0.32800  0.75000  0.98200  1.0000
