data_image0
_chemical_formula_structural       Ba2O16Si4U2
_chemical_formula_sum              "Ba2 O16 Si4 U2"
_cell_length_a       5.72049
_cell_length_b       7.63352
_cell_length_c       8.58777
_cell_angle_alpha    90
_cell_angle_beta     70.5454
_cell_angle_gamma    90

_space_group_name_H-M_alt    "P 1"
_space_group_IT_number       1

loop_
  _space_group_symop_operation_xyz
  'x, y, z'

loop_
  _atom_site_type_symbol
  _atom_site_label
  _atom_site_symmetry_multiplicity
  _atom_site_fract_x
  _atom_site_fract_y
  _atom_site_fract_z
  _atom_site_occupancy
  Ba  Ba1       1.0  0.78700  0.25000  0.42600  1.0000
  Ba  Ba2       1.0  0.21300  0.75000  0.57400  1.0000
  O   O1        1.0  0.50000  0.00000  0.00000  1.0000
  O   O2        1.0  0.50000  0.50000  0.00000  1.0000
  O   O3        1.0  0.99200  0.75000  0.01570  1.0000
  O   O4        1.0  0.39200  0.25000  0.21600  1.0000
  O   O5        1.0  0.12600  0.53600  0.28600  1.0000
  O   O6        1.0  0.58700  0.53600  0.28600  1.0000
  O   O7        1.0  0.12600  0.96400  0.28600  1.0000
  O   O8        1.0  0.58700  0.96400  0.28600  1.0000
  O   O9        1.0  0.76700  0.75000  0.46500  1.0000
  O   O10       1.0  0.23300  0.25000  0.53500  1.0000
  O   O11       1.0  0.41300  0.03630  0.71400  1.0000
  O   O12       1.0  0.87400  0.03630  0.71400  1.0000
  O   O13       1.0  0.41300  0.46400  0.71400  1.0000
  O   O14       1.0  0.87400  0.46400  0.71400  1.0000
  O   O15       1.0  0.60800  0.75000  0.78400  1.0000
  O   O16       1.0  0.00785  0.25000  0.98400  1.0000
  Si  Si1       1.0  0.40300  0.04060  0.19500  1.0000
  Si  Si2       1.0  0.40300  0.45900  0.19500  1.0000
  Si  Si3       1.0  0.59700  0.54100  0.80500  1.0000
  Si  Si4       1.0  0.59700  0.95900  0.80500  1.0000
  U   U1        1.0  0.88000  0.75000  0.24000  1.0000
  U   U2        1.0  0.12000  0.25000  0.76000  1.0000
