data_image0
_chemical_formula_structural       Cd22Eu2
_chemical_formula_sum              "Cd22 Eu2"
_cell_length_a       7.68095
_cell_length_b       9.27674
_cell_length_c       9.27674
_cell_angle_alpha    99.8685
_cell_angle_beta     114.456
_cell_angle_gamma    65.5443

_space_group_name_H-M_alt    "P 1"
_space_group_IT_number       1

loop_
  _space_group_symop_operation_xyz
  'x, y, z'

loop_
  _atom_site_type_symbol
  _atom_site_label
  _atom_site_symmetry_multiplicity
  _atom_site_fract_x
  _atom_site_fract_y
  _atom_site_fract_z
  _atom_site_occupancy
  Cd  Cd1       1.0  0.50000  0.00000  0.00000  1.0000
  Cd  Cd2       1.0  0.90600  0.67800  0.08210  1.0000
  Cd  Cd3       1.0  0.17600  0.32200  0.08210  1.0000
  Cd  Cd4       1.0  0.34400  0.58200  0.17800  1.0000
  Cd  Cd5       1.0  0.83300  0.41800  0.17800  1.0000
  Cd  Cd6       1.0  0.62500  0.25000  0.25000  1.0000
  Cd  Cd7       1.0  0.62500  0.75000  0.25000  1.0000
  Cd  Cd8       1.0  0.90600  0.91800  0.32200  1.0000
  Cd  Cd9       1.0  0.41700  0.08210  0.32200  1.0000
  Cd  Cd10      1.0  0.34400  0.82200  0.41800  1.0000
  Cd  Cd11      1.0  0.07360  0.17800  0.41800  1.0000
  Cd  Cd12      1.0  0.75000  0.50000  0.50000  1.0000
  Cd  Cd13      1.0  0.74900  0.17800  0.58200  1.0000
  Cd  Cd14      1.0  0.83300  0.82200  0.58200  1.0000
  Cd  Cd15      1.0  0.50100  0.08210  0.67800  1.0000
  Cd  Cd16      1.0  0.17600  0.91800  0.67800  1.0000
  Cd  Cd17      1.0  0.12500  0.25000  0.75000  1.0000
  Cd  Cd18      1.0  0.62500  0.75000  0.75000  1.0000
  Cd  Cd19      1.0  0.74900  0.41800  0.82200  1.0000
  Cd  Cd20      1.0  0.07360  0.58200  0.82200  1.0000
  Cd  Cd21      1.0  0.41700  0.67800  0.91800  1.0000
  Cd  Cd22      1.0  0.50100  0.32200  0.91800  1.0000
  Eu  Eu1       1.0  0.00000  0.00000  0.00000  1.0000
  Eu  Eu2       1.0  0.25000  0.50000  0.50000  1.0000
