data_image0
_chemical_formula_structural       Cr4La4O16
_chemical_formula_sum              "Cr4 La4 O16"
_cell_length_a       7.0166
_cell_length_b       7.18259
_cell_length_c       6.67208
_cell_angle_alpha    90
_cell_angle_beta     105.277
_cell_angle_gamma    90

_space_group_name_H-M_alt    "P 1"
_space_group_IT_number       1

loop_
  _space_group_symop_operation_xyz
  'x, y, z'

loop_
  _atom_site_type_symbol
  _atom_site_label
  _atom_site_symmetry_multiplicity
  _atom_site_fract_x
  _atom_site_fract_y
  _atom_site_fract_z
  _atom_site_occupancy
  Cr  Cr1       1.0  0.80200  0.83400  0.11500  1.0000
  Cr  Cr2       1.0  0.69800  0.33400  0.38500  1.0000
  Cr  Cr3       1.0  0.30200  0.66600  0.61500  1.0000
  Cr  Cr4       1.0  0.19800  0.16600  0.88500  1.0000
  La  La1       1.0  0.28000  0.65700  0.10400  1.0000
  La  La2       1.0  0.22000  0.15700  0.39600  1.0000
  La  La3       1.0  0.78000  0.84300  0.60400  1.0000
  La  La4       1.0  0.72000  0.34300  0.89600  1.0000
  O   O1        1.0  0.10600  0.34200  0.00778  1.0000
  O   O2        1.0  0.25900  0.99800  0.07670  1.0000
  O   O3        1.0  0.51100  0.38300  0.16800  1.0000
  O   O4        1.0  0.61800  0.78800  0.23100  1.0000
  O   O5        1.0  0.88200  0.28800  0.26900  1.0000
  O   O6        1.0  0.98900  0.88300  0.33200  1.0000
  O   O7        1.0  0.24100  0.49800  0.42300  1.0000
  O   O8        1.0  0.39400  0.84200  0.49200  1.0000
  O   O9        1.0  0.60600  0.15800  0.50800  1.0000
  O   O10       1.0  0.75900  0.50200  0.57700  1.0000
  O   O11       1.0  0.01120  0.11700  0.66800  1.0000
  O   O12       1.0  0.11800  0.71200  0.73100  1.0000
  O   O13       1.0  0.38200  0.21200  0.76900  1.0000
  O   O14       1.0  0.48900  0.61700  0.83200  1.0000
  O   O15       1.0  0.74100  0.00157  0.92300  1.0000
  O   O16       1.0  0.89400  0.65800  0.99200  1.0000
