data_image0
_chemical_formula_structural       Cd22Sr2
_chemical_formula_sum              "Cd22 Sr2"
_cell_length_a       7.72028
_cell_length_b       9.33314
_cell_length_c       9.33314
_cell_angle_alpha    99.8495
_cell_angle_beta     65.5691
_cell_angle_gamma    114.431

_space_group_name_H-M_alt    "P 1"
_space_group_IT_number       1

loop_
  _space_group_symop_operation_xyz
  'x, y, z'

loop_
  _atom_site_type_symbol
  _atom_site_label
  _atom_site_symmetry_multiplicity
  _atom_site_fract_x
  _atom_site_fract_y
  _atom_site_fract_z
  _atom_site_occupancy
  Cd  Cd1       1.0  0.50000  0.00000  0.00000  1.0000
  Cd  Cd2       1.0  0.82200  0.32400  0.08270  1.0000
  Cd  Cd3       1.0  0.09510  0.67600  0.08270  1.0000
  Cd  Cd4       1.0  0.16900  0.41700  0.17600  1.0000
  Cd  Cd5       1.0  0.65500  0.58300  0.17600  1.0000
  Cd  Cd6       1.0  0.37500  0.75000  0.25000  1.0000
  Cd  Cd7       1.0  0.37500  0.25000  0.25000  1.0000
  Cd  Cd8       1.0  0.09510  0.91700  0.32400  1.0000
  Cd  Cd9       1.0  0.58100  0.08270  0.32400  1.0000
  Cd  Cd10      1.0  0.92800  0.17600  0.41700  1.0000
  Cd  Cd11      1.0  0.65500  0.82400  0.41700  1.0000
  Cd  Cd12      1.0  0.25000  0.50000  0.50000  1.0000
  Cd  Cd13      1.0  0.16900  0.82400  0.58300  1.0000
  Cd  Cd14      1.0  0.24800  0.17600  0.58300  1.0000
  Cd  Cd15      1.0  0.50200  0.08270  0.67600  1.0000
  Cd  Cd16      1.0  0.82200  0.91700  0.67600  1.0000
  Cd  Cd17      1.0  0.87500  0.25000  0.75000  1.0000
  Cd  Cd18      1.0  0.37500  0.75000  0.75000  1.0000
  Cd  Cd19      1.0  0.24800  0.41700  0.82400  1.0000
  Cd  Cd20      1.0  0.92800  0.58300  0.82400  1.0000
  Cd  Cd21      1.0  0.50200  0.32400  0.91700  1.0000
  Cd  Cd22      1.0  0.58100  0.67600  0.91700  1.0000
  Sr  Sr1       1.0  0.00000  0.00000  0.00000  1.0000
  Sr  Sr2       1.0  0.75000  0.50000  0.50000  1.0000
