data_image0
_chemical_formula_structural       Cu2Li4O6
_chemical_formula_sum              "Cu2 Li4 O6"
_cell_length_a       4.95199
_cell_length_b       4.95199
_cell_length_c       4.94421
_cell_angle_alpha    99.6118
_cell_angle_beta     99.6118
_cell_angle_gamma    120.079

_space_group_name_H-M_alt    "P 1"
_space_group_IT_number       1

loop_
  _space_group_symop_operation_xyz
  'x, y, z'

loop_
  _atom_site_type_symbol
  _atom_site_label
  _atom_site_symmetry_multiplicity
  _atom_site_fract_x
  _atom_site_fract_y
  _atom_site_fract_z
  _atom_site_occupancy
  Cu  Cu1       1.0  0.83300  0.16700  0.00000  1.0000
  Cu  Cu2       1.0  0.16700  0.83300  0.00000  1.0000
  Li  Li1       1.0  0.50000  0.50000  0.00000  1.0000
  Li  Li2       1.0  0.00000  0.00000  0.50000  1.0000
  Li  Li3       1.0  0.66300  0.33700  0.50000  1.0000
  Li  Li4       1.0  0.33700  0.66300  0.50000  1.0000
  O   O1        1.0  0.93800  0.58000  0.23000  1.0000
  O   O2        1.0  0.58000  0.93800  0.23000  1.0000
  O   O3        1.0  0.22200  0.22200  0.23600  1.0000
  O   O4        1.0  0.77800  0.77800  0.76400  1.0000
  O   O5        1.0  0.42000  0.06240  0.77000  1.0000
  O   O6        1.0  0.06240  0.42000  0.77000  1.0000
