data_image0
_chemical_formula_structural       Li4O6W2
_chemical_formula_sum              "Li4 O6 W2"
_cell_length_a       4.9757
_cell_length_b       4.9757
_cell_length_c       5.21989
_cell_angle_alpha    99.2989
_cell_angle_beta     99.2989
_cell_angle_gamma    117.596

_space_group_name_H-M_alt    "P 1"
_space_group_IT_number       1

loop_
  _space_group_symop_operation_xyz
  'x, y, z'

loop_
  _atom_site_type_symbol
  _atom_site_label
  _atom_site_symmetry_multiplicity
  _atom_site_fract_x
  _atom_site_fract_y
  _atom_site_fract_z
  _atom_site_occupancy
  Li  Li1       1.0  0.50000  0.50000  0.00000  1.0000
  Li  Li2       1.0  0.00000  0.00000  0.50000  1.0000
  Li  Li3       1.0  0.66200  0.33800  0.50000  1.0000
  Li  Li4       1.0  0.33800  0.66200  0.50000  1.0000
  O   O1        1.0  0.92800  0.57900  0.22800  1.0000
  O   O2        1.0  0.57900  0.92800  0.22800  1.0000
  O   O3        1.0  0.26500  0.26500  0.27200  1.0000
  O   O4        1.0  0.73500  0.73500  0.72800  1.0000
  O   O5        1.0  0.42100  0.07240  0.77200  1.0000
  O   O6        1.0  0.07240  0.42100  0.77200  1.0000
  W   W1        1.0  0.85700  0.14300  0.00000  1.0000
  W   W2        1.0  0.14300  0.85700  0.00000  1.0000
