data_image0
_chemical_formula_structural       Cu4Ho4Pb4Se12
_chemical_formula_sum              "Cu4 Ho4 Pb4 Se12"
_cell_length_a       10.5871
_cell_length_b       4.06162
_cell_length_c       13.5742
_cell_angle_alpha    90
_cell_angle_beta     90
_cell_angle_gamma    90

_space_group_name_H-M_alt    "P 1"
_space_group_IT_number       1

loop_
  _space_group_symop_operation_xyz
  'x, y, z'

loop_
  _atom_site_type_symbol
  _atom_site_label
  _atom_site_symmetry_multiplicity
  _atom_site_fract_x
  _atom_site_fract_y
  _atom_site_fract_z
  _atom_site_occupancy
  Cu  Cu1       1.0  0.25500  0.75000  0.21900  1.0000
  Cu  Cu2       1.0  0.75500  0.75000  0.28100  1.0000
  Cu  Cu3       1.0  0.24500  0.25000  0.71900  1.0000
  Cu  Cu4       1.0  0.74500  0.25000  0.78100  1.0000
  Ho  Ho1       1.0  0.00974  0.25000  0.24300  1.0000
  Ho  Ho2       1.0  0.51000  0.25000  0.25700  1.0000
  Ho  Ho3       1.0  0.49000  0.75000  0.74300  1.0000
  Ho  Ho4       1.0  0.99000  0.75000  0.75700  1.0000
  Pb  Pb1       1.0  0.27000  0.25000  0.00555  1.0000
  Pb  Pb2       1.0  0.77000  0.25000  0.49400  1.0000
  Pb  Pb3       1.0  0.23000  0.75000  0.50600  1.0000
  Pb  Pb4       1.0  0.73000  0.75000  0.99400  1.0000
  Se  Se1       1.0  0.07610  0.75000  0.10600  1.0000
  Se  Se2       1.0  0.44700  0.75000  0.11400  1.0000
  Se  Se3       1.0  0.75600  0.25000  0.17100  1.0000
  Se  Se4       1.0  0.25600  0.25000  0.32900  1.0000
  Se  Se5       1.0  0.94700  0.75000  0.38600  1.0000
  Se  Se6       1.0  0.57600  0.75000  0.39400  1.0000
  Se  Se7       1.0  0.42400  0.25000  0.60600  1.0000
  Se  Se8       1.0  0.05280  0.25000  0.61400  1.0000
  Se  Se9       1.0  0.74400  0.75000  0.67100  1.0000
  Se  Se10      1.0  0.24400  0.75000  0.82900  1.0000
  Se  Se11      1.0  0.55300  0.25000  0.88600  1.0000
  Se  Se12      1.0  0.92400  0.25000  0.89400  1.0000
