data_image0
_chemical_formula_structural       Li4O6Pu2
_chemical_formula_sum              "Li4 O6 Pu2"
_cell_length_a       5.67148
_cell_length_b       5.67148
_cell_length_c       5.24728
_cell_angle_alpha    99.9029
_cell_angle_beta     99.9029
_cell_angle_gamma    120.171

_space_group_name_H-M_alt    "P 1"
_space_group_IT_number       1

loop_
  _space_group_symop_operation_xyz
  'x, y, z'

loop_
  _atom_site_type_symbol
  _atom_site_label
  _atom_site_symmetry_multiplicity
  _atom_site_fract_x
  _atom_site_fract_y
  _atom_site_fract_z
  _atom_site_occupancy
  Li  Li1       1.0  0.50000  0.50000  0.00000  1.0000
  Li  Li2       1.0  0.00000  0.00000  0.50000  1.0000
  Li  Li3       1.0  0.63800  0.36200  0.50000  1.0000
  Li  Li4       1.0  0.36200  0.63800  0.50000  1.0000
  O   O1        1.0  0.91200  0.58000  0.24300  1.0000
  O   O2        1.0  0.58000  0.91200  0.24300  1.0000
  O   O3        1.0  0.24300  0.24300  0.25400  1.0000
  O   O4        1.0  0.75700  0.75700  0.74600  1.0000
  O   O5        1.0  0.42000  0.08770  0.75700  1.0000
  O   O6        1.0  0.08770  0.42000  0.75700  1.0000
  Pu  Pu1       1.0  0.83200  0.16800  0.00000  1.0000
  Pu  Pu2       1.0  0.16800  0.83200  0.00000  1.0000
