data_image0
_chemical_formula_structural       Cu2Gd6Ge2Se14
_chemical_formula_sum              "Cu2 Gd6 Ge2 Se14"
_cell_length_a       10.435
_cell_length_b       10.435
_cell_length_c       6.09035
_cell_angle_alpha    90
_cell_angle_beta     90
_cell_angle_gamma    120

_space_group_name_H-M_alt    "P 1"
_space_group_IT_number       1

loop_
  _space_group_symop_operation_xyz
  'x, y, z'

loop_
  _atom_site_type_symbol
  _atom_site_label
  _atom_site_symmetry_multiplicity
  _atom_site_fract_x
  _atom_site_fract_y
  _atom_site_fract_z
  _atom_site_occupancy
  Cu  Cu1       1.0  0.00000  0.00000  0.21300  1.0000
  Cu  Cu2       1.0  0.00000  0.00000  0.71300  1.0000
  Gd  Gd1       1.0  0.77700  0.13300  0.24900  1.0000
  Gd  Gd2       1.0  0.35500  0.22300  0.24900  1.0000
  Gd  Gd3       1.0  0.86700  0.64500  0.24900  1.0000
  Gd  Gd4       1.0  0.13300  0.35500  0.74900  1.0000
  Gd  Gd5       1.0  0.64500  0.77700  0.74900  1.0000
  Gd  Gd6       1.0  0.22300  0.86700  0.74900  1.0000
  Ge  Ge1       1.0  0.33300  0.66700  0.33300  1.0000
  Ge  Ge2       1.0  0.66700  0.33300  0.83300  1.0000
  Se  Se1       1.0  0.73900  0.83800  0.22400  1.0000
  Se  Se2       1.0  0.16200  0.90100  0.22400  1.0000
  Se  Se3       1.0  0.09910  0.26100  0.22400  1.0000
  Se  Se4       1.0  0.66700  0.33300  0.44500  1.0000
  Se  Se5       1.0  0.09440  0.57700  0.49800  1.0000
  Se  Se6       1.0  0.42300  0.51700  0.49800  1.0000
  Se  Se7       1.0  0.48300  0.90600  0.49800  1.0000
  Se  Se8       1.0  0.83800  0.09910  0.72400  1.0000
  Se  Se9       1.0  0.26100  0.16200  0.72400  1.0000
  Se  Se10      1.0  0.90100  0.73900  0.72400  1.0000
  Se  Se11      1.0  0.33300  0.66700  0.94500  1.0000
  Se  Se12      1.0  0.90600  0.42300  0.99800  1.0000
  Se  Se13      1.0  0.57700  0.48300  0.99800  1.0000
  Se  Se14      1.0  0.51700  0.09440  0.99800  1.0000
