data_image0
_chemical_formula_structural       Cu2Gd6Ge2S14
_chemical_formula_sum              "Cu2 Gd6 Ge2 S14"
_cell_length_a       9.96305
_cell_length_b       9.96333
_cell_length_c       5.79985
_cell_angle_alpha    90
_cell_angle_beta     90
_cell_angle_gamma    120.002

_space_group_name_H-M_alt    "P 1"
_space_group_IT_number       1

loop_
  _space_group_symop_operation_xyz
  'x, y, z'

loop_
  _atom_site_type_symbol
  _atom_site_label
  _atom_site_symmetry_multiplicity
  _atom_site_fract_x
  _atom_site_fract_y
  _atom_site_fract_z
  _atom_site_occupancy
  Cu  Cu1       1.0  0.00000  0.00000  0.20500  1.0000
  Cu  Cu2       1.0  0.00000  0.00000  0.70500  1.0000
  Gd  Gd1       1.0  0.35700  0.13000  0.24900  1.0000
  Gd  Gd2       1.0  0.87000  0.22700  0.24900  1.0000
  Gd  Gd3       1.0  0.77300  0.64300  0.24900  1.0000
  Gd  Gd4       1.0  0.22700  0.35700  0.74900  1.0000
  Gd  Gd5       1.0  0.64300  0.87000  0.74900  1.0000
  Gd  Gd6       1.0  0.13000  0.77300  0.74900  1.0000
  Ge  Ge1       1.0  0.33300  0.66700  0.33200  1.0000
  Ge  Ge2       1.0  0.66700  0.33300  0.83200  1.0000
  S   S1        1.0  0.16200  0.25800  0.22000  1.0000
  S   S2        1.0  0.74200  0.90400  0.22000  1.0000
  S   S3        1.0  0.09580  0.83800  0.22000  1.0000
  S   S4        1.0  0.66700  0.33300  0.45200  1.0000
  S   S5        1.0  0.09970  0.51900  0.49200  1.0000
  S   S6        1.0  0.48100  0.58100  0.49200  1.0000
  S   S7        1.0  0.41900  0.90000  0.49200  1.0000
  S   S8        1.0  0.83800  0.74200  0.72000  1.0000
  S   S9        1.0  0.25800  0.09580  0.72000  1.0000
  S   S10       1.0  0.90400  0.16200  0.72000  1.0000
  S   S11       1.0  0.33300  0.66700  0.95200  1.0000
  S   S12       1.0  0.90000  0.48100  0.99200  1.0000
  S   S13       1.0  0.58100  0.09970  0.99200  1.0000
  S   S14       1.0  0.51900  0.41900  0.99200  1.0000
