data_image0
_chemical_formula_structural       Li4O6Tc2
_chemical_formula_sum              "Li4 O6 Tc2"
_cell_length_a       5.1485
_cell_length_b       5.1485
_cell_length_c       5.09175
_cell_angle_alpha    99.8553
_cell_angle_beta     99.8553
_cell_angle_gamma    119.875

_space_group_name_H-M_alt    "P 1"
_space_group_IT_number       1

loop_
  _space_group_symop_operation_xyz
  'x, y, z'

loop_
  _atom_site_type_symbol
  _atom_site_label
  _atom_site_symmetry_multiplicity
  _atom_site_fract_x
  _atom_site_fract_y
  _atom_site_fract_z
  _atom_site_occupancy
  Li  Li1       1.0  0.50000  0.50000  0.00000  1.0000
  Li  Li2       1.0  0.00000  0.00000  0.50000  1.0000
  Li  Li3       1.0  0.66000  0.34000  0.50000  1.0000
  Li  Li4       1.0  0.34000  0.66000  0.50000  1.0000
  O   O1        1.0  0.92600  0.58000  0.23800  1.0000
  O   O2        1.0  0.58000  0.92600  0.23800  1.0000
  O   O3        1.0  0.23500  0.23500  0.24100  1.0000
  O   O4        1.0  0.76500  0.76500  0.75900  1.0000
  O   O5        1.0  0.42000  0.07390  0.76200  1.0000
  O   O6        1.0  0.07390  0.42000  0.76200  1.0000
  Tc  Tc1       1.0  0.83300  0.16700  0.00000  1.0000
  Tc  Tc2       1.0  0.16700  0.83300  0.00000  1.0000
