data_image0
_chemical_formula_structural       Cu2Ge2Nd6S14
_chemical_formula_sum              "Cu2 Ge2 Nd6 S14"
_cell_length_a       10.1926
_cell_length_b       10.1923
_cell_length_c       5.85666
_cell_angle_alpha    90
_cell_angle_beta     90
_cell_angle_gamma    120

_space_group_name_H-M_alt    "P 1"
_space_group_IT_number       1

loop_
  _space_group_symop_operation_xyz
  'x, y, z'

loop_
  _atom_site_type_symbol
  _atom_site_label
  _atom_site_symmetry_multiplicity
  _atom_site_fract_x
  _atom_site_fract_y
  _atom_site_fract_z
  _atom_site_occupancy
  Cu  Cu1       1.0  0.00000  0.00000  0.21900  1.0000
  Cu  Cu2       1.0  0.00000  0.00000  0.71900  1.0000
  Ge  Ge1       1.0  0.33300  0.66700  0.33200  1.0000
  Ge  Ge2       1.0  0.66700  0.33300  0.83200  1.0000
  Nd  Nd1       1.0  0.35600  0.22800  0.25000  1.0000
  Nd  Nd2       1.0  0.77100  0.12800  0.25000  1.0000
  Nd  Nd3       1.0  0.87200  0.64400  0.25000  1.0000
  Nd  Nd4       1.0  0.64400  0.77200  0.75000  1.0000
  Nd  Nd5       1.0  0.22900  0.87200  0.75000  1.0000
  Nd  Nd6       1.0  0.12800  0.35600  0.75000  1.0000
  S   S1        1.0  0.09130  0.25300  0.23200  1.0000
  S   S2        1.0  0.74700  0.83800  0.23200  1.0000
  S   S3        1.0  0.16200  0.90900  0.23200  1.0000
  S   S4        1.0  0.66700  0.33300  0.45600  1.0000
  S   S5        1.0  0.10300  0.58300  0.48700  1.0000
  S   S6        1.0  0.41700  0.52000  0.48700  1.0000
  S   S7        1.0  0.48000  0.89700  0.48700  1.0000
  S   S8        1.0  0.83800  0.09130  0.73200  1.0000
  S   S9        1.0  0.25300  0.16200  0.73200  1.0000
  S   S10       1.0  0.90900  0.74700  0.73200  1.0000
  S   S11       1.0  0.33300  0.66700  0.95600  1.0000
  S   S12       1.0  0.89700  0.41700  0.98700  1.0000
  S   S13       1.0  0.52000  0.10300  0.98700  1.0000
  S   S14       1.0  0.58300  0.48000  0.98700  1.0000
