data_image0
_chemical_formula_structural       Cu2Er6Ge2S14
_chemical_formula_sum              "Cu2 Er6 Ge2 S14"
_cell_length_a       9.74847
_cell_length_b       9.74855
_cell_length_c       5.8522
_cell_angle_alpha    90
_cell_angle_beta     90
_cell_angle_gamma    120.001

_space_group_name_H-M_alt    "P 1"
_space_group_IT_number       1

loop_
  _space_group_symop_operation_xyz
  'x, y, z'

loop_
  _atom_site_type_symbol
  _atom_site_label
  _atom_site_symmetry_multiplicity
  _atom_site_fract_x
  _atom_site_fract_y
  _atom_site_fract_z
  _atom_site_occupancy
  Cu  Cu1       1.0  0.00000  0.00000  0.17400  1.0000
  Cu  Cu2       1.0  0.00000  0.00000  0.67400  1.0000
  Er  Er1       1.0  0.35800  0.13700  0.25500  1.0000
  Er  Er2       1.0  0.86300  0.22200  0.25500  1.0000
  Er  Er3       1.0  0.77800  0.64200  0.25500  1.0000
  Er  Er4       1.0  0.22200  0.35800  0.75500  1.0000
  Er  Er5       1.0  0.13700  0.77800  0.75500  1.0000
  Er  Er6       1.0  0.64200  0.86300  0.75500  1.0000
  Ge  Ge1       1.0  0.33300  0.66700  0.33500  1.0000
  Ge  Ge2       1.0  0.66700  0.33300  0.83500  1.0000
  S   S1        1.0  0.15800  0.26200  0.20500  1.0000
  S   S2        1.0  0.10400  0.84200  0.20500  1.0000
  S   S3        1.0  0.73800  0.89600  0.20500  1.0000
  S   S4        1.0  0.66700  0.33300  0.45700  1.0000
  S   S5        1.0  0.09600  0.52000  0.49900  1.0000
  S   S6        1.0  0.48000  0.57600  0.49900  1.0000
  S   S7        1.0  0.42400  0.90400  0.49900  1.0000
  S   S8        1.0  0.84200  0.73800  0.70500  1.0000
  S   S9        1.0  0.26200  0.10400  0.70500  1.0000
  S   S10       1.0  0.89600  0.15800  0.70500  1.0000
  S   S11       1.0  0.33300  0.66700  0.95700  1.0000
  S   S12       1.0  0.90400  0.48000  0.99900  1.0000
  S   S13       1.0  0.52000  0.42400  0.99900  1.0000
  S   S14       1.0  0.57600  0.09600  0.99900  1.0000
