data_image0
_chemical_formula_structural       Ce6Cu2Se14Sn2
_chemical_formula_sum              "Ce6 Cu2 Se14 Sn2"
_cell_length_a       10.7788
_cell_length_b       10.7788
_cell_length_c       6.36837
_cell_angle_alpha    90
_cell_angle_beta     90
_cell_angle_gamma    120

_space_group_name_H-M_alt    "P 1"
_space_group_IT_number       1

loop_
  _space_group_symop_operation_xyz
  'x, y, z'

loop_
  _atom_site_type_symbol
  _atom_site_label
  _atom_site_symmetry_multiplicity
  _atom_site_fract_x
  _atom_site_fract_y
  _atom_site_fract_z
  _atom_site_occupancy
  Ce  Ce1       1.0  0.86400  0.22000  0.45300  1.0000
  Ce  Ce2       1.0  0.78000  0.64500  0.45300  1.0000
  Ce  Ce3       1.0  0.35500  0.13600  0.45300  1.0000
  Ce  Ce4       1.0  0.13600  0.78000  0.95300  1.0000
  Ce  Ce5       1.0  0.22000  0.35500  0.95300  1.0000
  Ce  Ce6       1.0  0.64500  0.86400  0.95300  1.0000
  Cu  Cu1       1.0  0.00000  0.00000  0.49600  1.0000
  Cu  Cu2       1.0  0.00000  0.00000  0.99600  1.0000
  Se  Se1       1.0  0.48600  0.57200  0.20400  1.0000
  Se  Se2       1.0  0.42800  0.91400  0.20400  1.0000
  Se  Se3       1.0  0.08620  0.51400  0.20400  1.0000
  Se  Se4       1.0  0.66700  0.33300  0.27100  1.0000
  Se  Se5       1.0  0.15600  0.25500  0.48100  1.0000
  Se  Se6       1.0  0.09890  0.84400  0.48100  1.0000
  Se  Se7       1.0  0.74500  0.90100  0.48100  1.0000
  Se  Se8       1.0  0.51400  0.42800  0.70400  1.0000
  Se  Se9       1.0  0.57200  0.08610  0.70400  1.0000
  Se  Se10      1.0  0.91400  0.48600  0.70400  1.0000
  Se  Se11      1.0  0.33300  0.66700  0.77100  1.0000
  Se  Se12      1.0  0.90100  0.15600  0.98100  1.0000
  Se  Se13      1.0  0.25500  0.09900  0.98100  1.0000
  Se  Se14      1.0  0.84400  0.74500  0.98100  1.0000
  Sn  Sn1       1.0  0.33300  0.66700  0.37500  1.0000
  Sn  Sn2       1.0  0.66700  0.33300  0.87500  1.0000
