data_image0
_chemical_formula_structural       Cu2Ge2S14Sm6
_chemical_formula_sum              "Cu2 Ge2 S14 Sm6"
_cell_length_a       10.0651
_cell_length_b       10.0653
_cell_length_c       5.83832
_cell_angle_alpha    90
_cell_angle_beta     90
_cell_angle_gamma    120.001

_space_group_name_H-M_alt    "P 1"
_space_group_IT_number       1

loop_
  _space_group_symop_operation_xyz
  'x, y, z'

loop_
  _atom_site_type_symbol
  _atom_site_label
  _atom_site_symmetry_multiplicity
  _atom_site_fract_x
  _atom_site_fract_y
  _atom_site_fract_z
  _atom_site_occupancy
  Cu  Cu1       1.0  0.00000  0.00000  0.20000  1.0000
  Cu  Cu2       1.0  0.00000  0.00000  0.70000  1.0000
  Ge  Ge1       1.0  0.33300  0.66700  0.32700  1.0000
  Ge  Ge2       1.0  0.66700  0.33300  0.82700  1.0000
  S   S1        1.0  0.16100  0.25600  0.21800  1.0000
  S   S2        1.0  0.74400  0.90500  0.21800  1.0000
  S   S3        1.0  0.09480  0.83900  0.21800  1.0000
  S   S4        1.0  0.66700  0.33300  0.45000  1.0000
  S   S5        1.0  0.41900  0.89900  0.48500  1.0000
  S   S6        1.0  0.48000  0.58100  0.48500  1.0000
  S   S7        1.0  0.10100  0.52000  0.48500  1.0000
  S   S8        1.0  0.83900  0.74400  0.71800  1.0000
  S   S9        1.0  0.25600  0.09480  0.71800  1.0000
  S   S10       1.0  0.90500  0.16100  0.71800  1.0000
  S   S11       1.0  0.33300  0.66700  0.95000  1.0000
  S   S12       1.0  0.58100  0.10100  0.98500  1.0000
  S   S13       1.0  0.52000  0.41900  0.98500  1.0000
  S   S14       1.0  0.89900  0.48000  0.98500  1.0000
  Sm  Sm1       1.0  0.77300  0.64300  0.24500  1.0000
  Sm  Sm2       1.0  0.35700  0.13000  0.24500  1.0000
  Sm  Sm3       1.0  0.87000  0.22700  0.24500  1.0000
  Sm  Sm4       1.0  0.22700  0.35700  0.74500  1.0000
  Sm  Sm5       1.0  0.64300  0.87000  0.74500  1.0000
  Sm  Sm6       1.0  0.13000  0.77300  0.74500  1.0000
