data_image0
_chemical_formula_structural       Li4O6Pt2
_chemical_formula_sum              "Li4 O6 Pt2"
_cell_length_a       5.06346
_cell_length_b       5.19807
_cell_length_c       5.19807
_cell_angle_alpha    119.915
_cell_angle_beta     99.9072
_cell_angle_gamma    99.9072

_space_group_name_H-M_alt    "P 1"
_space_group_IT_number       1

loop_
  _space_group_symop_operation_xyz
  'x, y, z'

loop_
  _atom_site_type_symbol
  _atom_site_label
  _atom_site_symmetry_multiplicity
  _atom_site_fract_x
  _atom_site_fract_y
  _atom_site_fract_z
  _atom_site_occupancy
  Li  Li1       1.0  0.00000  0.00000  0.00000  1.0000
  Li  Li2       1.0  0.50000  0.83700  0.16300  1.0000
  Li  Li3       1.0  0.50000  0.50000  0.50000  1.0000
  Li  Li4       1.0  0.50000  0.16300  0.83700  1.0000
  O   O1        1.0  0.23700  0.42400  0.07870  1.0000
  O   O2        1.0  0.76000  0.26500  0.26500  1.0000
  O   O3        1.0  0.23700  0.07870  0.42400  1.0000
  O   O4        1.0  0.76300  0.92100  0.57600  1.0000
  O   O5        1.0  0.24000  0.73500  0.73500  1.0000
  O   O6        1.0  0.76300  0.57600  0.92100  1.0000
  Pt  Pt1       1.0  0.00000  0.66700  0.33300  1.0000
  Pt  Pt2       1.0  0.00000  0.33300  0.66700  1.0000
