data_image0
_chemical_formula_structural       Cu2Ge2Pr6S14
_chemical_formula_sum              "Cu2 Ge2 Pr6 S14"
_cell_length_a       10.2539
_cell_length_b       10.2536
_cell_length_c       5.88094
_cell_angle_alpha    90
_cell_angle_beta     90
_cell_angle_gamma    120

_space_group_name_H-M_alt    "P 1"
_space_group_IT_number       1

loop_
  _space_group_symop_operation_xyz
  'x, y, z'

loop_
  _atom_site_type_symbol
  _atom_site_label
  _atom_site_symmetry_multiplicity
  _atom_site_fract_x
  _atom_site_fract_y
  _atom_site_fract_z
  _atom_site_occupancy
  Cu  Cu1       1.0  0.00000  0.00000  0.22200  1.0000
  Cu  Cu2       1.0  0.00000  0.00000  0.72200  1.0000
  Ge  Ge1       1.0  0.33300  0.66700  0.33200  1.0000
  Ge  Ge2       1.0  0.66700  0.33300  0.83200  1.0000
  Pr  Pr1       1.0  0.35600  0.22900  0.25100  1.0000
  Pr  Pr2       1.0  0.77100  0.12700  0.25100  1.0000
  Pr  Pr3       1.0  0.87300  0.64400  0.25100  1.0000
  Pr  Pr4       1.0  0.64400  0.77100  0.75100  1.0000
  Pr  Pr5       1.0  0.22900  0.87300  0.75100  1.0000
  Pr  Pr6       1.0  0.12700  0.35600  0.75100  1.0000
  S   S1        1.0  0.09030  0.25200  0.23300  1.0000
  S   S2        1.0  0.74800  0.83800  0.23300  1.0000
  S   S3        1.0  0.16200  0.91000  0.23300  1.0000
  S   S4        1.0  0.66700  0.33300  0.45800  1.0000
  S   S5        1.0  0.10500  0.58400  0.48600  1.0000
  S   S6        1.0  0.41600  0.52100  0.48600  1.0000
  S   S7        1.0  0.47900  0.89500  0.48600  1.0000
  S   S8        1.0  0.83800  0.09030  0.73300  1.0000
  S   S9        1.0  0.25200  0.16200  0.73300  1.0000
  S   S10       1.0  0.91000  0.74800  0.73300  1.0000
  S   S11       1.0  0.33300  0.66700  0.95800  1.0000
  S   S12       1.0  0.89500  0.41600  0.98600  1.0000
  S   S13       1.0  0.58400  0.47900  0.98600  1.0000
  S   S14       1.0  0.52100  0.10500  0.98600  1.0000
