data_image0
_chemical_formula_structural       Cu4Dy4Pb4Se12
_chemical_formula_sum              "Cu4 Dy4 Pb4 Se12"
_cell_length_a       10.6093
_cell_length_b       4.07193
_cell_length_c       13.6167
_cell_angle_alpha    90
_cell_angle_beta     90
_cell_angle_gamma    90

_space_group_name_H-M_alt    "P 1"
_space_group_IT_number       1

loop_
  _space_group_symop_operation_xyz
  'x, y, z'

loop_
  _atom_site_type_symbol
  _atom_site_label
  _atom_site_symmetry_multiplicity
  _atom_site_fract_x
  _atom_site_fract_y
  _atom_site_fract_z
  _atom_site_occupancy
  Cu  Cu1       1.0  0.26000  0.75000  0.22100  1.0000
  Cu  Cu2       1.0  0.76000  0.75000  0.27900  1.0000
  Cu  Cu3       1.0  0.24000  0.25000  0.72100  1.0000
  Cu  Cu4       1.0  0.74000  0.25000  0.77900  1.0000
  Dy  Dy1       1.0  0.01580  0.25000  0.24300  1.0000
  Dy  Dy2       1.0  0.51600  0.25000  0.25700  1.0000
  Dy  Dy3       1.0  0.48400  0.75000  0.74300  1.0000
  Dy  Dy4       1.0  0.98400  0.75000  0.75700  1.0000
  Pb  Pb1       1.0  0.27500  0.25000  0.00667  1.0000
  Pb  Pb2       1.0  0.77500  0.25000  0.49300  1.0000
  Pb  Pb3       1.0  0.22500  0.75000  0.50700  1.0000
  Pb  Pb4       1.0  0.72500  0.75000  0.99300  1.0000
  Se  Se1       1.0  0.08350  0.75000  0.10600  1.0000
  Se  Se2       1.0  0.45100  0.75000  0.11400  1.0000
  Se  Se3       1.0  0.76200  0.25000  0.17000  1.0000
  Se  Se4       1.0  0.26200  0.25000  0.33000  1.0000
  Se  Se5       1.0  0.95100  0.75000  0.38600  1.0000
  Se  Se6       1.0  0.58300  0.75000  0.39400  1.0000
  Se  Se7       1.0  0.41700  0.25000  0.60600  1.0000
  Se  Se8       1.0  0.04910  0.25000  0.61400  1.0000
  Se  Se9       1.0  0.73800  0.75000  0.67000  1.0000
  Se  Se10      1.0  0.23800  0.75000  0.83000  1.0000
  Se  Se11      1.0  0.54900  0.25000  0.88600  1.0000
  Se  Se12      1.0  0.91700  0.25000  0.89400  1.0000
