data_image0
_chemical_formula_structural       Li4O6Yb2
_chemical_formula_sum              "Li4 O6 Yb2"
_cell_length_a       5.87926
_cell_length_b       5.87926
_cell_length_c       4.25573
_cell_angle_alpha    101.41
_cell_angle_beta     101.41
_cell_angle_gamma    118.787

_space_group_name_H-M_alt    "P 1"
_space_group_IT_number       1

loop_
  _space_group_symop_operation_xyz
  'x, y, z'

loop_
  _atom_site_type_symbol
  _atom_site_label
  _atom_site_symmetry_multiplicity
  _atom_site_fract_x
  _atom_site_fract_y
  _atom_site_fract_z
  _atom_site_occupancy
  Li  Li1       1.0  0.50000  0.50000  0.00000  1.0000
  Li  Li2       1.0  0.61700  0.38300  0.50000  1.0000
  Li  Li3       1.0  0.38300  0.61700  0.50000  1.0000
  Li  Li4       1.0  0.00000  0.00000  0.50000  1.0000
  O   O1        1.0  0.26100  0.26100  0.13500  1.0000
  O   O2        1.0  0.94800  0.56300  0.38300  1.0000
  O   O3        1.0  0.56300  0.94800  0.38300  1.0000
  O   O4        1.0  0.43700  0.05210  0.61700  1.0000
  O   O5        1.0  0.05210  0.43700  0.61700  1.0000
  O   O6        1.0  0.73900  0.73900  0.86500  1.0000
  Yb  Yb1       1.0  0.83300  0.16700  0.00000  1.0000
  Yb  Yb2       1.0  0.16700  0.83300  0.00000  1.0000
