data_image0
_chemical_formula_structural       Li4O6Sb2
_chemical_formula_sum              "Li4 O6 Sb2"
_cell_length_a       5.44926
_cell_length_b       5.44926
_cell_length_c       5.27694
_cell_angle_alpha    100.157
_cell_angle_beta     100.157
_cell_angle_gamma    119.471

_space_group_name_H-M_alt    "P 1"
_space_group_IT_number       1

loop_
  _space_group_symop_operation_xyz
  'x, y, z'

loop_
  _atom_site_type_symbol
  _atom_site_label
  _atom_site_symmetry_multiplicity
  _atom_site_fract_x
  _atom_site_fract_y
  _atom_site_fract_z
  _atom_site_occupancy
  Li  Li1       1.0  0.50000  0.50000  0.00000  1.0000
  Li  Li2       1.0  0.00000  0.00000  0.50000  1.0000
  Li  Li3       1.0  0.65300  0.34700  0.50000  1.0000
  Li  Li4       1.0  0.34700  0.65300  0.50000  1.0000
  O   O1        1.0  0.92600  0.57700  0.23400  1.0000
  O   O2        1.0  0.57700  0.92600  0.23400  1.0000
  O   O3        1.0  0.24300  0.24300  0.25300  1.0000
  O   O4        1.0  0.75700  0.75700  0.74700  1.0000
  O   O5        1.0  0.42300  0.07420  0.76600  1.0000
  O   O6        1.0  0.07420  0.42300  0.76600  1.0000
  Sb  Sb1       1.0  0.83400  0.16600  0.00000  1.0000
  Sb  Sb2       1.0  0.16600  0.83400  0.00000  1.0000
