data_image0
_chemical_formula_structural       Li4Mg2O6
_chemical_formula_sum              "Li4 Mg2 O6"
_cell_length_a       5.12367
_cell_length_b       5.12367
_cell_length_c       4.86502
_cell_angle_alpha    99.8768
_cell_angle_beta     99.8768
_cell_angle_gamma    119.693

_space_group_name_H-M_alt    "P 1"
_space_group_IT_number       1

loop_
  _space_group_symop_operation_xyz
  'x, y, z'

loop_
  _atom_site_type_symbol
  _atom_site_label
  _atom_site_symmetry_multiplicity
  _atom_site_fract_x
  _atom_site_fract_y
  _atom_site_fract_z
  _atom_site_occupancy
  Li  Li1       1.0  0.50000  0.50000  0.00000  1.0000
  Li  Li2       1.0  0.00000  0.00000  0.50000  1.0000
  Li  Li3       1.0  0.65600  0.34400  0.50000  1.0000
  Li  Li4       1.0  0.34400  0.65600  0.50000  1.0000
  Mg  Mg1       1.0  0.83200  0.16800  0.00000  1.0000
  Mg  Mg2       1.0  0.16800  0.83200  0.00000  1.0000
  O   O1        1.0  0.24500  0.24500  0.23800  1.0000
  O   O2        1.0  0.91700  0.58200  0.24800  1.0000
  O   O3        1.0  0.58200  0.91700  0.24800  1.0000
  O   O4        1.0  0.41800  0.08280  0.75200  1.0000
  O   O5        1.0  0.08280  0.41800  0.75200  1.0000
  O   O6        1.0  0.75500  0.75500  0.76200  1.0000
