data_image0
_chemical_formula_structural       Ga8Pt16
_chemical_formula_sum              "Ga8 Pt16"
_cell_length_a       16.676
_cell_length_b       3.96126
_cell_length_c       5.56666
_cell_angle_alpha    90
_cell_angle_beta     90
_cell_angle_gamma    90

_space_group_name_H-M_alt    "P 1"
_space_group_IT_number       1

loop_
  _space_group_symop_operation_xyz
  'x, y, z'

loop_
  _atom_site_type_symbol
  _atom_site_label
  _atom_site_symmetry_multiplicity
  _atom_site_fract_x
  _atom_site_fract_y
  _atom_site_fract_z
  _atom_site_occupancy
  Ga  Ga1       1.0  0.00000  0.50000  0.00000  1.0000
  Ga  Ga2       1.0  0.50000  0.50000  0.00000  1.0000
  Ga  Ga3       1.0  0.75000  0.00000  0.20800  1.0000
  Ga  Ga4       1.0  0.09290  0.00000  0.31400  1.0000
  Ga  Ga5       1.0  0.40700  0.00000  0.31400  1.0000
  Ga  Ga6       1.0  0.59300  0.00000  0.68600  1.0000
  Ga  Ga7       1.0  0.90700  0.00000  0.68600  1.0000
  Ga  Ga8       1.0  0.25000  0.00000  0.79200  1.0000
  Pt  Pt1       1.0  0.15600  0.50000  0.04970  1.0000
  Pt  Pt2       1.0  0.34400  0.50000  0.04970  1.0000
  Pt  Pt3       1.0  0.56900  0.00000  0.20600  1.0000
  Pt  Pt4       1.0  0.93100  0.00000  0.20600  1.0000
  Pt  Pt5       1.0  0.25000  0.00000  0.26700  1.0000
  Pt  Pt6       1.0  0.66800  0.50000  0.44400  1.0000
  Pt  Pt7       1.0  0.83200  0.50000  0.44400  1.0000
  Pt  Pt8       1.0  0.00000  0.50000  0.50000  1.0000
  Pt  Pt9       1.0  0.50000  0.50000  0.50000  1.0000
  Pt  Pt10      1.0  0.16800  0.50000  0.55600  1.0000
  Pt  Pt11      1.0  0.33200  0.50000  0.55600  1.0000
  Pt  Pt12      1.0  0.75000  0.00000  0.73300  1.0000
  Pt  Pt13      1.0  0.06920  0.00000  0.79400  1.0000
  Pt  Pt14      1.0  0.43100  0.00000  0.79400  1.0000
  Pt  Pt15      1.0  0.65600  0.50000  0.95000  1.0000
  Pt  Pt16      1.0  0.84400  0.50000  0.95000  1.0000
