data_image0
_chemical_formula_structural       Cu6Pb3S12Si3
_chemical_formula_sum              "Cu6 Pb3 S12 Si3"
_cell_length_a       6.06874
_cell_length_b       6.06874
_cell_length_c       15.1987
_cell_angle_alpha    90
_cell_angle_beta     90
_cell_angle_gamma    120

_space_group_name_H-M_alt    "P 1"
_space_group_IT_number       1

loop_
  _space_group_symop_operation_xyz
  'x, y, z'

loop_
  _atom_site_type_symbol
  _atom_site_label
  _atom_site_symmetry_multiplicity
  _atom_site_fract_x
  _atom_site_fract_y
  _atom_site_fract_z
  _atom_site_occupancy
  Cu  Cu1       1.0  0.91100  0.57100  0.07670  1.0000
  Cu  Cu2       1.0  0.34000  0.43000  0.25700  1.0000
  Cu  Cu3       1.0  0.66000  0.08950  0.41000  1.0000
  Cu  Cu4       1.0  0.08960  0.66000  0.59000  1.0000
  Cu  Cu5       1.0  0.42900  0.34000  0.74300  1.0000
  Cu  Cu6       1.0  0.57000  0.91000  0.92300  1.0000
  Pb  Pb1       1.0  0.53000  0.00011  0.16700  1.0000
  Pb  Pb2       1.0  0.47000  0.47000  0.50000  1.0000
  Pb  Pb3       1.0  1.00000  0.53000  0.83300  1.0000
  S   S1        1.0  0.90300  0.22900  0.00221  1.0000
  S   S2        1.0  0.50700  0.48200  0.11200  1.0000
  S   S3        1.0  0.02510  0.51800  0.22200  1.0000
  S   S4        1.0  0.67300  0.77100  0.33100  1.0000
  S   S5        1.0  0.32700  0.09730  0.33600  1.0000
  S   S6        1.0  0.97500  0.49300  0.44500  1.0000
  S   S7        1.0  0.49300  0.97500  0.55500  1.0000
  S   S8        1.0  0.09730  0.32700  0.66400  1.0000
  S   S9        1.0  0.77100  0.67300  0.66900  1.0000
  S   S10       1.0  0.51800  0.02510  0.77800  1.0000
  S   S11       1.0  0.48200  0.50700  0.88800  1.0000
  S   S12       1.0  0.22900  0.90300  0.99800  1.0000
  Si  Si1       1.0  0.27900  0.27900  0.00000  1.0000
  Si  Si2       1.0  0.00000  0.72100  0.33300  1.0000
  Si  Si3       1.0  0.72100  0.00000  0.66700  1.0000
