data_image0
_chemical_formula_structural       Li8O12Sn4
_chemical_formula_sum              "Li8 O12 Sn4"
_cell_length_a       5.29237
_cell_length_b       5.30038
_cell_length_c       9.94604
_cell_angle_alpha    95.1427
_cell_angle_beta     100.343
_cell_angle_gamma    60.05

_space_group_name_H-M_alt    "P 1"
_space_group_IT_number       1

loop_
  _space_group_symop_operation_xyz
  'x, y, z'

loop_
  _atom_site_type_symbol
  _atom_site_label
  _atom_site_symmetry_multiplicity
  _atom_site_fract_x
  _atom_site_fract_y
  _atom_site_fract_z
  _atom_site_occupancy
  Li  Li1       1.0  0.00000  0.50000  1.00000  1.0000
  Li  Li2       1.0  0.68600  0.15500  0.00068  1.0000
  Li  Li3       1.0  0.08440  0.83100  0.25000  1.0000
  Li  Li4       1.0  0.15900  0.15500  0.49900  1.0000
  Li  Li5       1.0  0.50000  0.50000  0.50000  1.0000
  Li  Li6       1.0  0.84100  0.84500  0.50100  1.0000
  Li  Li7       1.0  0.91600  0.16900  0.75000  1.0000
  Li  Li8       1.0  0.31400  0.84500  0.99900  1.0000
  O   O1        1.0  0.04240  0.18000  0.12900  1.0000
  O   O2        1.0  0.69600  0.83300  0.13100  1.0000
  O   O3        1.0  0.39200  0.48400  0.13100  1.0000
  O   O4        1.0  0.12400  0.48400  0.36900  1.0000
  O   O5        1.0  0.47100  0.83300  0.36900  1.0000
  O   O6        1.0  0.77700  0.18000  0.37100  1.0000
  O   O7        1.0  0.22300  0.82000  0.62900  1.0000
  O   O8        1.0  0.52900  0.16700  0.63100  1.0000
  O   O9        1.0  0.87600  0.51600  0.63100  1.0000
  O   O10       1.0  0.60800  0.51600  0.86900  1.0000
  O   O11       1.0  0.30400  0.16700  0.86900  1.0000
  O   O12       1.0  0.95800  0.82000  0.87100  1.0000
  Sn  Sn1       1.0  0.41800  0.16500  0.25000  1.0000
  Sn  Sn2       1.0  0.75000  0.50000  0.25000  1.0000
  Sn  Sn3       1.0  0.25000  0.50000  0.75000  1.0000
  Sn  Sn4       1.0  0.58200  0.83500  0.75000  1.0000
