data_image0
_chemical_formula_structural       Cd2Li4O6
_chemical_formula_sum              "Cd2 Li4 O6"
_cell_length_a       5.3058
_cell_length_b       5.3058
_cell_length_c       5.20152
_cell_angle_alpha    99.8088
_cell_angle_beta     99.8088
_cell_angle_gamma    119.994

_space_group_name_H-M_alt    "P 1"
_space_group_IT_number       1

loop_
  _space_group_symop_operation_xyz
  'x, y, z'

loop_
  _atom_site_type_symbol
  _atom_site_label
  _atom_site_symmetry_multiplicity
  _atom_site_fract_x
  _atom_site_fract_y
  _atom_site_fract_z
  _atom_site_occupancy
  Cd  Cd1       1.0  0.83400  0.16600  0.00000  1.0000
  Cd  Cd2       1.0  0.16600  0.83400  0.00000  1.0000
  Li  Li1       1.0  0.50000  0.50000  0.00000  1.0000
  Li  Li2       1.0  0.00000  0.00000  0.50000  1.0000
  Li  Li3       1.0  0.66800  0.33200  0.50000  1.0000
  Li  Li4       1.0  0.33200  0.66800  0.50000  1.0000
  O   O1        1.0  0.91500  0.58900  0.25900  1.0000
  O   O2        1.0  0.58900  0.91500  0.25900  1.0000
  O   O3        1.0  0.26000  0.26000  0.26700  1.0000
  O   O4        1.0  0.74000  0.74000  0.73300  1.0000
  O   O5        1.0  0.41100  0.08480  0.74100  1.0000
  O   O6        1.0  0.08480  0.41100  0.74100  1.0000
