data_image0
_chemical_formula_structural       Cu2Ge2Nd6Se14
_chemical_formula_sum              "Cu2 Ge2 Nd6 Se14"
_cell_length_a       10.6372
_cell_length_b       10.6371
_cell_length_c       6.15651
_cell_angle_alpha    90
_cell_angle_beta     90
_cell_angle_gamma    119.999

_space_group_name_H-M_alt    "P 1"
_space_group_IT_number       1

loop_
  _space_group_symop_operation_xyz
  'x, y, z'

loop_
  _atom_site_type_symbol
  _atom_site_label
  _atom_site_symmetry_multiplicity
  _atom_site_fract_x
  _atom_site_fract_y
  _atom_site_fract_z
  _atom_site_occupancy
  Cu  Cu1       1.0  0.00000  0.00000  0.21600  1.0000
  Cu  Cu2       1.0  0.00000  0.00000  0.71600  1.0000
  Ge  Ge1       1.0  0.33300  0.66700  0.33200  1.0000
  Ge  Ge2       1.0  0.66700  0.33300  0.83200  1.0000
  Nd  Nd1       1.0  0.35500  0.13100  0.24900  1.0000
  Nd  Nd2       1.0  0.77600  0.64500  0.24900  1.0000
  Nd  Nd3       1.0  0.86900  0.22400  0.24900  1.0000
  Nd  Nd4       1.0  0.64500  0.86900  0.74900  1.0000
  Nd  Nd5       1.0  0.22400  0.35500  0.74900  1.0000
  Nd  Nd6       1.0  0.13100  0.77600  0.74900  1.0000
  Se  Se1       1.0  0.16200  0.25700  0.22900  1.0000
  Se  Se2       1.0  0.74300  0.90500  0.22900  1.0000
  Se  Se3       1.0  0.09520  0.83800  0.22900  1.0000
  Se  Se4       1.0  0.66700  0.33300  0.44900  1.0000
  Se  Se5       1.0  0.09780  0.51900  0.49200  1.0000
  Se  Se6       1.0  0.48100  0.57900  0.49200  1.0000
  Se  Se7       1.0  0.42100  0.90200  0.49200  1.0000
  Se  Se8       1.0  0.25700  0.09520  0.72900  1.0000
  Se  Se9       1.0  0.83800  0.74300  0.72900  1.0000
  Se  Se10      1.0  0.90500  0.16200  0.72900  1.0000
  Se  Se11      1.0  0.33300  0.66700  0.94900  1.0000
  Se  Se12      1.0  0.90200  0.48100  0.99200  1.0000
  Se  Se13      1.0  0.57900  0.09780  0.99200  1.0000
  Se  Se14      1.0  0.51900  0.42100  0.99200  1.0000
