data_image0
_chemical_formula_structural       Ca2Li4O6
_chemical_formula_sum              "Ca2 Li4 O6"
_cell_length_a       5.83359
_cell_length_b       5.83359
_cell_length_c       4.66935
_cell_angle_alpha    106.307
_cell_angle_beta     106.307
_cell_angle_gamma    113.25

_space_group_name_H-M_alt    "P 1"
_space_group_IT_number       1

loop_
  _space_group_symop_operation_xyz
  'x, y, z'

loop_
  _atom_site_type_symbol
  _atom_site_label
  _atom_site_symmetry_multiplicity
  _atom_site_fract_x
  _atom_site_fract_y
  _atom_site_fract_z
  _atom_site_occupancy
  Ca  Ca1       1.0  0.83400  0.16600  0.00000  1.0000
  Ca  Ca2       1.0  0.16600  0.83400  0.00000  1.0000
  Li  Li1       1.0  0.50000  0.50000  0.00000  1.0000
  Li  Li2       1.0  0.00000  0.00000  0.50000  1.0000
  Li  Li3       1.0  0.62000  0.38000  0.50000  1.0000
  Li  Li4       1.0  0.38000  0.62000  0.50000  1.0000
  O   O1        1.0  0.26500  0.26500  0.09520  1.0000
  O   O2        1.0  0.94000  0.56600  0.39900  1.0000
  O   O3        1.0  0.56600  0.94000  0.39900  1.0000
  O   O4        1.0  0.43400  0.06010  0.60100  1.0000
  O   O5        1.0  0.06010  0.43400  0.60100  1.0000
  O   O6        1.0  0.73500  0.73500  0.90500  1.0000
