data_image0
_chemical_formula_structural       Li4O6Te2
_chemical_formula_sum              "Li4 O6 Te2"
_cell_length_a       5.03116
_cell_length_b       5.37398
_cell_length_c       7.33657
_cell_angle_alpha    92.5758
_cell_angle_beta     95.5093
_cell_angle_gamma    62.0888

_space_group_name_H-M_alt    "P 1"
_space_group_IT_number       1

loop_
  _space_group_symop_operation_xyz
  'x, y, z'

loop_
  _atom_site_type_symbol
  _atom_site_label
  _atom_site_symmetry_multiplicity
  _atom_site_fract_x
  _atom_site_fract_y
  _atom_site_fract_z
  _atom_site_occupancy
  Li  Li1       1.0  0.36600  0.68700  0.12400  1.0000
  Li  Li2       1.0  0.05300  0.31300  0.12400  1.0000
  Li  Li3       1.0  0.63400  0.31300  0.87600  1.0000
  Li  Li4       1.0  0.94700  0.68700  0.87600  1.0000
  O   O1        1.0  0.67100  0.30000  0.14900  1.0000
  O   O2        1.0  0.97200  0.70000  0.14900  1.0000
  O   O3        1.0  0.36700  0.00000  0.26300  1.0000
  O   O4        1.0  0.63300  0.00000  0.73700  1.0000
  O   O5        1.0  0.02840  0.30000  0.85100  1.0000
  O   O6        1.0  0.32900  0.70000  0.85100  1.0000
  Te  Te1       1.0  0.74200  0.00000  0.30200  1.0000
  Te  Te2       1.0  0.25800  0.00000  0.69800  1.0000
