data_image0
_chemical_formula_structural       Li4O6Th2
_chemical_formula_sum              "Li4 O6 Th2"
_cell_length_a       6.01747
_cell_length_b       6.01747
_cell_length_c       5.19487
_cell_angle_alpha    99.2231
_cell_angle_beta     99.2231
_cell_angle_gamma    121.749

_space_group_name_H-M_alt    "P 1"
_space_group_IT_number       1

loop_
  _space_group_symop_operation_xyz
  'x, y, z'

loop_
  _atom_site_type_symbol
  _atom_site_label
  _atom_site_symmetry_multiplicity
  _atom_site_fract_x
  _atom_site_fract_y
  _atom_site_fract_z
  _atom_site_occupancy
  Li  Li1       1.0  0.50000  0.50000  0.00000  1.0000
  Li  Li2       1.0  0.61900  0.38100  0.50000  1.0000
  Li  Li3       1.0  0.38100  0.61900  0.50000  1.0000
  Li  Li4       1.0  0.00000  0.00000  0.50000  1.0000
  O   O1        1.0  0.89400  0.57100  0.24300  1.0000
  O   O2        1.0  0.57100  0.89400  0.24300  1.0000
  O   O3        1.0  0.23900  0.23900  0.25400  1.0000
  O   O4        1.0  0.76100  0.76100  0.74600  1.0000
  O   O5        1.0  0.42900  0.10600  0.75700  1.0000
  O   O6        1.0  0.10600  0.42900  0.75700  1.0000
  Th  Th1       1.0  0.83200  0.16800  0.00000  1.0000
  Th  Th2       1.0  0.16800  0.83200  0.00000  1.0000
