data_image0
_chemical_formula_structural       Ba2Eu4Mn4O14
_chemical_formula_sum              "Ba2 Eu4 Mn4 O14"
_cell_length_a       5.44346
_cell_length_b       5.44434
_cell_length_c       10.3143
_cell_angle_alpha    74.6971
_cell_angle_beta     90
_cell_angle_gamma    90

_space_group_name_H-M_alt    "P 1"
_space_group_IT_number       1

loop_
  _space_group_symop_operation_xyz
  'x, y, z'

loop_
  _atom_site_type_symbol
  _atom_site_label
  _atom_site_symmetry_multiplicity
  _atom_site_fract_x
  _atom_site_fract_y
  _atom_site_fract_z
  _atom_site_occupancy
  Ba  Ba1       1.0  0.25000  0.25000  0.00000  1.0000
  Ba  Ba2       1.0  0.75000  0.75000  0.00000  1.0000
  Eu  Eu1       1.0  0.25000  0.06210  0.37000  1.0000
  Eu  Eu2       1.0  0.75000  0.56800  0.37000  1.0000
  Eu  Eu3       1.0  0.25000  0.43200  0.63000  1.0000
  Eu  Eu4       1.0  0.75000  0.93800  0.63000  1.0000
  Mn  Mn1       1.0  0.75000  0.14600  0.20700  1.0000
  Mn  Mn2       1.0  0.25000  0.64600  0.20700  1.0000
  Mn  Mn3       1.0  0.75000  0.35400  0.79300  1.0000
  Mn  Mn4       1.0  0.25000  0.85400  0.79300  1.0000
  O   O1        1.0  0.75000  0.25300  0.00000  1.0000
  O   O2        1.0  0.25000  0.74700  0.00000  1.0000
  O   O3        1.0  0.00000  0.89700  0.20700  1.0000
  O   O4        1.0  0.50000  0.89700  0.20700  1.0000
  O   O5        1.0  0.00000  0.39400  0.21200  1.0000
  O   O6        1.0  0.50000  0.39400  0.21200  1.0000
  O   O7        1.0  0.75000  0.04450  0.39600  1.0000
  O   O8        1.0  0.25000  0.56000  0.39600  1.0000
  O   O9        1.0  0.75000  0.44000  0.60400  1.0000
  O   O10       1.0  0.25000  0.95500  0.60400  1.0000
  O   O11       1.0  0.00000  0.60600  0.78800  1.0000
  O   O12       1.0  0.50000  0.60600  0.78800  1.0000
  O   O13       1.0  0.00000  0.10300  0.79300  1.0000
  O   O14       1.0  0.50000  0.10300  0.79300  1.0000
