data_image0
_chemical_formula_structural       Gd2O16Rb2W4
_chemical_formula_sum              "Gd2 O16 Rb2 W4"
_cell_length_a       7.47721
_cell_length_b       7.47721
_cell_length_c       7.56584
_cell_angle_alpha    117.545
_cell_angle_beta     62.4548
_cell_angle_gamma    91.0172

_space_group_name_H-M_alt    "P 1"
_space_group_IT_number       1

loop_
  _space_group_symop_operation_xyz
  'x, y, z'

loop_
  _atom_site_type_symbol
  _atom_site_label
  _atom_site_symmetry_multiplicity
  _atom_site_fract_x
  _atom_site_fract_y
  _atom_site_fract_z
  _atom_site_occupancy
  Gd  Gd1       1.0  0.22800  0.22800  0.25000  1.0000
  Gd  Gd2       1.0  0.77200  0.77200  0.75000  1.0000
  O   O1        1.0  0.41500  0.36800  0.02720  1.0000
  O   O2        1.0  0.76300  0.38200  0.05710  1.0000
  O   O3        1.0  0.61300  0.06740  0.13000  1.0000
  O   O4        1.0  0.95300  0.20400  0.18900  1.0000
  O   O5        1.0  0.20400  0.95300  0.31100  1.0000
  O   O6        1.0  0.06740  0.61300  0.37000  1.0000
  O   O7        1.0  0.38200  0.76300  0.44300  1.0000
  O   O8        1.0  0.36800  0.41500  0.47300  1.0000
  O   O9        1.0  0.63200  0.58500  0.52700  1.0000
  O   O10       1.0  0.61800  0.23700  0.55700  1.0000
  O   O11       1.0  0.93300  0.38700  0.63000  1.0000
  O   O12       1.0  0.79600  0.04660  0.68900  1.0000
  O   O13       1.0  0.04660  0.79600  0.81100  1.0000
  O   O14       1.0  0.38700  0.93300  0.87000  1.0000
  O   O15       1.0  0.23700  0.61800  0.94300  1.0000
  O   O16       1.0  0.58500  0.63200  0.97300  1.0000
  Rb  Rb1       1.0  0.80300  0.80300  0.25000  1.0000
  Rb  Rb2       1.0  0.19700  0.19700  0.75000  1.0000
  W   W1        1.0  0.30200  0.69400  0.23300  1.0000
  W   W2        1.0  0.69400  0.30200  0.26700  1.0000
  W   W3        1.0  0.30600  0.69800  0.73300  1.0000
  W   W4        1.0  0.69800  0.30600  0.76700  1.0000
