data_image0
_chemical_formula_structural       Cu2S14Si2Y6
_chemical_formula_sum              "Cu2 S14 Si2 Y6"
_cell_length_a       9.8959
_cell_length_b       9.89564
_cell_length_c       5.68906
_cell_angle_alpha    90
_cell_angle_beta     90
_cell_angle_gamma    120

_space_group_name_H-M_alt    "P 1"
_space_group_IT_number       1

loop_
  _space_group_symop_operation_xyz
  'x, y, z'

loop_
  _atom_site_type_symbol
  _atom_site_label
  _atom_site_symmetry_multiplicity
  _atom_site_fract_x
  _atom_site_fract_y
  _atom_site_fract_z
  _atom_site_occupancy
  Cu  Cu1       1.0  0.00000  0.00000  0.20200  1.0000
  Cu  Cu2       1.0  0.00000  0.00000  0.70200  1.0000
  S   S1        1.0  0.09380  0.25800  0.22100  1.0000
  S   S2        1.0  0.74200  0.83600  0.22100  1.0000
  S   S3        1.0  0.16400  0.90600  0.22100  1.0000
  S   S4        1.0  0.66700  0.33300  0.45800  1.0000
  S   S5        1.0  0.10700  0.58400  0.48000  1.0000
  S   S6        1.0  0.41600  0.52300  0.48000  1.0000
  S   S7        1.0  0.47700  0.89300  0.48000  1.0000
  S   S8        1.0  0.83600  0.09380  0.72100  1.0000
  S   S9        1.0  0.25800  0.16400  0.72100  1.0000
  S   S10       1.0  0.90600  0.74200  0.72100  1.0000
  S   S11       1.0  0.33300  0.66700  0.95800  1.0000
  S   S12       1.0  0.89300  0.41600  0.98000  1.0000
  S   S13       1.0  0.52300  0.10700  0.98000  1.0000
  S   S14       1.0  0.58400  0.47700  0.98000  1.0000
  Si  Si1       1.0  0.33300  0.66700  0.33000  1.0000
  Si  Si2       1.0  0.66700  0.33300  0.83000  1.0000
  Y   Y1        1.0  0.35700  0.22900  0.24400  1.0000
  Y   Y2        1.0  0.77100  0.12800  0.24400  1.0000
  Y   Y3        1.0  0.87200  0.64300  0.24400  1.0000
  Y   Y4        1.0  0.64300  0.77100  0.74400  1.0000
  Y   Y5        1.0  0.22900  0.87200  0.74400  1.0000
  Y   Y6        1.0  0.12800  0.35700  0.74400  1.0000
