data_image0
_chemical_formula_structural       Be2Li4O6
_chemical_formula_sum              "Be2 Li4 O6"
_cell_length_a       4.64803
_cell_length_b       4.64803
_cell_length_c       4.8182
_cell_angle_alpha    99.2355
_cell_angle_beta     99.2355
_cell_angle_gamma    119.888

_space_group_name_H-M_alt    "P 1"
_space_group_IT_number       1

loop_
  _space_group_symop_operation_xyz
  'x, y, z'

loop_
  _atom_site_type_symbol
  _atom_site_label
  _atom_site_symmetry_multiplicity
  _atom_site_fract_x
  _atom_site_fract_y
  _atom_site_fract_z
  _atom_site_occupancy
  Be  Be1       1.0  0.83800  0.16200  0.00000  1.0000
  Be  Be2       1.0  0.16200  0.83800  0.00000  1.0000
  Li  Li1       1.0  0.50000  0.50000  0.00000  1.0000
  Li  Li2       1.0  0.00000  0.00000  0.50000  1.0000
  Li  Li3       1.0  0.65900  0.34100  0.50000  1.0000
  Li  Li4       1.0  0.34100  0.65900  0.50000  1.0000
  O   O1        1.0  0.93400  0.57700  0.22000  1.0000
  O   O2        1.0  0.57700  0.93400  0.22000  1.0000
  O   O3        1.0  0.21900  0.21900  0.22400  1.0000
  O   O4        1.0  0.78100  0.78100  0.77600  1.0000
  O   O5        1.0  0.42300  0.06620  0.78000  1.0000
  O   O6        1.0  0.06620  0.42300  0.78000  1.0000
