data_image0
_chemical_formula_structural       Cu4Lu4Pb4Se12
_chemical_formula_sum              "Cu4 Lu4 Pb4 Se12"
_cell_length_a       10.431
_cell_length_b       4.02341
_cell_length_c       13.5755
_cell_angle_alpha    90
_cell_angle_beta     90
_cell_angle_gamma    90

_space_group_name_H-M_alt    "P 1"
_space_group_IT_number       1

loop_
  _space_group_symop_operation_xyz
  'x, y, z'

loop_
  _atom_site_type_symbol
  _atom_site_label
  _atom_site_symmetry_multiplicity
  _atom_site_fract_x
  _atom_site_fract_y
  _atom_site_fract_z
  _atom_site_occupancy
  Cu  Cu1       1.0  0.25600  0.75000  0.21800  1.0000
  Cu  Cu2       1.0  0.75600  0.75000  0.28200  1.0000
  Cu  Cu3       1.0  0.24400  0.25000  0.71800  1.0000
  Cu  Cu4       1.0  0.74400  0.25000  0.78200  1.0000
  Lu  Lu1       1.0  0.00533  0.25000  0.24700  1.0000
  Lu  Lu2       1.0  0.50500  0.25000  0.25300  1.0000
  Lu  Lu3       1.0  0.49500  0.75000  0.74700  1.0000
  Lu  Lu4       1.0  0.99500  0.75000  0.75300  1.0000
  Pb  Pb1       1.0  0.25900  0.25000  0.00579  1.0000
  Pb  Pb2       1.0  0.75900  0.25000  0.49400  1.0000
  Pb  Pb3       1.0  0.24100  0.75000  0.50600  1.0000
  Pb  Pb4       1.0  0.74100  0.75000  0.99400  1.0000
  Se  Se1       1.0  0.06770  0.75000  0.11000  1.0000
  Se  Se2       1.0  0.44700  0.75000  0.11200  1.0000
  Se  Se3       1.0  0.75400  0.25000  0.17200  1.0000
  Se  Se4       1.0  0.25400  0.25000  0.32800  1.0000
  Se  Se5       1.0  0.94700  0.75000  0.38800  1.0000
  Se  Se6       1.0  0.56800  0.75000  0.39000  1.0000
  Se  Se7       1.0  0.43200  0.25000  0.61000  1.0000
  Se  Se8       1.0  0.05330  0.25000  0.61200  1.0000
  Se  Se9       1.0  0.74600  0.75000  0.67200  1.0000
  Se  Se10      1.0  0.24600  0.75000  0.82800  1.0000
  Se  Se11      1.0  0.55300  0.25000  0.88800  1.0000
  Se  Se12      1.0  0.93200  0.25000  0.89000  1.0000
