data_image0
_chemical_formula_structural       Cu2S14Sn2Y6
_chemical_formula_sum              "Cu2 S14 Sn2 Y6"
_cell_length_a       9.7467
_cell_length_b       9.74673
_cell_length_c       6.24666
_cell_angle_alpha    90
_cell_angle_beta     90
_cell_angle_gamma    120

_space_group_name_H-M_alt    "P 1"
_space_group_IT_number       1

loop_
  _space_group_symop_operation_xyz
  'x, y, z'

loop_
  _atom_site_type_symbol
  _atom_site_label
  _atom_site_symmetry_multiplicity
  _atom_site_fract_x
  _atom_site_fract_y
  _atom_site_fract_z
  _atom_site_occupancy
  Cu  Cu1       1.0  0.00000  0.00000  0.49200  1.0000
  Cu  Cu2       1.0  0.00000  0.00000  0.99200  1.0000
  S   S1        1.0  0.43800  0.91800  0.12700  1.0000
  S   S2        1.0  0.48000  0.56200  0.12700  1.0000
  S   S3        1.0  0.08170  0.52000  0.12700  1.0000
  S   S4        1.0  0.66700  0.33300  0.19400  1.0000
  S   S5        1.0  0.73800  0.88400  0.45400  1.0000
  S   S6        1.0  0.14700  0.26200  0.45400  1.0000
  S   S7        1.0  0.11600  0.85300  0.45400  1.0000
  S   S8        1.0  0.56200  0.08170  0.62700  1.0000
  S   S9        1.0  0.52000  0.43800  0.62700  1.0000
  S   S10       1.0  0.91800  0.48000  0.62700  1.0000
  S   S11       1.0  0.33300  0.66700  0.69400  1.0000
  S   S12       1.0  0.26200  0.11600  0.95400  1.0000
  S   S13       1.0  0.88400  0.14700  0.95400  1.0000
  S   S14       1.0  0.85300  0.73800  0.95400  1.0000
  Sn  Sn1       1.0  0.33300  0.66700  0.31000  1.0000
  Sn  Sn2       1.0  0.66700  0.33300  0.81000  1.0000
  Y   Y1        1.0  0.79100  0.64000  0.37400  1.0000
  Y   Y2        1.0  0.36000  0.15100  0.37400  1.0000
  Y   Y3        1.0  0.84900  0.20900  0.37400  1.0000
  Y   Y4        1.0  0.20900  0.36000  0.87400  1.0000
  Y   Y5        1.0  0.64000  0.84900  0.87400  1.0000
  Y   Y6        1.0  0.15100  0.79100  0.87400  1.0000
