data_image0
_chemical_formula_structural       Al4Ge12Sm8
_chemical_formula_sum              "Al4 Ge12 Sm8"
_cell_length_a       6.87731
_cell_length_b       4.29884
_cell_length_c       18.0067
_cell_angle_alpha    90
_cell_angle_beta     90
_cell_angle_gamma    90

_space_group_name_H-M_alt    "P 1"
_space_group_IT_number       1

loop_
  _space_group_symop_operation_xyz
  'x, y, z'

loop_
  _atom_site_type_symbol
  _atom_site_label
  _atom_site_symmetry_multiplicity
  _atom_site_fract_x
  _atom_site_fract_y
  _atom_site_fract_z
  _atom_site_occupancy
  Al  Al1       1.0  0.04850  0.75000  0.06410  1.0000
  Al  Al2       1.0  0.54800  0.75000  0.43600  1.0000
  Al  Al3       1.0  0.45200  0.25000  0.56400  1.0000
  Al  Al4       1.0  0.95200  0.25000  0.93600  1.0000
  Ge  Ge1       1.0  0.24300  0.25000  0.03500  1.0000
  Ge  Ge2       1.0  0.47300  0.75000  0.17500  1.0000
  Ge  Ge3       1.0  0.85800  0.75000  0.18800  1.0000
  Ge  Ge4       1.0  0.35800  0.75000  0.31200  1.0000
  Ge  Ge5       1.0  0.97300  0.75000  0.32500  1.0000
  Ge  Ge6       1.0  0.74300  0.25000  0.46500  1.0000
  Ge  Ge7       1.0  0.25700  0.75000  0.53500  1.0000
  Ge  Ge8       1.0  0.02710  0.25000  0.67500  1.0000
  Ge  Ge9       1.0  0.64200  0.25000  0.68800  1.0000
  Ge  Ge10      1.0  0.14200  0.25000  0.81200  1.0000
  Ge  Ge11      1.0  0.52700  0.25000  0.82500  1.0000
  Ge  Ge12      1.0  0.75700  0.75000  0.96500  1.0000
  Sm  Sm1       1.0  0.67200  0.25000  0.08480  1.0000
  Sm  Sm2       1.0  0.17300  0.25000  0.20400  1.0000
  Sm  Sm3       1.0  0.67300  0.25000  0.29600  1.0000
  Sm  Sm4       1.0  0.17200  0.25000  0.41500  1.0000
  Sm  Sm5       1.0  0.82800  0.75000  0.58500  1.0000
  Sm  Sm6       1.0  0.32700  0.75000  0.70400  1.0000
  Sm  Sm7       1.0  0.82700  0.75000  0.79600  1.0000
  Sm  Sm8       1.0  0.32800  0.75000  0.91500  1.0000
