data_image0
_chemical_formula_structural       Li4O6Rh2
_chemical_formula_sum              "Li4 O6 Rh2"
_cell_length_a       5.07658
_cell_length_b       5.08263
_cell_length_c       5.08263
_cell_angle_alpha    119.982
_cell_angle_beta     99.5725
_cell_angle_gamma    99.5725

_space_group_name_H-M_alt    "P 1"
_space_group_IT_number       1

loop_
  _space_group_symop_operation_xyz
  'x, y, z'

loop_
  _atom_site_type_symbol
  _atom_site_label
  _atom_site_symmetry_multiplicity
  _atom_site_fract_x
  _atom_site_fract_y
  _atom_site_fract_z
  _atom_site_occupancy
  Li  Li1       1.0  0.00000  0.00000  0.00000  1.0000
  Li  Li2       1.0  0.50000  0.84000  0.16000  1.0000
  Li  Li3       1.0  0.50000  0.50000  0.50000  1.0000
  Li  Li4       1.0  0.50000  0.16000  0.84000  1.0000
  O   O1        1.0  0.23900  0.42400  0.07910  1.0000
  O   O2        1.0  0.75900  0.26500  0.26500  1.0000
  O   O3        1.0  0.23900  0.07910  0.42400  1.0000
  O   O4        1.0  0.76100  0.92100  0.57600  1.0000
  O   O5        1.0  0.24100  0.73500  0.73500  1.0000
  O   O6        1.0  0.76100  0.57600  0.92100  1.0000
  Rh  Rh1       1.0  0.00000  0.66700  0.33300  1.0000
  Rh  Rh2       1.0  0.00000  0.33300  0.66700  1.0000
