data_image0
_chemical_formula_structural       Cu2Ge2Pr6Se14
_chemical_formula_sum              "Cu2 Ge2 Pr6 Se14"
_cell_length_a       10.7015
_cell_length_b       10.7015
_cell_length_c       6.17507
_cell_angle_alpha    90
_cell_angle_beta     90
_cell_angle_gamma    120

_space_group_name_H-M_alt    "P 1"
_space_group_IT_number       1

loop_
  _space_group_symop_operation_xyz
  'x, y, z'

loop_
  _atom_site_type_symbol
  _atom_site_label
  _atom_site_symmetry_multiplicity
  _atom_site_fract_x
  _atom_site_fract_y
  _atom_site_fract_z
  _atom_site_occupancy
  Cu  Cu1       1.0  0.00000  0.00000  0.21800  1.0000
  Cu  Cu2       1.0  0.00000  0.00000  0.71800  1.0000
  Ge  Ge1       1.0  0.33300  0.66700  0.33200  1.0000
  Ge  Ge2       1.0  0.66700  0.33300  0.83200  1.0000
  Pr  Pr1       1.0  0.35500  0.22500  0.24900  1.0000
  Pr  Pr2       1.0  0.77500  0.13000  0.24900  1.0000
  Pr  Pr3       1.0  0.87000  0.64500  0.24900  1.0000
  Pr  Pr4       1.0  0.64500  0.77500  0.74900  1.0000
  Pr  Pr5       1.0  0.22500  0.87000  0.74900  1.0000
  Pr  Pr6       1.0  0.13000  0.35500  0.74900  1.0000
  Se  Se1       1.0  0.16100  0.90600  0.23000  1.0000
  Se  Se2       1.0  0.74400  0.83900  0.23000  1.0000
  Se  Se3       1.0  0.09420  0.25600  0.23000  1.0000
  Se  Se4       1.0  0.66700  0.33300  0.45000  1.0000
  Se  Se5       1.0  0.09900  0.58000  0.49000  1.0000
  Se  Se6       1.0  0.42000  0.51900  0.49000  1.0000
  Se  Se7       1.0  0.48100  0.90100  0.49000  1.0000
  Se  Se8       1.0  0.83900  0.09420  0.73000  1.0000
  Se  Se9       1.0  0.25600  0.16100  0.73000  1.0000
  Se  Se10      1.0  0.90600  0.74400  0.73000  1.0000
  Se  Se11      1.0  0.33300  0.66700  0.95000  1.0000
  Se  Se12      1.0  0.90100  0.42000  0.99000  1.0000
  Se  Se13      1.0  0.58000  0.48100  0.99000  1.0000
  Se  Se14      1.0  0.51900  0.09900  0.99000  1.0000
