data_image0
_chemical_formula_structural       Ge4Mn2O14Sr4
_chemical_formula_sum              "Ge4 Mn2 O14 Sr4"
_cell_length_a       8.2014
_cell_length_b       8.2014
_cell_length_c       5.33991
_cell_angle_alpha    90
_cell_angle_beta     90
_cell_angle_gamma    90

_space_group_name_H-M_alt    "P 1"
_space_group_IT_number       1

loop_
  _space_group_symop_operation_xyz
  'x, y, z'

loop_
  _atom_site_type_symbol
  _atom_site_label
  _atom_site_symmetry_multiplicity
  _atom_site_fract_x
  _atom_site_fract_y
  _atom_site_fract_z
  _atom_site_occupancy
  Ge  Ge1       1.0  0.64300  0.14300  0.05710  1.0000
  Ge  Ge2       1.0  0.35700  0.85700  0.05710  1.0000
  Ge  Ge3       1.0  0.14300  0.35700  0.94300  1.0000
  Ge  Ge4       1.0  0.85700  0.64300  0.94300  1.0000
  Mn  Mn1       1.0  0.00000  0.00000  0.00000  1.0000
  Mn  Mn2       1.0  0.50000  0.50000  0.00000  1.0000
  O   O1        1.0  0.50000  0.00000  0.18800  1.0000
  O   O2        1.0  0.81800  0.08050  0.22400  1.0000
  O   O3        1.0  0.58000  0.31800  0.22400  1.0000
  O   O4        1.0  0.42000  0.68200  0.22400  1.0000
  O   O5        1.0  0.18200  0.92000  0.22400  1.0000
  O   O6        1.0  0.14100  0.35900  0.26700  1.0000
  O   O7        1.0  0.85900  0.64100  0.26700  1.0000
  O   O8        1.0  0.64100  0.14100  0.73300  1.0000
  O   O9        1.0  0.35900  0.85900  0.73300  1.0000
  O   O10       1.0  0.08050  0.18200  0.77600  1.0000
  O   O11       1.0  0.31800  0.42000  0.77600  1.0000
  O   O12       1.0  0.68200  0.58000  0.77600  1.0000
  O   O13       1.0  0.92000  0.81800  0.77600  1.0000
  O   O14       1.0  0.00000  0.50000  0.81200  1.0000
  Sr  Sr1       1.0  0.83500  0.33500  0.49400  1.0000
  Sr  Sr2       1.0  0.16500  0.66500  0.49400  1.0000
  Sr  Sr3       1.0  0.33500  0.16500  0.50600  1.0000
  Sr  Sr4       1.0  0.66500  0.83500  0.50600  1.0000
