data_image0
_chemical_formula_structural       Ce6Cu2Ge2Se14
_chemical_formula_sum              "Ce6 Cu2 Ge2 Se14"
_cell_length_a       10.7773
_cell_length_b       10.777
_cell_length_c       6.20357
_cell_angle_alpha    90
_cell_angle_beta     90
_cell_angle_gamma    120

_space_group_name_H-M_alt    "P 1"
_space_group_IT_number       1

loop_
  _space_group_symop_operation_xyz
  'x, y, z'

loop_
  _atom_site_type_symbol
  _atom_site_label
  _atom_site_symmetry_multiplicity
  _atom_site_fract_x
  _atom_site_fract_y
  _atom_site_fract_z
  _atom_site_occupancy
  Ce  Ce1       1.0  0.35500  0.22600  0.24900  1.0000
  Ce  Ce2       1.0  0.77400  0.13000  0.24900  1.0000
  Ce  Ce3       1.0  0.87000  0.64400  0.24900  1.0000
  Ce  Ce4       1.0  0.64500  0.77400  0.74900  1.0000
  Ce  Ce5       1.0  0.22600  0.87000  0.74900  1.0000
  Ce  Ce6       1.0  0.13000  0.35600  0.74900  1.0000
  Cu  Cu1       1.0  0.00000  0.00000  0.22000  1.0000
  Cu  Cu2       1.0  0.00000  0.00000  0.72000  1.0000
  Ge  Ge1       1.0  0.33300  0.66700  0.33100  1.0000
  Ge  Ge2       1.0  0.66700  0.33300  0.83100  1.0000
  Se  Se1       1.0  0.74600  0.83900  0.23200  1.0000
  Se  Se2       1.0  0.09310  0.25400  0.23200  1.0000
  Se  Se3       1.0  0.16100  0.90700  0.23200  1.0000
  Se  Se4       1.0  0.66700  0.33300  0.45200  1.0000
  Se  Se5       1.0  0.10000  0.58000  0.48800  1.0000
  Se  Se6       1.0  0.42000  0.52000  0.48800  1.0000
  Se  Se7       1.0  0.48000  0.90000  0.48800  1.0000
  Se  Se8       1.0  0.25400  0.16100  0.73200  1.0000
  Se  Se9       1.0  0.83900  0.09310  0.73200  1.0000
  Se  Se10      1.0  0.90700  0.74600  0.73200  1.0000
  Se  Se11      1.0  0.33300  0.66700  0.95200  1.0000
  Se  Se12      1.0  0.90000  0.42000  0.98800  1.0000
  Se  Se13      1.0  0.58000  0.48000  0.98800  1.0000
  Se  Se14      1.0  0.52000  0.10000  0.98800  1.0000
