data_image0
_chemical_formula_structural       Li4O6U2
_chemical_formula_sum              "Li4 O6 U2"
_cell_length_a       5.72295
_cell_length_b       5.72295
_cell_length_c       5.29591
_cell_angle_alpha    99.9649
_cell_angle_beta     99.9649
_cell_angle_gamma    119.85

_space_group_name_H-M_alt    "P 1"
_space_group_IT_number       1

loop_
  _space_group_symop_operation_xyz
  'x, y, z'

loop_
  _atom_site_type_symbol
  _atom_site_label
  _atom_site_symmetry_multiplicity
  _atom_site_fract_x
  _atom_site_fract_y
  _atom_site_fract_z
  _atom_site_occupancy
  Li  Li1       1.0  0.50000  0.50000  0.00000  1.0000
  Li  Li2       1.0  0.00000  0.00000  0.50000  1.0000
  Li  Li3       1.0  0.63200  0.36800  0.50000  1.0000
  Li  Li4       1.0  0.36800  0.63200  0.50000  1.0000
  O   O1        1.0  0.90500  0.57700  0.24400  1.0000
  O   O2        1.0  0.57700  0.90500  0.24400  1.0000
  O   O3        1.0  0.24500  0.24500  0.25700  1.0000
  O   O4        1.0  0.75500  0.75500  0.74300  1.0000
  O   O5        1.0  0.42300  0.09450  0.75600  1.0000
  O   O6        1.0  0.09450  0.42300  0.75600  1.0000
  U   U1        1.0  0.83200  0.16800  0.00000  1.0000
  U   U2        1.0  0.16800  0.83200  0.00000  1.0000
