data_image0
_chemical_formula_structural       Al4Ge12Tb8
_chemical_formula_sum              "Al4 Ge12 Tb8"
_cell_length_a       6.81233
_cell_length_b       4.2258
_cell_length_c       17.7573
_cell_angle_alpha    90
_cell_angle_beta     90
_cell_angle_gamma    90

_space_group_name_H-M_alt    "P 1"
_space_group_IT_number       1

loop_
  _space_group_symop_operation_xyz
  'x, y, z'

loop_
  _atom_site_type_symbol
  _atom_site_label
  _atom_site_symmetry_multiplicity
  _atom_site_fract_x
  _atom_site_fract_y
  _atom_site_fract_z
  _atom_site_occupancy
  Al  Al1       1.0  0.05000  0.75000  0.06460  1.0000
  Al  Al2       1.0  0.55000  0.75000  0.43500  1.0000
  Al  Al3       1.0  0.45000  0.25000  0.56500  1.0000
  Al  Al4       1.0  0.95000  0.25000  0.93500  1.0000
  Ge  Ge1       1.0  0.25000  0.25000  0.03440  1.0000
  Ge  Ge2       1.0  0.46400  0.75000  0.17200  1.0000
  Ge  Ge3       1.0  0.85600  0.75000  0.18800  1.0000
  Ge  Ge4       1.0  0.35600  0.75000  0.31200  1.0000
  Ge  Ge5       1.0  0.96400  0.75000  0.32800  1.0000
  Ge  Ge6       1.0  0.75000  0.25000  0.46600  1.0000
  Ge  Ge7       1.0  0.25000  0.75000  0.53400  1.0000
  Ge  Ge8       1.0  0.03580  0.25000  0.67200  1.0000
  Ge  Ge9       1.0  0.64400  0.25000  0.68800  1.0000
  Ge  Ge10      1.0  0.14400  0.25000  0.81200  1.0000
  Ge  Ge11      1.0  0.53600  0.25000  0.82800  1.0000
  Ge  Ge12      1.0  0.75000  0.75000  0.96600  1.0000
  Tb  Tb1       1.0  0.67100  0.25000  0.08560  1.0000
  Tb  Tb2       1.0  0.16900  0.25000  0.20400  1.0000
  Tb  Tb3       1.0  0.66900  0.25000  0.29600  1.0000
  Tb  Tb4       1.0  0.17100  0.25000  0.41400  1.0000
  Tb  Tb5       1.0  0.82900  0.75000  0.58600  1.0000
  Tb  Tb6       1.0  0.33100  0.75000  0.70400  1.0000
  Tb  Tb7       1.0  0.83100  0.75000  0.79600  1.0000
  Tb  Tb8       1.0  0.32900  0.75000  0.91400  1.0000
