data_image0
_chemical_formula_structural       Ce6Cu2Ge2S14
_chemical_formula_sum              "Ce6 Cu2 Ge2 S14"
_cell_length_a       10.3333
_cell_length_b       10.3332
_cell_length_c       5.90779
_cell_angle_alpha    90
_cell_angle_beta     90
_cell_angle_gamma    119.999

_space_group_name_H-M_alt    "P 1"
_space_group_IT_number       1

loop_
  _space_group_symop_operation_xyz
  'x, y, z'

loop_
  _atom_site_type_symbol
  _atom_site_label
  _atom_site_symmetry_multiplicity
  _atom_site_fract_x
  _atom_site_fract_y
  _atom_site_fract_z
  _atom_site_occupancy
  Ce  Ce1       1.0  0.35700  0.12700  0.25100  1.0000
  Ce  Ce2       1.0  0.77000  0.64300  0.25100  1.0000
  Ce  Ce3       1.0  0.87300  0.23000  0.25100  1.0000
  Ce  Ce4       1.0  0.64300  0.87300  0.75100  1.0000
  Ce  Ce5       1.0  0.23000  0.35700  0.75100  1.0000
  Ce  Ce6       1.0  0.12700  0.77000  0.75100  1.0000
  Cu  Cu1       1.0  0.00000  0.00000  0.22400  1.0000
  Cu  Cu2       1.0  0.00000  0.00000  0.72400  1.0000
  Ge  Ge1       1.0  0.33300  0.66700  0.33200  1.0000
  Ge  Ge2       1.0  0.66700  0.33300  0.83200  1.0000
  S   S1        1.0  0.16100  0.25100  0.23500  1.0000
  S   S2        1.0  0.08910  0.83900  0.23500  1.0000
  S   S3        1.0  0.74900  0.91100  0.23500  1.0000
  S   S4        1.0  0.66700  0.33300  0.46000  1.0000
  S   S5        1.0  0.10600  0.52200  0.48400  1.0000
  S   S6        1.0  0.41500  0.89400  0.48400  1.0000
  S   S7        1.0  0.47800  0.58500  0.48400  1.0000
  S   S8        1.0  0.25100  0.08910  0.73500  1.0000
  S   S9        1.0  0.83900  0.74900  0.73500  1.0000
  S   S10       1.0  0.91100  0.16100  0.73500  1.0000
  S   S11       1.0  0.33300  0.66700  0.96000  1.0000
  S   S12       1.0  0.89400  0.47800  0.98400  1.0000
  S   S13       1.0  0.58500  0.10600  0.98400  1.0000
  S   S14       1.0  0.52200  0.41500  0.98400  1.0000
