data_image0
_chemical_formula_structural       O14Te6Tl4
_chemical_formula_sum              "O14 Te6 Tl4"
_cell_length_a       6.80197
_cell_length_b       7.37111
_cell_length_c       9.82969
_cell_angle_alpha    91.8952
_cell_angle_beta     109.505
_cell_angle_gamma    112.319

_space_group_name_H-M_alt    "P 1"
_space_group_IT_number       1

loop_
  _space_group_symop_operation_xyz
  'x, y, z'

loop_
  _atom_site_type_symbol
  _atom_site_label
  _atom_site_symmetry_multiplicity
  _atom_site_fract_x
  _atom_site_fract_y
  _atom_site_fract_z
  _atom_site_occupancy
  O   O1        1.0  0.23800  0.16400  0.04200  1.0000
  O   O2        1.0  0.66400  0.10400  0.12300  1.0000
  O   O3        1.0  0.68600  0.47700  0.12900  1.0000
  O   O4        1.0  0.44300  0.55000  0.30700  1.0000
  O   O5        1.0  0.17200  0.14600  0.32400  1.0000
  O   O6        1.0  0.89600  0.76700  0.37000  1.0000
  O   O7        1.0  0.06000  0.46900  0.37600  1.0000
  O   O8        1.0  0.94000  0.53100  0.62400  1.0000
  O   O9        1.0  0.10400  0.23300  0.63000  1.0000
  O   O10       1.0  0.82800  0.85400  0.67600  1.0000
  O   O11       1.0  0.55700  0.45000  0.69300  1.0000
  O   O12       1.0  0.31400  0.52300  0.87100  1.0000
  O   O13       1.0  0.33600  0.89600  0.87700  1.0000
  O   O14       1.0  0.76200  0.83600  0.95800  1.0000
  Te  Te1       1.0  0.51500  0.78400  0.01920  1.0000
  Te  Te2       1.0  0.12900  0.35000  0.22900  1.0000
  Te  Te3       1.0  0.73600  0.49100  0.34100  1.0000
  Te  Te4       1.0  0.26400  0.50900  0.65900  1.0000
  Te  Te5       1.0  0.87100  0.65000  0.77100  1.0000
  Te  Te6       1.0  0.48500  0.21600  0.98100  1.0000
  Tl  Tl1       1.0  0.12400  0.84500  0.17300  1.0000
  Tl  Tl2       1.0  0.70000  0.97200  0.43000  1.0000
  Tl  Tl3       1.0  0.30000  0.02760  0.57000  1.0000
  Tl  Tl4       1.0  0.87600  0.15500  0.82700  1.0000
