data_image0
_chemical_formula_structural       Cu2Ge2Se14Sm6
_chemical_formula_sum              "Cu2 Ge2 Se14 Sm6"
_cell_length_a       10.5383
_cell_length_b       10.538
_cell_length_c       6.12345
_cell_angle_alpha    90
_cell_angle_beta     90
_cell_angle_gamma    120

_space_group_name_H-M_alt    "P 1"
_space_group_IT_number       1

loop_
  _space_group_symop_operation_xyz
  'x, y, z'

loop_
  _atom_site_type_symbol
  _atom_site_label
  _atom_site_symmetry_multiplicity
  _atom_site_fract_x
  _atom_site_fract_y
  _atom_site_fract_z
  _atom_site_occupancy
  Cu  Cu1       1.0  0.00000  0.00000  0.21700  1.0000
  Cu  Cu2       1.0  0.00000  0.00000  0.71700  1.0000
  Ge  Ge1       1.0  0.33300  0.66700  0.33500  1.0000
  Ge  Ge2       1.0  0.66700  0.33300  0.83500  1.0000
  Se  Se1       1.0  0.09650  0.25900  0.23100  1.0000
  Se  Se2       1.0  0.74100  0.83800  0.23100  1.0000
  Se  Se3       1.0  0.16200  0.90400  0.23100  1.0000
  Se  Se4       1.0  0.66700  0.33300  0.45100  1.0000
  Se  Se5       1.0  0.09640  0.57900  0.49900  1.0000
  Se  Se6       1.0  0.42100  0.51800  0.49900  1.0000
  Se  Se7       1.0  0.48200  0.90400  0.49900  1.0000
  Se  Se8       1.0  0.25900  0.16200  0.73100  1.0000
  Se  Se9       1.0  0.90400  0.74100  0.73100  1.0000
  Se  Se10      1.0  0.83800  0.09650  0.73100  1.0000
  Se  Se11      1.0  0.33300  0.66700  0.95100  1.0000
  Se  Se12      1.0  0.90400  0.42100  0.99900  1.0000
  Se  Se13      1.0  0.57900  0.48200  0.99900  1.0000
  Se  Se14      1.0  0.51800  0.09640  0.99900  1.0000
  Sm  Sm1       1.0  0.35500  0.22400  0.25300  1.0000
  Sm  Sm2       1.0  0.77600  0.13100  0.25300  1.0000
  Sm  Sm3       1.0  0.86900  0.64500  0.25300  1.0000
  Sm  Sm4       1.0  0.64500  0.77600  0.75300  1.0000
  Sm  Sm5       1.0  0.22400  0.86900  0.75300  1.0000
  Sm  Sm6       1.0  0.13100  0.35500  0.75300  1.0000
