data_image0
_chemical_formula_structural       Cu2Ge2S14Tb6
_chemical_formula_sum              "Cu2 Ge2 S14 Tb6"
_cell_length_a       9.90314
_cell_length_b       9.90302
_cell_length_c       5.82413
_cell_angle_alpha    90
_cell_angle_beta     90
_cell_angle_gamma    119.999

_space_group_name_H-M_alt    "P 1"
_space_group_IT_number       1

loop_
  _space_group_symop_operation_xyz
  'x, y, z'

loop_
  _atom_site_type_symbol
  _atom_site_label
  _atom_site_symmetry_multiplicity
  _atom_site_fract_x
  _atom_site_fract_y
  _atom_site_fract_z
  _atom_site_occupancy
  Cu  Cu1       1.0  0.00000  0.00000  0.19200  1.0000
  Cu  Cu2       1.0  0.00000  0.00000  0.69200  1.0000
  Ge  Ge1       1.0  0.33300  0.66700  0.33600  1.0000
  Ge  Ge2       1.0  0.66700  0.33300  0.83600  1.0000
  S   S1        1.0  0.16000  0.25900  0.21600  1.0000
  S   S2        1.0  0.09900  0.84000  0.21600  1.0000
  S   S3        1.0  0.74100  0.90100  0.21600  1.0000
  S   S4        1.0  0.66700  0.33300  0.45800  1.0000
  S   S5        1.0  0.42100  0.90200  0.49700  1.0000
  S   S6        1.0  0.09800  0.51900  0.49700  1.0000
  S   S7        1.0  0.48100  0.57900  0.49700  1.0000
  S   S8        1.0  0.25900  0.09900  0.71600  1.0000
  S   S9        1.0  0.90100  0.16000  0.71600  1.0000
  S   S10       1.0  0.84000  0.74100  0.71600  1.0000
  S   S11       1.0  0.33300  0.66700  0.95800  1.0000
  S   S12       1.0  0.57900  0.09800  0.99700  1.0000
  S   S13       1.0  0.90200  0.48100  0.99700  1.0000
  S   S14       1.0  0.51900  0.42100  0.99700  1.0000
  Tb  Tb1       1.0  0.35700  0.13300  0.25400  1.0000
  Tb  Tb2       1.0  0.86700  0.22500  0.25400  1.0000
  Tb  Tb3       1.0  0.77500  0.64300  0.25400  1.0000
  Tb  Tb4       1.0  0.22500  0.35700  0.75400  1.0000
  Tb  Tb5       1.0  0.13300  0.77500  0.75400  1.0000
  Tb  Tb6       1.0  0.64300  0.86700  0.75400  1.0000
