data_image0
_chemical_formula_structural       Ca6O14Ru4
_chemical_formula_sum              "Ca6 O14 Ru4"
_cell_length_a       10.092
_cell_length_b       5.36499
_cell_length_c       5.56869
_cell_angle_alpha    90
_cell_angle_beta     90
_cell_angle_gamma    105.415

_space_group_name_H-M_alt    "P 1"
_space_group_IT_number       1

loop_
  _space_group_symop_operation_xyz
  'x, y, z'

loop_
  _atom_site_type_symbol
  _atom_site_label
  _atom_site_symmetry_multiplicity
  _atom_site_fract_x
  _atom_site_fract_y
  _atom_site_fract_z
  _atom_site_occupancy
  Ca  Ca1       1.0  0.00000  0.73300  0.18800  1.0000
  Ca  Ca2       1.0  0.62200  0.55400  0.31200  1.0000
  Ca  Ca3       1.0  0.37800  0.93300  0.31200  1.0000
  Ca  Ca4       1.0  0.00000  0.26700  0.68800  1.0000
  Ca  Ca5       1.0  0.62200  0.06740  0.81200  1.0000
  Ca  Ca6       1.0  0.37800  0.44600  0.81200  1.0000
  O   O1        1.0  0.23800  0.06550  0.04890  1.0000
  O   O2        1.0  0.76200  0.82700  0.04890  1.0000
  O   O3        1.0  0.60100  0.12600  0.22800  1.0000
  O   O4        1.0  0.39900  0.52500  0.22800  1.0000
  O   O5        1.0  0.00000  0.15400  0.27400  1.0000
  O   O6        1.0  0.84100  0.47600  0.44900  1.0000
  O   O7        1.0  0.15900  0.63500  0.44900  1.0000
  O   O8        1.0  0.23800  0.17300  0.54900  1.0000
  O   O9        1.0  0.76200  0.93500  0.54900  1.0000
  O   O10       1.0  0.60100  0.47500  0.72800  1.0000
  O   O11       1.0  0.39900  0.87400  0.72800  1.0000
  O   O12       1.0  0.00000  0.84600  0.77400  1.0000
  O   O13       1.0  0.84100  0.36500  0.94900  1.0000
  O   O14       1.0  0.15900  0.52400  0.94900  1.0000
  Ru  Ru1       1.0  0.80200  0.14900  0.25200  1.0000
  Ru  Ru2       1.0  0.19800  0.34700  0.25200  1.0000
  Ru  Ru3       1.0  0.80200  0.65300  0.75200  1.0000
  Ru  Ru4       1.0  0.19800  0.85100  0.75200  1.0000
