data_image0
_chemical_formula_structural       Al2Ca4Nb2O12
_chemical_formula_sum              "Al2 Ca4 Nb2 O12"
_cell_length_a       5.36313
_cell_length_b       5.44638
_cell_length_c       7.62459
_cell_angle_alpha    89.9991
_cell_angle_beta     89.8732
_cell_angle_gamma    90.0005

_space_group_name_H-M_alt    "P 1"
_space_group_IT_number       1

loop_
  _space_group_symop_operation_xyz
  'x, y, z'

loop_
  _atom_site_type_symbol
  _atom_site_label
  _atom_site_symmetry_multiplicity
  _atom_site_fract_x
  _atom_site_fract_y
  _atom_site_fract_z
  _atom_site_occupancy
  Al  Al1       1.0  0.00000  0.50000  0.00000  1.0000
  Al  Al2       1.0  0.50000  0.00000  0.50000  1.0000
  Ca  Ca1       1.0  0.99200  0.04000  0.24900  1.0000
  Ca  Ca2       1.0  0.50800  0.54000  0.25100  1.0000
  Ca  Ca3       1.0  0.49200  0.46000  0.74900  1.0000
  Ca  Ca4       1.0  0.00805  0.96000  0.75100  1.0000
  Nb  Nb1       1.0  0.50000  0.00000  0.00000  1.0000
  Nb  Nb2       1.0  0.00000  0.50000  0.50000  1.0000
  O   O1        1.0  0.79700  0.78500  0.03930  1.0000
  O   O2        1.0  0.71500  0.29500  0.04010  1.0000
  O   O3        1.0  0.07620  0.48100  0.24300  1.0000
  O   O4        1.0  0.42400  0.98100  0.25700  1.0000
  O   O5        1.0  0.78500  0.79600  0.46000  1.0000
  O   O6        1.0  0.70300  0.28500  0.46100  1.0000
  O   O7        1.0  0.29700  0.71500  0.53900  1.0000
  O   O8        1.0  0.21500  0.20500  0.54000  1.0000
  O   O9        1.0  0.57600  0.01900  0.74400  1.0000
  O   O10       1.0  0.92400  0.51900  0.75700  1.0000
  O   O11       1.0  0.28500  0.70400  0.96000  1.0000
  O   O12       1.0  0.20300  0.21500  0.96100  1.0000
