data_image0
_chemical_formula_structural       Mo4Nd2O16Tl2
_chemical_formula_sum              "Mo4 Nd2 O16 Tl2"
_cell_length_a       6.22684
_cell_length_b       6.22684
_cell_length_c       9.54163
_cell_angle_alpha    90
_cell_angle_beta     90
_cell_angle_gamma    90

_space_group_name_H-M_alt    "P 1"
_space_group_IT_number       1

loop_
  _space_group_symop_operation_xyz
  'x, y, z'

loop_
  _atom_site_type_symbol
  _atom_site_label
  _atom_site_symmetry_multiplicity
  _atom_site_fract_x
  _atom_site_fract_y
  _atom_site_fract_z
  _atom_site_occupancy
  Mo  Mo1       1.0  0.75000  0.25000  0.00000  1.0000
  Mo  Mo2       1.0  0.25000  0.75000  0.00000  1.0000
  Mo  Mo3       1.0  0.75000  0.25000  0.50000  1.0000
  Mo  Mo4       1.0  0.25000  0.75000  0.50000  1.0000
  Nd  Nd1       1.0  0.25000  0.25000  0.25000  1.0000
  Nd  Nd2       1.0  0.75000  0.75000  0.75000  1.0000
  O   O1        1.0  0.94400  0.12600  0.11300  1.0000
  O   O2        1.0  0.55600  0.37400  0.11300  1.0000
  O   O3        1.0  0.12600  0.55600  0.11300  1.0000
  O   O4        1.0  0.37400  0.94400  0.11300  1.0000
  O   O5        1.0  0.55600  0.12600  0.38700  1.0000
  O   O6        1.0  0.94400  0.37400  0.38700  1.0000
  O   O7        1.0  0.37400  0.55600  0.38700  1.0000
  O   O8        1.0  0.12600  0.94400  0.38700  1.0000
  O   O9        1.0  0.87400  0.05650  0.61300  1.0000
  O   O10       1.0  0.62600  0.44400  0.61300  1.0000
  O   O11       1.0  0.05650  0.62600  0.61300  1.0000
  O   O12       1.0  0.44400  0.87400  0.61300  1.0000
  O   O13       1.0  0.62600  0.05650  0.88700  1.0000
  O   O14       1.0  0.87400  0.44400  0.88700  1.0000
  O   O15       1.0  0.44400  0.62600  0.88700  1.0000
  O   O16       1.0  0.05650  0.87400  0.88700  1.0000
  Tl  Tl1       1.0  0.75000  0.75000  0.25000  1.0000
  Tl  Tl2       1.0  0.25000  0.25000  0.75000  1.0000
