data_image0
_chemical_formula_structural       Ga4La8N12
_chemical_formula_sum              "Ga4 La8 N12"
_cell_length_a       5.68124
_cell_length_b       6.15996
_cell_length_c       11.9606
_cell_angle_alpha    91.7089
_cell_angle_beta     93.7079
_cell_angle_gamma    62.5392

_space_group_name_H-M_alt    "P 1"
_space_group_IT_number       1

loop_
  _space_group_symop_operation_xyz
  'x, y, z'

loop_
  _atom_site_type_symbol
  _atom_site_label
  _atom_site_symmetry_multiplicity
  _atom_site_fract_x
  _atom_site_fract_y
  _atom_site_fract_z
  _atom_site_occupancy
  Ga  Ga1       1.0  0.27200  0.99700  0.16200  1.0000
  Ga  Ga2       1.0  0.73100  0.99700  0.33800  1.0000
  Ga  Ga3       1.0  0.26900  0.00347  0.66200  1.0000
  Ga  Ga4       1.0  0.72800  0.00347  0.83800  1.0000
  La  La1       1.0  0.65500  0.21100  0.07470  1.0000
  La  La2       1.0  0.96900  0.58600  0.15100  1.0000
  La  La3       1.0  0.44500  0.58600  0.34900  1.0000
  La  La4       1.0  0.13400  0.21100  0.42500  1.0000
  La  La5       1.0  0.86600  0.78900  0.57500  1.0000
  La  La6       1.0  0.55500  0.41400  0.65100  1.0000
  La  La7       1.0  0.03110  0.41400  0.84900  1.0000
  La  La8       1.0  0.34500  0.78900  0.92500  1.0000
  N   N1        1.0  0.11900  0.20100  0.02670  1.0000
  N   N2        1.0  0.50400  0.64200  0.13000  1.0000
  N   N3        1.0  0.39800  0.20300  0.25000  1.0000
  N   N4        1.0  0.00803  0.98400  0.25000  1.0000
  N   N5        1.0  0.85400  0.64200  0.37000  1.0000
  N   N6        1.0  0.68000  0.20100  0.47300  1.0000
  N   N7        1.0  0.32000  0.79900  0.52700  1.0000
  N   N8        1.0  0.14600  0.35800  0.63000  1.0000
  N   N9        1.0  0.99200  0.01610  0.75000  1.0000
  N   N10       1.0  0.60200  0.79700  0.75000  1.0000
  N   N11       1.0  0.49600  0.35800  0.87000  1.0000
  N   N12       1.0  0.88100  0.79900  0.97300  1.0000
