data_image0
_chemical_formula_structural       Li4O6Sr2
_chemical_formula_sum              "Li4 O6 Sr2"
_cell_length_a       6.0452
_cell_length_b       6.0452
_cell_length_c       4.87891
_cell_angle_alpha    104.161
_cell_angle_beta     104.161
_cell_angle_gamma    115.769

_space_group_name_H-M_alt    "P 1"
_space_group_IT_number       1

loop_
  _space_group_symop_operation_xyz
  'x, y, z'

loop_
  _atom_site_type_symbol
  _atom_site_label
  _atom_site_symmetry_multiplicity
  _atom_site_fract_x
  _atom_site_fract_y
  _atom_site_fract_z
  _atom_site_occupancy
  Li  Li1       1.0  0.50000  0.50000  0.00000  1.0000
  Li  Li2       1.0  0.61100  0.38900  0.50000  1.0000
  Li  Li3       1.0  0.38900  0.61100  0.50000  1.0000
  Li  Li4       1.0  0.00000  0.00000  0.50000  1.0000
  O   O1        1.0  0.28300  0.28300  0.12600  1.0000
  O   O2        1.0  0.93800  0.56400  0.41300  1.0000
  O   O3        1.0  0.56400  0.93800  0.41300  1.0000
  O   O4        1.0  0.43600  0.06240  0.58700  1.0000
  O   O5        1.0  0.06240  0.43600  0.58700  1.0000
  O   O6        1.0  0.71700  0.71700  0.87400  1.0000
  Sr  Sr1       1.0  0.83000  0.17000  0.00000  1.0000
  Sr  Sr2       1.0  0.17000  0.83000  0.00000  1.0000
