data_image0
_chemical_formula_structural       Na8Sn16
_chemical_formula_sum              "Na8 Sn16"
_cell_length_a       6.92862
_cell_length_b       7.59797
_cell_length_c       15.5318
_cell_angle_alpha    101.199
_cell_angle_beta     90
_cell_angle_gamma    117.126

_space_group_name_H-M_alt    "P 1"
_space_group_IT_number       1

loop_
  _space_group_symop_operation_xyz
  'x, y, z'

loop_
  _atom_site_type_symbol
  _atom_site_label
  _atom_site_symmetry_multiplicity
  _atom_site_fract_x
  _atom_site_fract_y
  _atom_site_fract_z
  _atom_site_occupancy
  Na  Na1       1.0  0.25000  0.00000  0.00000  1.0000
  Na  Na2       1.0  0.75000  0.00000  0.00000  1.0000
  Na  Na3       1.0  0.27200  0.54400  0.08840  1.0000
  Na  Na4       1.0  0.09260  0.18500  0.41600  1.0000
  Na  Na5       1.0  0.61500  0.23100  0.43300  1.0000
  Na  Na6       1.0  0.38500  0.76900  0.56700  1.0000
  Na  Na7       1.0  0.90700  0.81500  0.58400  1.0000
  Na  Na8       1.0  0.72800  0.45600  0.91200  1.0000
  Sn  Sn1       1.0  0.67300  0.34500  0.11300  1.0000
  Sn  Sn2       1.0  0.88500  0.77100  0.11400  1.0000
  Sn  Sn3       1.0  0.38900  0.34400  0.25200  1.0000
  Sn  Sn4       1.0  0.95500  0.34400  0.25200  1.0000
  Sn  Sn5       1.0  0.24000  0.90900  0.25300  1.0000
  Sn  Sn6       1.0  0.67000  0.90900  0.25300  1.0000
  Sn  Sn7       1.0  0.06680  0.69700  0.39600  1.0000
  Sn  Sn8       1.0  0.63100  0.69700  0.39600  1.0000
  Sn  Sn9       1.0  0.36900  0.30300  0.60400  1.0000
  Sn  Sn10      1.0  0.93300  0.30300  0.60400  1.0000
  Sn  Sn11      1.0  0.33000  0.09080  0.74700  1.0000
  Sn  Sn12      1.0  0.76000  0.09080  0.74700  1.0000
  Sn  Sn13      1.0  0.04520  0.65600  0.74800  1.0000
  Sn  Sn14      1.0  0.61100  0.65600  0.74800  1.0000
  Sn  Sn15      1.0  0.11500  0.22900  0.88600  1.0000
  Sn  Sn16      1.0  0.32700  0.65500  0.88700  1.0000
