data_image0
_chemical_formula_structural       Nd2O16Rb2W4
_chemical_formula_sum              "Nd2 O16 Rb2 W4"
_cell_length_a       7.57079
_cell_length_b       7.57079
_cell_length_c       7.63705
_cell_angle_alpha    117.465
_cell_angle_beta     62.5345
_cell_angle_gamma    90.6516

_space_group_name_H-M_alt    "P 1"
_space_group_IT_number       1

loop_
  _space_group_symop_operation_xyz
  'x, y, z'

loop_
  _atom_site_type_symbol
  _atom_site_label
  _atom_site_symmetry_multiplicity
  _atom_site_fract_x
  _atom_site_fract_y
  _atom_site_fract_z
  _atom_site_occupancy
  Nd  Nd1       1.0  0.77200  0.77200  0.25000  1.0000
  Nd  Nd2       1.0  0.22800  0.22800  0.75000  1.0000
  O   O1        1.0  0.63200  0.58200  0.02270  1.0000
  O   O2        1.0  0.61900  0.24000  0.05780  1.0000
  O   O3        1.0  0.92700  0.39200  0.13600  1.0000
  O   O4        1.0  0.79800  0.05210  0.18800  1.0000
  O   O5        1.0  0.05210  0.79800  0.31200  1.0000
  O   O6        1.0  0.39200  0.92700  0.36400  1.0000
  O   O7        1.0  0.24000  0.61900  0.44200  1.0000
  O   O8        1.0  0.58200  0.63200  0.47700  1.0000
  O   O9        1.0  0.41800  0.36800  0.52300  1.0000
  O   O10       1.0  0.76000  0.38100  0.55800  1.0000
  O   O11       1.0  0.60800  0.07280  0.63600  1.0000
  O   O12       1.0  0.94800  0.20200  0.68800  1.0000
  O   O13       1.0  0.20200  0.94800  0.81200  1.0000
  O   O14       1.0  0.07280  0.60800  0.86400  1.0000
  O   O15       1.0  0.38100  0.76000  0.94200  1.0000
  O   O16       1.0  0.36800  0.41800  0.97700  1.0000
  Rb  Rb1       1.0  0.19800  0.19800  0.25000  1.0000
  Rb  Rb2       1.0  0.80200  0.80200  0.75000  1.0000
  W   W1        1.0  0.30800  0.69600  0.23300  1.0000
  W   W2        1.0  0.69600  0.30800  0.26700  1.0000
  W   W3        1.0  0.30400  0.69200  0.73300  1.0000
  W   W4        1.0  0.69200  0.30400  0.76700  1.0000
