data_image0
_chemical_formula_structural       Cu2Ho6Se14Si2
_chemical_formula_sum              "Cu2 Ho6 Se14 Si2"
_cell_length_a       10.292
_cell_length_b       10.2919
_cell_length_c       6.01804
_cell_angle_alpha    90
_cell_angle_beta     90
_cell_angle_gamma    120

_space_group_name_H-M_alt    "P 1"
_space_group_IT_number       1

loop_
  _space_group_symop_operation_xyz
  'x, y, z'

loop_
  _atom_site_type_symbol
  _atom_site_label
  _atom_site_symmetry_multiplicity
  _atom_site_fract_x
  _atom_site_fract_y
  _atom_site_fract_z
  _atom_site_occupancy
  Cu  Cu1       1.0  0.00000  0.00000  0.17800  1.0000
  Cu  Cu2       1.0  0.00000  0.00000  0.67800  1.0000
  Ho  Ho1       1.0  0.35600  0.22200  0.22900  1.0000
  Ho  Ho2       1.0  0.77800  0.13400  0.22900  1.0000
  Ho  Ho3       1.0  0.86600  0.64400  0.22900  1.0000
  Ho  Ho4       1.0  0.64400  0.77800  0.72900  1.0000
  Ho  Ho5       1.0  0.13400  0.35600  0.72900  1.0000
  Ho  Ho6       1.0  0.22200  0.86600  0.72900  1.0000
  Se  Se1       1.0  0.10100  0.26300  0.19600  1.0000
  Se  Se2       1.0  0.73700  0.83800  0.19600  1.0000
  Se  Se3       1.0  0.16200  0.89900  0.19600  1.0000
  Se  Se4       1.0  0.66700  0.33300  0.44100  1.0000
  Se  Se5       1.0  0.09920  0.57800  0.47500  1.0000
  Se  Se6       1.0  0.42200  0.52100  0.47500  1.0000
  Se  Se7       1.0  0.47900  0.90100  0.47500  1.0000
  Se  Se8       1.0  0.83800  0.10100  0.69600  1.0000
  Se  Se9       1.0  0.89900  0.73700  0.69600  1.0000
  Se  Se10      1.0  0.26300  0.16200  0.69600  1.0000
  Se  Se11      1.0  0.33300  0.66700  0.94100  1.0000
  Se  Se12      1.0  0.90100  0.42200  0.97500  1.0000
  Se  Se13      1.0  0.52100  0.09910  0.97500  1.0000
  Se  Se14      1.0  0.57800  0.47900  0.97500  1.0000
  Si  Si1       1.0  0.33300  0.66700  0.31900  1.0000
  Si  Si2       1.0  0.66700  0.33300  0.81900  1.0000
