data_image0
_chemical_formula_structural       Hg2Li4O6
_chemical_formula_sum              "Hg2 Li4 O6"
_cell_length_a       5.45819
_cell_length_b       5.45819
_cell_length_c       5.19121
_cell_angle_alpha    99.2006
_cell_angle_beta     99.2006
_cell_angle_gamma    121.229

_space_group_name_H-M_alt    "P 1"
_space_group_IT_number       1

loop_
  _space_group_symop_operation_xyz
  'x, y, z'

loop_
  _atom_site_type_symbol
  _atom_site_label
  _atom_site_symmetry_multiplicity
  _atom_site_fract_x
  _atom_site_fract_y
  _atom_site_fract_z
  _atom_site_occupancy
  Hg  Hg1       1.0  0.83900  0.16100  0.00000  1.0000
  Hg  Hg2       1.0  0.16100  0.83900  0.00000  1.0000
  Li  Li1       1.0  0.50000  0.50000  0.00000  1.0000
  Li  Li2       1.0  0.00000  0.00000  0.50000  1.0000
  Li  Li3       1.0  0.66700  0.33300  0.50000  1.0000
  Li  Li4       1.0  0.33300  0.66700  0.50000  1.0000
  O   O1        1.0  0.93300  0.60800  0.25300  1.0000
  O   O2        1.0  0.60800  0.93300  0.25300  1.0000
  O   O3        1.0  0.27900  0.27900  0.28100  1.0000
  O   O4        1.0  0.72100  0.72100  0.71900  1.0000
  O   O5        1.0  0.39200  0.06750  0.74700  1.0000
  O   O6        1.0  0.06750  0.39200  0.74700  1.0000
