data_image0
_chemical_formula_structural       Cu2S14Sn2Tb6
_chemical_formula_sum              "Cu2 S14 Sn2 Tb6"
_cell_length_a       9.78865
_cell_length_b       9.78867
_cell_length_c       6.20828
_cell_angle_alpha    90
_cell_angle_beta     90
_cell_angle_gamma    120

_space_group_name_H-M_alt    "P 1"
_space_group_IT_number       1

loop_
  _space_group_symop_operation_xyz
  'x, y, z'

loop_
  _atom_site_type_symbol
  _atom_site_label
  _atom_site_symmetry_multiplicity
  _atom_site_fract_x
  _atom_site_fract_y
  _atom_site_fract_z
  _atom_site_occupancy
  Cu  Cu1       1.0  0.00000  0.00000  0.17300  1.0000
  Cu  Cu2       1.0  0.00000  0.00000  0.67300  1.0000
  S   S1        1.0  0.56400  0.08210  0.02020  1.0000
  S   S2        1.0  0.51800  0.43600  0.02020  1.0000
  S   S3        1.0  0.91800  0.48200  0.02020  1.0000
  S   S4        1.0  0.14900  0.26200  0.19900  1.0000
  S   S5        1.0  0.73800  0.88600  0.19900  1.0000
  S   S6        1.0  0.11400  0.85100  0.19900  1.0000
  S   S7        1.0  0.66700  0.33300  0.45300  1.0000
  S   S8        1.0  0.43600  0.91800  0.52000  1.0000
  S   S9        1.0  0.48200  0.56400  0.52000  1.0000
  S   S10       1.0  0.08210  0.51800  0.52000  1.0000
  S   S11       1.0  0.26200  0.11400  0.69900  1.0000
  S   S12       1.0  0.85100  0.73800  0.69900  1.0000
  S   S13       1.0  0.88600  0.14900  0.69900  1.0000
  S   S14       1.0  0.33300  0.66700  0.95300  1.0000
  Sn  Sn1       1.0  0.33300  0.66700  0.33900  1.0000
  Sn  Sn2       1.0  0.66700  0.33300  0.83900  1.0000
  Tb  Tb1       1.0  0.85100  0.21000  0.27200  1.0000
  Tb  Tb2       1.0  0.35900  0.14900  0.27200  1.0000
  Tb  Tb3       1.0  0.79000  0.64100  0.27200  1.0000
  Tb  Tb4       1.0  0.14900  0.79000  0.77200  1.0000
  Tb  Tb5       1.0  0.21000  0.35900  0.77200  1.0000
  Tb  Tb6       1.0  0.64100  0.85100  0.77200  1.0000
