data_image0
_chemical_formula_structural       Li4O6Tl2
_chemical_formula_sum              "Li4 O6 Tl2"
_cell_length_a       5.46672
_cell_length_b       5.46672
_cell_length_c       5.24192
_cell_angle_alpha    99.9267
_cell_angle_beta     99.9267
_cell_angle_gamma    119.975

_space_group_name_H-M_alt    "P 1"
_space_group_IT_number       1

loop_
  _space_group_symop_operation_xyz
  'x, y, z'

loop_
  _atom_site_type_symbol
  _atom_site_label
  _atom_site_symmetry_multiplicity
  _atom_site_fract_x
  _atom_site_fract_y
  _atom_site_fract_z
  _atom_site_occupancy
  Li  Li1       1.0  0.50000  0.50000  0.00000  1.0000
  Li  Li2       1.0  0.00000  0.00000  0.50000  1.0000
  Li  Li3       1.0  0.66100  0.33900  0.50000  1.0000
  Li  Li4       1.0  0.33900  0.66100  0.50000  1.0000
  O   O1        1.0  0.91500  0.58900  0.26000  1.0000
  O   O2        1.0  0.58900  0.91500  0.26000  1.0000
  O   O3        1.0  0.25900  0.25900  0.26400  1.0000
  O   O4        1.0  0.74100  0.74100  0.73600  1.0000
  O   O5        1.0  0.41100  0.08450  0.74000  1.0000
  O   O6        1.0  0.08450  0.41100  0.74000  1.0000
  Tl  Tl1       1.0  0.83300  0.16700  0.00000  1.0000
  Tl  Tl2       1.0  0.16700  0.83300  0.00000  1.0000
