data_image0
_chemical_formula_structural       Ce3O16Zr5
_chemical_formula_sum              "Ce3 O16 Zr5"
_cell_length_a       7.60616
_cell_length_b       7.60622
_cell_length_c       5.44405
_cell_angle_alpha    90
_cell_angle_beta     90
_cell_angle_gamma    90.5451

_space_group_name_H-M_alt    "P 1"
_space_group_IT_number       1

loop_
  _space_group_symop_operation_xyz
  'x, y, z'

loop_
  _atom_site_type_symbol
  _atom_site_label
  _atom_site_symmetry_multiplicity
  _atom_site_fract_x
  _atom_site_fract_y
  _atom_site_fract_z
  _atom_site_occupancy
  Ce  Ce1       1.0  0.49300  0.50700  0.00000  1.0000
  Ce  Ce2       1.0  0.00693  0.99300  0.00000  1.0000
  Ce  Ce3       1.0  0.75000  0.25000  0.50000  1.0000
  O   O1        1.0  0.05790  0.70900  0.18600  1.0000
  O   O2        1.0  0.44200  0.79100  0.18600  1.0000
  O   O3        1.0  0.49800  0.22700  0.23000  1.0000
  O   O4        1.0  0.00205  0.27300  0.23000  1.0000
  O   O5        1.0  0.75500  0.54000  0.26100  1.0000
  O   O6        1.0  0.74500  0.96000  0.26100  1.0000
  O   O7        1.0  0.21600  0.00765  0.35400  1.0000
  O   O8        1.0  0.28400  0.49200  0.35400  1.0000
  O   O9        1.0  0.50800  0.71600  0.64600  1.0000
  O   O10       1.0  0.99200  0.78400  0.64600  1.0000
  O   O11       1.0  0.46000  0.24500  0.73900  1.0000
  O   O12       1.0  0.04040  0.25500  0.73900  1.0000
  O   O13       1.0  0.77300  0.50200  0.77000  1.0000
  O   O14       1.0  0.72700  0.99800  0.77000  1.0000
  O   O15       1.0  0.20900  0.55800  0.81400  1.0000
  O   O16       1.0  0.29100  0.94200  0.81400  1.0000
  Zr  Zr1       1.0  0.51900  0.01890  0.00000  1.0000
  Zr  Zr2       1.0  0.98100  0.48100  0.00000  1.0000
  Zr  Zr3       1.0  0.25000  0.25000  0.50000  1.0000
  Zr  Zr4       1.0  0.25000  0.75000  0.50000  1.0000
  Zr  Zr5       1.0  0.75000  0.75000  0.50000  1.0000
