data_image0
_chemical_formula_structural       As4Nd4O16
_chemical_formula_sum              "As4 Nd4 O16"
_cell_length_a       6.69144
_cell_length_b       7.10165
_cell_length_c       6.90207
_cell_angle_alpha    90
_cell_angle_beta     104.983
_cell_angle_gamma    90

_space_group_name_H-M_alt    "P 1"
_space_group_IT_number       1

loop_
  _space_group_symop_operation_xyz
  'x, y, z'

loop_
  _atom_site_type_symbol
  _atom_site_label
  _atom_site_symmetry_multiplicity
  _atom_site_fract_x
  _atom_site_fract_y
  _atom_site_fract_z
  _atom_site_occupancy
  As  As1       1.0  0.88700  0.16200  0.19800  1.0000
  As  As2       1.0  0.61300  0.66200  0.30200  1.0000
  As  As3       1.0  0.38700  0.33800  0.69800  1.0000
  As  As4       1.0  0.11300  0.83800  0.80200  1.0000
  Nd  Nd1       1.0  0.40300  0.15200  0.22000  1.0000
  Nd  Nd2       1.0  0.09660  0.65200  0.28000  1.0000
  Nd  Nd3       1.0  0.90300  0.34800  0.72000  1.0000
  Nd  Nd4       1.0  0.59700  0.84800  0.78000  1.0000
  O   O1        1.0  0.66700  0.10800  0.01530  1.0000
  O   O2        1.0  0.00261  0.34500  0.10600  1.0000
  O   O3        1.0  0.72700  0.71400  0.11400  1.0000
  O   O4        1.0  0.07710  0.99500  0.24900  1.0000
  O   O5        1.0  0.42300  0.49500  0.25100  1.0000
  O   O6        1.0  0.77300  0.21400  0.38600  1.0000
  O   O7        1.0  0.49700  0.84500  0.39400  1.0000
  O   O8        1.0  0.83300  0.60800  0.48500  1.0000
  O   O9        1.0  0.16700  0.39200  0.51500  1.0000
  O   O10       1.0  0.50300  0.15500  0.60600  1.0000
  O   O11       1.0  0.22700  0.78600  0.61400  1.0000
  O   O12       1.0  0.57700  0.50500  0.74900  1.0000
  O   O13       1.0  0.92300  0.00541  0.75100  1.0000
  O   O14       1.0  0.27300  0.28600  0.88600  1.0000
  O   O15       1.0  0.99700  0.65500  0.89400  1.0000
  O   O16       1.0  0.33300  0.89200  0.98500  1.0000
