data_image0
_chemical_formula_structural       Li4O6Pa2
_chemical_formula_sum              "Li4 O6 Pa2"
_cell_length_a       5.86157
_cell_length_b       5.86157
_cell_length_c       5.24251
_cell_angle_alpha    99.5566
_cell_angle_beta     99.5566
_cell_angle_gamma    120.922

_space_group_name_H-M_alt    "P 1"
_space_group_IT_number       1

loop_
  _space_group_symop_operation_xyz
  'x, y, z'

loop_
  _atom_site_type_symbol
  _atom_site_label
  _atom_site_symmetry_multiplicity
  _atom_site_fract_x
  _atom_site_fract_y
  _atom_site_fract_z
  _atom_site_occupancy
  Li  Li1       1.0  0.50000  0.50000  0.00000  1.0000
  Li  Li2       1.0  0.00000  0.00000  0.50000  1.0000
  Li  Li3       1.0  0.62800  0.37200  0.50000  1.0000
  Li  Li4       1.0  0.37200  0.62800  0.50000  1.0000
  O   O1        1.0  0.90400  0.57500  0.24400  1.0000
  O   O2        1.0  0.57500  0.90400  0.24400  1.0000
  O   O3        1.0  0.24100  0.24100  0.25500  1.0000
  O   O4        1.0  0.75900  0.75900  0.74500  1.0000
  O   O5        1.0  0.42500  0.09630  0.75600  1.0000
  O   O6        1.0  0.09630  0.42500  0.75600  1.0000
  Pa  Pa1       1.0  0.83200  0.16800  0.00000  1.0000
  Pa  Pa2       1.0  0.16800  0.83200  0.00000  1.0000
