data_image0
_chemical_formula_structural       Cu2Ho6S14Sn2
_chemical_formula_sum              "Cu2 Ho6 S14 Sn2"
_cell_length_a       9.69322
_cell_length_b       9.69324
_cell_length_c       6.23424
_cell_angle_alpha    90
_cell_angle_beta     90
_cell_angle_gamma    120

_space_group_name_H-M_alt    "P 1"
_space_group_IT_number       1

loop_
  _space_group_symop_operation_xyz
  'x, y, z'

loop_
  _atom_site_type_symbol
  _atom_site_label
  _atom_site_symmetry_multiplicity
  _atom_site_fract_x
  _atom_site_fract_y
  _atom_site_fract_z
  _atom_site_occupancy
  Cu  Cu1       1.0  0.00000  0.00000  0.15400  1.0000
  Cu  Cu2       1.0  0.00000  0.00000  0.65400  1.0000
  Ho  Ho1       1.0  0.36000  0.15200  0.27500  1.0000
  Ho  Ho2       1.0  0.84800  0.20800  0.27500  1.0000
  Ho  Ho3       1.0  0.79200  0.64000  0.27500  1.0000
  Ho  Ho4       1.0  0.15200  0.79200  0.77500  1.0000
  Ho  Ho5       1.0  0.64000  0.84800  0.77500  1.0000
  Ho  Ho6       1.0  0.20800  0.36000  0.77500  1.0000
  S   S1        1.0  0.91900  0.48000  0.02270  1.0000
  S   S2        1.0  0.56100  0.08090  0.02270  1.0000
  S   S3        1.0  0.52000  0.43900  0.02270  1.0000
  S   S4        1.0  0.14600  0.26400  0.19300  1.0000
  S   S5        1.0  0.11700  0.85400  0.19300  1.0000
  S   S6        1.0  0.73600  0.88300  0.19300  1.0000
  S   S7        1.0  0.66700  0.33300  0.45300  1.0000
  S   S8        1.0  0.08090  0.52000  0.52300  1.0000
  S   S9        1.0  0.48000  0.56100  0.52300  1.0000
  S   S10       1.0  0.43900  0.91900  0.52300  1.0000
  S   S11       1.0  0.26400  0.11700  0.69300  1.0000
  S   S12       1.0  0.88300  0.14600  0.69300  1.0000
  S   S13       1.0  0.85400  0.73600  0.69300  1.0000
  S   S14       1.0  0.33300  0.66700  0.95300  1.0000
  Sn  Sn1       1.0  0.33300  0.66700  0.33800  1.0000
  Sn  Sn2       1.0  0.66700  0.33300  0.83800  1.0000
