data_image0
_chemical_formula_structural       Cu4P4Se12Tl4
_chemical_formula_sum              "Cu4 P4 Se12 Tl4"
_cell_length_a       7.61342
_cell_length_b       9.39533
_cell_length_c       8.62884
_cell_angle_alpha    90
_cell_angle_beta     90.789
_cell_angle_gamma    90

_space_group_name_H-M_alt    "P 1"
_space_group_IT_number       1

loop_
  _space_group_symop_operation_xyz
  'x, y, z'

loop_
  _atom_site_type_symbol
  _atom_site_label
  _atom_site_symmetry_multiplicity
  _atom_site_fract_x
  _atom_site_fract_y
  _atom_site_fract_z
  _atom_site_occupancy
  Cu  Cu1       1.0  0.31900  0.66600  0.23200  1.0000
  Cu  Cu2       1.0  0.18100  0.16600  0.26800  1.0000
  Cu  Cu3       1.0  0.81900  0.83400  0.73200  1.0000
  Cu  Cu4       1.0  0.68100  0.33400  0.76800  1.0000
  P   P1        1.0  0.00000  0.89800  0.06990  1.0000
  P   P2        1.0  0.50000  0.39800  0.43000  1.0000
  P   P3        1.0  0.50000  0.60200  0.57000  1.0000
  P   P4        1.0  0.00046  0.10200  0.93000  1.0000
  Se  Se1       1.0  0.75600  0.21900  0.00034  1.0000
  Se  Se2       1.0  0.23800  0.22600  0.00660  1.0000
  Se  Se3       1.0  0.51300  0.47300  0.18700  1.0000
  Se  Se4       1.0  0.98700  0.97300  0.31300  1.0000
  Se  Se5       1.0  0.26200  0.72600  0.49300  1.0000
  Se  Se6       1.0  0.74400  0.71900  0.50000  1.0000
  Se  Se7       1.0  0.25600  0.28100  0.50000  1.0000
  Se  Se8       1.0  0.73800  0.27400  0.50700  1.0000
  Se  Se9       1.0  0.01280  0.02720  0.68700  1.0000
  Se  Se10      1.0  0.48700  0.52700  0.81300  1.0000
  Se  Se11      1.0  0.76200  0.77400  0.99300  1.0000
  Se  Se12      1.0  0.24400  0.78100  0.00000  1.0000
  Tl  Tl1       1.0  0.95400  0.47600  0.24200  1.0000
  Tl  Tl2       1.0  0.54600  0.97600  0.25800  1.0000
  Tl  Tl3       1.0  0.45400  0.02430  0.74200  1.0000
  Tl  Tl4       1.0  0.04570  0.52400  0.75800  1.0000
