data_image0
_chemical_formula_structural       Ag4O12Te4Tl4
_chemical_formula_sum              "Ag4 O12 Te4 Tl4"
_cell_length_a       5.10326
_cell_length_b       9.57884
_cell_length_c       9.57884
_cell_angle_alpha    102.109
_cell_angle_beta     105.449
_cell_angle_gamma    105.449

_space_group_name_H-M_alt    "P 1"
_space_group_IT_number       1

loop_
  _space_group_symop_operation_xyz
  'x, y, z'

loop_
  _atom_site_type_symbol
  _atom_site_label
  _atom_site_symmetry_multiplicity
  _atom_site_fract_x
  _atom_site_fract_y
  _atom_site_fract_z
  _atom_site_occupancy
  Ag  Ag1       1.0  0.87600  0.62500  0.14100  1.0000
  Ag  Ag2       1.0  0.61000  0.85900  0.37500  1.0000
  Ag  Ag3       1.0  0.37600  0.14100  0.62500  1.0000
  Ag  Ag4       1.0  0.11000  0.37500  0.85900  1.0000
  O   O1        1.0  0.25400  0.24400  0.04350  1.0000
  O   O2        1.0  0.40200  0.65800  0.11500  1.0000
  O   O3        1.0  0.85400  0.40200  0.20700  1.0000
  O   O4        1.0  0.75400  0.04350  0.24400  1.0000
  O   O5        1.0  0.12900  0.88500  0.34200  1.0000
  O   O6        1.0  0.35400  0.20700  0.40200  1.0000
  O   O7        1.0  0.74600  0.79300  0.59800  1.0000
  O   O8        1.0  0.90200  0.11500  0.65800  1.0000
  O   O9        1.0  0.46700  0.95700  0.75600  1.0000
  O   O10       1.0  0.24600  0.59800  0.79300  1.0000
  O   O11       1.0  0.62900  0.34200  0.88500  1.0000
  O   O12       1.0  0.96700  0.75600  0.95700  1.0000
  Te  Te1       1.0  0.61600  0.23400  0.03030  1.0000
  Te  Te2       1.0  0.11600  0.03030  0.23400  1.0000
  Te  Te3       1.0  0.85200  0.97000  0.76600  1.0000
  Te  Te4       1.0  0.35200  0.76600  0.97000  1.0000
  Tl  Tl1       1.0  0.40800  0.47700  0.29400  1.0000
  Tl  Tl2       1.0  0.90800  0.29400  0.47700  1.0000
  Tl  Tl3       1.0  0.13600  0.70600  0.52300  1.0000
  Tl  Tl4       1.0  0.63600  0.52300  0.70600  1.0000
