data_image0
_chemical_formula_structural       Au4In8Na12
_chemical_formula_sum              "Au4 In8 Na12"
_cell_length_a       9.57642
_cell_length_b       9.57642
_cell_length_c       9.57642
_cell_angle_alpha    120
_cell_angle_beta     90
_cell_angle_gamma    120

_space_group_name_H-M_alt    "P 1"
_space_group_IT_number       1

loop_
  _space_group_symop_operation_xyz
  'x, y, z'

loop_
  _atom_site_type_symbol
  _atom_site_label
  _atom_site_symmetry_multiplicity
  _atom_site_fract_x
  _atom_site_fract_y
  _atom_site_fract_z
  _atom_site_occupancy
  Au  Au1       1.0  0.00000  0.00000  0.00000  1.0000
  Au  Au2       1.0  0.50000  0.00000  0.00000  1.0000
  Au  Au3       1.0  0.50000  0.50000  0.00000  1.0000
  Au  Au4       1.0  0.50000  0.50000  0.50000  1.0000
  In  In1       1.0  0.70900  0.91800  0.12800  1.0000
  In  In2       1.0  0.29100  0.08150  0.20900  1.0000
  In  In3       1.0  0.29100  0.41800  0.20900  1.0000
  In  In4       1.0  0.62800  0.41800  0.20900  1.0000
  In  In5       1.0  0.70900  0.58200  0.79100  1.0000
  In  In6       1.0  0.70900  0.91800  0.79100  1.0000
  In  In7       1.0  0.37200  0.58200  0.79100  1.0000
  In  In8       1.0  0.29100  0.08150  0.87200  1.0000
  Na  Na1       1.0  0.92300  0.34600  0.17300  1.0000
  Na  Na2       1.0  0.92300  0.75000  0.17300  1.0000
  Na  Na3       1.0  0.32700  0.75000  0.17300  1.0000
  Na  Na4       1.0  0.67300  0.25000  0.42300  1.0000
  Na  Na5       1.0  0.67300  0.84600  0.42300  1.0000
  Na  Na6       1.0  0.07720  0.25000  0.42300  1.0000
  Na  Na7       1.0  0.32700  0.15400  0.57700  1.0000
  Na  Na8       1.0  0.32700  0.75000  0.57700  1.0000
  Na  Na9       1.0  0.92300  0.75000  0.57700  1.0000
  Na  Na10      1.0  0.67300  0.25000  0.82700  1.0000
  Na  Na11      1.0  0.07720  0.25000  0.82700  1.0000
  Na  Na12      1.0  0.07720  0.65400  0.82700  1.0000
