data_image0
_chemical_formula_structural       Al4Cl16In4
_chemical_formula_sum              "Al4 Cl16 In4"
_cell_length_a       10.8028
_cell_length_b       7.06677
_cell_length_c       9.34882
_cell_angle_alpha    90
_cell_angle_beta     90
_cell_angle_gamma    90

_space_group_name_H-M_alt    "P 1"
_space_group_IT_number       1

loop_
  _space_group_symop_operation_xyz
  'x, y, z'

loop_
  _atom_site_type_symbol
  _atom_site_label
  _atom_site_symmetry_multiplicity
  _atom_site_fract_x
  _atom_site_fract_y
  _atom_site_fract_z
  _atom_site_occupancy
  Al  Al1       1.0  0.43500  0.25000  0.18500  1.0000
  Al  Al2       1.0  0.93500  0.25000  0.31500  1.0000
  Al  Al3       1.0  0.06490  0.75000  0.68500  1.0000
  Al  Al4       1.0  0.56500  0.75000  0.81500  1.0000
  Cl  Cl1       1.0  0.27500  0.25000  0.04820  1.0000
  Cl  Cl2       1.0  0.60600  0.25000  0.06960  1.0000
  Cl  Cl3       1.0  0.92700  0.00186  0.17900  1.0000
  Cl  Cl4       1.0  0.92700  0.49800  0.17900  1.0000
  Cl  Cl5       1.0  0.42700  0.00186  0.32100  1.0000
  Cl  Cl6       1.0  0.42700  0.49800  0.32100  1.0000
  Cl  Cl7       1.0  0.10600  0.25000  0.43000  1.0000
  Cl  Cl8       1.0  0.77500  0.25000  0.45200  1.0000
  Cl  Cl9       1.0  0.22500  0.75000  0.54800  1.0000
  Cl  Cl10      1.0  0.89400  0.75000  0.57000  1.0000
  Cl  Cl11      1.0  0.57300  0.50200  0.67900  1.0000
  Cl  Cl12      1.0  0.57300  0.99800  0.67900  1.0000
  Cl  Cl13      1.0  0.07310  0.50200  0.82100  1.0000
  Cl  Cl14      1.0  0.07310  0.99800  0.82100  1.0000
  Cl  Cl15      1.0  0.39400  0.75000  0.93000  1.0000
  Cl  Cl16      1.0  0.72500  0.75000  0.95200  1.0000
  In  In1       1.0  0.19100  0.75000  0.19500  1.0000
  In  In2       1.0  0.69100  0.75000  0.30500  1.0000
  In  In3       1.0  0.30900  0.25000  0.69500  1.0000
  In  In4       1.0  0.80900  0.25000  0.80500  1.0000
