data_image0
_chemical_formula_structural       Ba2Na2O14Sc2Si4
_chemical_formula_sum              "Ba2 Na2 O14 Sc2 Si4"
_cell_length_a       6.81821
_cell_length_b       5.6311
_cell_length_c       8.78906
_cell_angle_alpha    90
_cell_angle_beta     109.5
_cell_angle_gamma    90

_space_group_name_H-M_alt    "P 1"
_space_group_IT_number       1

loop_
  _space_group_symop_operation_xyz
  'x, y, z'

loop_
  _atom_site_type_symbol
  _atom_site_label
  _atom_site_symmetry_multiplicity
  _atom_site_fract_x
  _atom_site_fract_y
  _atom_site_fract_z
  _atom_site_occupancy
  Ba  Ba1       1.0  0.29300  0.25000  0.46400  1.0000
  Ba  Ba2       1.0  0.70700  0.75000  0.53600  1.0000
  Na  Na1       1.0  0.73100  0.75000  0.00312  1.0000
  Na  Na2       1.0  0.26900  0.25000  0.99700  1.0000
  O   O1        1.0  0.63100  0.25000  0.02510  1.0000
  O   O2        1.0  0.10700  0.75000  0.14500  1.0000
  O   O3        1.0  0.46100  0.50700  0.25200  1.0000
  O   O4        1.0  0.46100  0.99300  0.25200  1.0000
  O   O5        1.0  0.91700  0.51200  0.31400  1.0000
  O   O6        1.0  0.91700  0.98800  0.31400  1.0000
  O   O7        1.0  0.26600  0.75000  0.47400  1.0000
  O   O8        1.0  0.73400  0.25000  0.52600  1.0000
  O   O9        1.0  0.08260  0.01240  0.68600  1.0000
  O   O10       1.0  0.08260  0.48800  0.68600  1.0000
  O   O11       1.0  0.53900  0.00706  0.74800  1.0000
  O   O12       1.0  0.53900  0.49300  0.74800  1.0000
  O   O13       1.0  0.89300  0.25000  0.85500  1.0000
  O   O14       1.0  0.36900  0.75000  0.97500  1.0000
  Sc  Sc1       1.0  0.69800  0.25000  0.26700  1.0000
  Sc  Sc2       1.0  0.30200  0.75000  0.73300  1.0000
  Si  Si1       1.0  0.35700  0.75000  0.15500  1.0000
  Si  Si2       1.0  0.05190  0.75000  0.31800  1.0000
  Si  Si3       1.0  0.94800  0.25000  0.68200  1.0000
  Si  Si4       1.0  0.64300  0.25000  0.84500  1.0000
