data_image0
_chemical_formula_structural       Ag4In8Na12
_chemical_formula_sum              "Ag4 In8 Na12"
_cell_length_a       9.65761
_cell_length_b       9.65761
_cell_length_c       9.65761
_cell_angle_alpha    120
_cell_angle_beta     90
_cell_angle_gamma    120

_space_group_name_H-M_alt    "P 1"
_space_group_IT_number       1

loop_
  _space_group_symop_operation_xyz
  'x, y, z'

loop_
  _atom_site_type_symbol
  _atom_site_label
  _atom_site_symmetry_multiplicity
  _atom_site_fract_x
  _atom_site_fract_y
  _atom_site_fract_z
  _atom_site_occupancy
  Ag  Ag1       1.0  0.00000  0.00000  0.00000  1.0000
  Ag  Ag2       1.0  0.50000  0.00000  0.00000  1.0000
  Ag  Ag3       1.0  0.50000  0.50000  0.00000  1.0000
  Ag  Ag4       1.0  0.50000  0.50000  0.50000  1.0000
  In  In1       1.0  0.70800  0.91700  0.12500  1.0000
  In  In2       1.0  0.29200  0.41700  0.20800  1.0000
  In  In3       1.0  0.62500  0.41700  0.20800  1.0000
  In  In4       1.0  0.29200  0.08310  0.20800  1.0000
  In  In5       1.0  0.37500  0.58300  0.79200  1.0000
  In  In6       1.0  0.70800  0.58300  0.79200  1.0000
  In  In7       1.0  0.70800  0.91700  0.79200  1.0000
  In  In8       1.0  0.29200  0.08310  0.87500  1.0000
  Na  Na1       1.0  0.32800  0.75000  0.17200  1.0000
  Na  Na2       1.0  0.92200  0.34500  0.17200  1.0000
  Na  Na3       1.0  0.92200  0.75000  0.17200  1.0000
  Na  Na4       1.0  0.67200  0.84500  0.42200  1.0000
  Na  Na5       1.0  0.07760  0.25000  0.42200  1.0000
  Na  Na6       1.0  0.67200  0.25000  0.42200  1.0000
  Na  Na7       1.0  0.32800  0.75000  0.57800  1.0000
  Na  Na8       1.0  0.92200  0.75000  0.57800  1.0000
  Na  Na9       1.0  0.32800  0.15500  0.57800  1.0000
  Na  Na10      1.0  0.67200  0.25000  0.82800  1.0000
  Na  Na11      1.0  0.07760  0.25000  0.82800  1.0000
  Na  Na12      1.0  0.07760  0.65500  0.82800  1.0000
