data_image0
_chemical_formula_structural       Ba2Ge4
_chemical_formula_sum              "Ba2 Ge4"
_cell_length_a       4.80533
_cell_length_b       4.80533
_cell_length_c       8.17894
_cell_angle_alpha    107.083
_cell_angle_beta     107.083
_cell_angle_gamma    90

_space_group_name_H-M_alt    "P 1"
_space_group_IT_number       1

loop_
  _space_group_symop_operation_xyz
  'x, y, z'

loop_
  _atom_site_type_symbol
  _atom_site_label
  _atom_site_symmetry_multiplicity
  _atom_site_fract_x
  _atom_site_fract_y
  _atom_site_fract_z
  _atom_site_occupancy
  Ba  Ba1       1.0  0.00000  0.00000  0.00000  1.0000
  Ba  Ba2       1.0  0.25000  0.75000  0.50000  1.0000
  Ge  Ge1       1.0  0.58300  0.58300  0.16700  1.0000
  Ge  Ge2       1.0  0.66700  0.16700  0.33300  1.0000
  Ge  Ge3       1.0  0.83300  0.33300  0.66700  1.0000
  Ge  Ge4       1.0  0.41700  0.41700  0.83300  1.0000
