data_image0
_chemical_formula_structural       CeO16Zr7
_chemical_formula_sum              "Ce1 O16 Zr7"
_cell_length_a       7.3463
_cell_length_b       7.3463
_cell_length_c       5.30056
_cell_angle_alpha    90
_cell_angle_beta     90
_cell_angle_gamma    90

_space_group_name_H-M_alt    "P 1"
_space_group_IT_number       1

loop_
  _space_group_symop_operation_xyz
  'x, y, z'

loop_
  _atom_site_type_symbol
  _atom_site_label
  _atom_site_symmetry_multiplicity
  _atom_site_fract_x
  _atom_site_fract_y
  _atom_site_fract_z
  _atom_site_occupancy
  Ce  Ce1       1.0  0.00000  0.00000  0.00000  1.0000
  O   O1        1.0  0.24300  0.50000  0.19300  1.0000
  O   O2        1.0  0.75700  0.50000  0.19300  1.0000
  O   O3        1.0  0.27800  0.00000  0.22900  1.0000
  O   O4        1.0  0.72200  0.00000  0.22900  1.0000
  O   O5        1.0  0.00000  0.25200  0.30100  1.0000
  O   O6        1.0  0.00000  0.74800  0.30100  1.0000
  O   O7        1.0  0.50000  0.27800  0.30700  1.0000
  O   O8        1.0  0.50000  0.72200  0.30700  1.0000
  O   O9        1.0  0.27800  0.50000  0.69300  1.0000
  O   O10       1.0  0.72200  0.50000  0.69300  1.0000
  O   O11       1.0  0.25200  0.00000  0.69900  1.0000
  O   O12       1.0  0.74800  0.00000  0.69900  1.0000
  O   O13       1.0  0.00000  0.27800  0.77100  1.0000
  O   O14       1.0  0.00000  0.72200  0.77100  1.0000
  O   O15       1.0  0.50000  0.24300  0.80700  1.0000
  O   O16       1.0  0.50000  0.75700  0.80700  1.0000
  Zr  Zr1       1.0  0.50000  0.50000  0.00000  1.0000
  Zr  Zr2       1.0  0.00000  0.50000  0.00396  1.0000
  Zr  Zr3       1.0  0.25200  0.25200  0.50000  1.0000
  Zr  Zr4       1.0  0.74800  0.25200  0.50000  1.0000
  Zr  Zr5       1.0  0.25200  0.74800  0.50000  1.0000
  Zr  Zr6       1.0  0.74800  0.74800  0.50000  1.0000
  Zr  Zr7       1.0  0.50000  0.00000  0.99600  1.0000
