data_image0
_chemical_formula_structural       Er2Li4O6
_chemical_formula_sum              "Er2 Li4 O6"
_cell_length_a       5.59237
_cell_length_b       5.59237
_cell_length_c       5.07343
_cell_angle_alpha    99.6024
_cell_angle_beta     99.6024
_cell_angle_gamma    120.734

_space_group_name_H-M_alt    "P 1"
_space_group_IT_number       1

loop_
  _space_group_symop_operation_xyz
  'x, y, z'

loop_
  _atom_site_type_symbol
  _atom_site_label
  _atom_site_symmetry_multiplicity
  _atom_site_fract_x
  _atom_site_fract_y
  _atom_site_fract_z
  _atom_site_occupancy
  Er  Er1       1.0  0.83300  0.16700  0.00000  1.0000
  Er  Er2       1.0  0.16700  0.83300  0.00000  1.0000
  Li  Li1       1.0  0.50000  0.50000  0.00000  1.0000
  Li  Li2       1.0  0.63800  0.36200  0.50000  1.0000
  Li  Li3       1.0  0.36200  0.63800  0.50000  1.0000
  Li  Li4       1.0  0.00000  0.00000  0.50000  1.0000
  O   O1        1.0  0.24800  0.24800  0.24400  1.0000
  O   O2        1.0  0.90800  0.57900  0.25500  1.0000
  O   O3        1.0  0.57900  0.90800  0.25500  1.0000
  O   O4        1.0  0.42100  0.09210  0.74500  1.0000
  O   O5        1.0  0.09210  0.42100  0.74500  1.0000
  O   O6        1.0  0.75200  0.75200  0.75600  1.0000
