data_image0
_chemical_formula_structural       C8N8Se8
_chemical_formula_sum              "C8 N8 Se8"
_cell_length_a       4.9973
_cell_length_b       6.39206
_cell_length_c       15.4482
_cell_angle_alpha    90
_cell_angle_beta     90
_cell_angle_gamma    90

_space_group_name_H-M_alt    "P 1"
_space_group_IT_number       1

loop_
  _space_group_symop_operation_xyz
  'x, y, z'

loop_
  _atom_site_type_symbol
  _atom_site_label
  _atom_site_symmetry_multiplicity
  _atom_site_fract_x
  _atom_site_fract_y
  _atom_site_fract_z
  _atom_site_occupancy
  C   C1        1.0  0.14900  0.96200  0.01860  1.0000
  C   C2        1.0  0.38400  0.20900  0.22100  1.0000
  C   C3        1.0  0.61600  0.70900  0.27900  1.0000
  C   C4        1.0  0.85100  0.46200  0.48100  1.0000
  C   C5        1.0  0.35100  0.03800  0.51900  1.0000
  C   C6        1.0  0.11600  0.79100  0.72100  1.0000
  C   C7        1.0  0.88400  0.29100  0.77900  1.0000
  C   C8        1.0  0.64900  0.53800  0.98100  1.0000
  N   N1        1.0  0.79100  0.57800  0.03950  1.0000
  N   N2        1.0  0.45200  0.63700  0.23300  1.0000
  N   N3        1.0  0.54800  0.13700  0.26700  1.0000
  N   N4        1.0  0.20900  0.07840  0.46100  1.0000
  N   N5        1.0  0.70900  0.42200  0.53900  1.0000
  N   N6        1.0  0.04840  0.36300  0.73300  1.0000
  N   N7        1.0  0.95200  0.86300  0.76700  1.0000
  N   N8        1.0  0.29100  0.92200  0.96100  1.0000
  Se  Se1       1.0  0.92100  0.02010  0.10900  1.0000
  Se  Se2       1.0  0.13700  0.34000  0.15000  1.0000
  Se  Se3       1.0  0.86300  0.84000  0.35000  1.0000
  Se  Se4       1.0  0.07900  0.52000  0.39100  1.0000
  Se  Se5       1.0  0.57900  0.98000  0.60900  1.0000
  Se  Se6       1.0  0.36300  0.66000  0.65000  1.0000
  Se  Se7       1.0  0.63700  0.16000  0.85000  1.0000
  Se  Se8       1.0  0.42100  0.48000  0.89100  1.0000
