data_image0
_chemical_formula_structural       K2O16W4Y2
_chemical_formula_sum              "K2 O16 W4 Y2"
_cell_length_a       7.41044
_cell_length_b       7.41044
_cell_length_c       7.52821
_cell_angle_alpha    117.819
_cell_angle_beta     62.1812
_cell_angle_gamma    91.4579

_space_group_name_H-M_alt    "P 1"
_space_group_IT_number       1

loop_
  _space_group_symop_operation_xyz
  'x, y, z'

loop_
  _atom_site_type_symbol
  _atom_site_label
  _atom_site_symmetry_multiplicity
  _atom_site_fract_x
  _atom_site_fract_y
  _atom_site_fract_z
  _atom_site_occupancy
  K   K1        1.0  0.70000  0.70000  0.25000  1.0000
  K   K2        1.0  0.30000  0.30000  0.75000  1.0000
  O   O1        1.0  0.13300  0.08520  0.02710  1.0000
  O   O2        1.0  0.11700  0.73000  0.05160  1.0000
  O   O3        1.0  0.43400  0.88700  0.12600  1.0000
  O   O4        1.0  0.29900  0.54100  0.18300  1.0000
  O   O5        1.0  0.54100  0.29900  0.31700  1.0000
  O   O6        1.0  0.88700  0.43400  0.37400  1.0000
  O   O7        1.0  0.73000  0.11700  0.44800  1.0000
  O   O8        1.0  0.08520  0.13300  0.47300  1.0000
  O   O9        1.0  0.91500  0.86700  0.52700  1.0000
  O   O10       1.0  0.27000  0.88300  0.55200  1.0000
  O   O11       1.0  0.11300  0.56600  0.62600  1.0000
  O   O12       1.0  0.45900  0.70100  0.68300  1.0000
  O   O13       1.0  0.70100  0.45900  0.81700  1.0000
  O   O14       1.0  0.56600  0.11300  0.87400  1.0000
  O   O15       1.0  0.88300  0.27000  0.94800  1.0000
  O   O16       1.0  0.86700  0.91500  0.97300  1.0000
  W   W1        1.0  0.80200  0.19800  0.23700  1.0000
  W   W2        1.0  0.19800  0.80200  0.26300  1.0000
  W   W3        1.0  0.80200  0.19800  0.73700  1.0000
  W   W4        1.0  0.19800  0.80200  0.76300  1.0000
  Y   Y1        1.0  0.27200  0.27200  0.25000  1.0000
  Y   Y2        1.0  0.72800  0.72800  0.75000  1.0000
