data_image0
_chemical_formula_structural       K2Lu2O16W4
_chemical_formula_sum              "K2 Lu2 O16 W4"
_cell_length_a       7.34259
_cell_length_b       7.34259
_cell_length_c       7.46055
_cell_angle_alpha    117.982
_cell_angle_beta     62.0178
_cell_angle_gamma    92.1151

_space_group_name_H-M_alt    "P 1"
_space_group_IT_number       1

loop_
  _space_group_symop_operation_xyz
  'x, y, z'

loop_
  _atom_site_type_symbol
  _atom_site_label
  _atom_site_symmetry_multiplicity
  _atom_site_fract_x
  _atom_site_fract_y
  _atom_site_fract_z
  _atom_site_occupancy
  K   K1        1.0  0.80000  0.80000  0.25000  1.0000
  K   K2        1.0  0.20000  0.20000  0.75000  1.0000
  Lu  Lu1       1.0  0.22800  0.22800  0.25000  1.0000
  Lu  Lu2       1.0  0.77200  0.77200  0.75000  1.0000
  O   O1        1.0  0.41100  0.36700  0.03300  1.0000
  O   O2        1.0  0.77100  0.38500  0.05200  1.0000
  O   O3        1.0  0.62000  0.05950  0.11900  1.0000
  O   O4        1.0  0.96300  0.20600  0.18700  1.0000
  O   O5        1.0  0.20600  0.96300  0.31300  1.0000
  O   O6        1.0  0.05950  0.62000  0.38100  1.0000
  O   O7        1.0  0.38500  0.77100  0.44800  1.0000
  O   O8        1.0  0.36700  0.41100  0.46700  1.0000
  O   O9        1.0  0.63300  0.58900  0.53300  1.0000
  O   O10       1.0  0.61500  0.22900  0.55200  1.0000
  O   O11       1.0  0.94000  0.38000  0.61900  1.0000
  O   O12       1.0  0.79400  0.03690  0.68700  1.0000
  O   O13       1.0  0.03690  0.79400  0.81300  1.0000
  O   O14       1.0  0.38000  0.94000  0.88100  1.0000
  O   O15       1.0  0.22900  0.61500  0.94800  1.0000
  O   O16       1.0  0.58900  0.63300  0.96700  1.0000
  W   W1        1.0  0.30100  0.69900  0.23600  1.0000
  W   W2        1.0  0.69900  0.30100  0.26400  1.0000
  W   W3        1.0  0.30100  0.69900  0.73600  1.0000
  W   W4        1.0  0.69900  0.30100  0.76400  1.0000
