data_image0
_chemical_formula_structural       Li4O6Rb2
_chemical_formula_sum              "Li4 O6 Rb2"
_cell_length_a       6.20934
_cell_length_b       6.20934
_cell_length_c       5.31981
_cell_angle_alpha    107.666
_cell_angle_beta     107.666
_cell_angle_gamma    114.905

_space_group_name_H-M_alt    "P 1"
_space_group_IT_number       1

loop_
  _space_group_symop_operation_xyz
  'x, y, z'

loop_
  _atom_site_type_symbol
  _atom_site_label
  _atom_site_symmetry_multiplicity
  _atom_site_fract_x
  _atom_site_fract_y
  _atom_site_fract_z
  _atom_site_occupancy
  Li  Li1       1.0  0.50000  0.50000  0.00000  1.0000
  Li  Li2       1.0  0.00000  0.00000  0.50000  1.0000
  Li  Li3       1.0  0.66800  0.33200  0.50000  1.0000
  Li  Li4       1.0  0.33200  0.66800  0.50000  1.0000
  O   O1        1.0  0.41900  0.41900  0.32400  1.0000
  O   O2        1.0  0.70000  0.02120  0.39000  1.0000
  O   O3        1.0  0.02120  0.70000  0.39000  1.0000
  O   O4        1.0  0.97900  0.30000  0.61000  1.0000
  O   O5        1.0  0.30000  0.97900  0.61000  1.0000
  O   O6        1.0  0.58100  0.58100  0.67600  1.0000
  Rb  Rb1       1.0  0.83200  0.16800  0.00000  1.0000
  Rb  Rb2       1.0  0.16800  0.83200  0.00000  1.0000
