data_image0
_chemical_formula_structural       Eu5Nb4O15
_chemical_formula_sum              "Eu5 Nb4 O15"
_cell_length_a       5.59187
_cell_length_b       5.59188
_cell_length_c       11.272
_cell_angle_alpha    90
_cell_angle_beta     89.9999
_cell_angle_gamma    120

_space_group_name_H-M_alt    "P 1"
_space_group_IT_number       1

loop_
  _space_group_symop_operation_xyz
  'x, y, z'

loop_
  _atom_site_type_symbol
  _atom_site_label
  _atom_site_symmetry_multiplicity
  _atom_site_fract_x
  _atom_site_fract_y
  _atom_site_fract_z
  _atom_site_occupancy
  Eu  Eu1       1.0  0.00000  0.00000  0.00000  1.0000
  Eu  Eu2       1.0  0.66700  0.33300  0.22800  1.0000
  Eu  Eu3       1.0  0.33300  0.66700  0.43800  1.0000
  Eu  Eu4       1.0  0.66700  0.33300  0.56200  1.0000
  Eu  Eu5       1.0  0.33300  0.66700  0.77200  1.0000
  Nb  Nb1       1.0  0.33300  0.66700  0.10800  1.0000
  Nb  Nb2       1.0  0.00000  0.00000  0.32700  1.0000
  Nb  Nb3       1.0  0.00000  0.00000  0.67300  1.0000
  Nb  Nb4       1.0  0.66700  0.33300  0.89200  1.0000
  O   O1        1.0  0.50000  0.00000  0.00000  1.0000
  O   O2        1.0  0.50000  0.50000  0.00000  1.0000
  O   O3        1.0  0.00000  0.50000  0.00000  1.0000
  O   O4        1.0  0.67500  0.83800  0.19800  1.0000
  O   O5        1.0  0.16200  0.83800  0.19800  1.0000
  O   O6        1.0  0.16200  0.32500  0.19800  1.0000
  O   O7        1.0  0.82500  0.65000  0.39800  1.0000
  O   O8        1.0  0.82500  0.17500  0.39800  1.0000
  O   O9        1.0  0.35000  0.17500  0.39800  1.0000
  O   O10       1.0  0.65000  0.82500  0.60200  1.0000
  O   O11       1.0  0.17500  0.35000  0.60200  1.0000
  O   O12       1.0  0.17500  0.82500  0.60200  1.0000
  O   O13       1.0  0.83800  0.67500  0.80200  1.0000
  O   O14       1.0  0.83800  0.16200  0.80200  1.0000
  O   O15       1.0  0.32500  0.16200  0.80200  1.0000
