data_image0
_chemical_formula_structural       Ca20Ir4
_chemical_formula_sum              "Ca20 Ir4"
_cell_length_a       7.68752
_cell_length_b       15.9355
_cell_length_c       6.8232
_cell_angle_alpha    90
_cell_angle_beta     90
_cell_angle_gamma    90

_space_group_name_H-M_alt    "P 1"
_space_group_IT_number       1

loop_
  _space_group_symop_operation_xyz
  'x, y, z'

loop_
  _atom_site_type_symbol
  _atom_site_label
  _atom_site_symmetry_multiplicity
  _atom_site_fract_x
  _atom_site_fract_y
  _atom_site_fract_z
  _atom_site_occupancy
  Ca  Ca1       1.0  0.80800  0.06600  0.14400  1.0000
  Ca  Ca2       1.0  0.80800  0.43400  0.14400  1.0000
  Ca  Ca3       1.0  0.09400  0.25000  0.15400  1.0000
  Ca  Ca4       1.0  0.53400  0.64500  0.17700  1.0000
  Ca  Ca5       1.0  0.53400  0.85500  0.17700  1.0000
  Ca  Ca6       1.0  0.03410  0.64500  0.32300  1.0000
  Ca  Ca7       1.0  0.03410  0.85500  0.32300  1.0000
  Ca  Ca8       1.0  0.59400  0.25000  0.34600  1.0000
  Ca  Ca9       1.0  0.30800  0.06600  0.35600  1.0000
  Ca  Ca10      1.0  0.30800  0.43400  0.35600  1.0000
  Ca  Ca11      1.0  0.69200  0.56600  0.64400  1.0000
  Ca  Ca12      1.0  0.69200  0.93400  0.64400  1.0000
  Ca  Ca13      1.0  0.40600  0.75000  0.65400  1.0000
  Ca  Ca14      1.0  0.96600  0.14500  0.67700  1.0000
  Ca  Ca15      1.0  0.96600  0.35500  0.67700  1.0000
  Ca  Ca16      1.0  0.46600  0.14500  0.82300  1.0000
  Ca  Ca17      1.0  0.46600  0.35500  0.82300  1.0000
  Ca  Ca18      1.0  0.90600  0.75000  0.84600  1.0000
  Ca  Ca19      1.0  0.19200  0.56600  0.85600  1.0000
  Ca  Ca20      1.0  0.19200  0.93400  0.85600  1.0000
  Ir  Ir1       1.0  0.23900  0.75000  0.03690  1.0000
  Ir  Ir2       1.0  0.73900  0.75000  0.46300  1.0000
  Ir  Ir3       1.0  0.26100  0.25000  0.53700  1.0000
  Ir  Ir4       1.0  0.76100  0.25000  0.96300  1.0000
