data_image0
_chemical_formula_structural       Cs2Li4O8
_chemical_formula_sum              "Cs2 Li4 O8"
_cell_length_a       6.4832
_cell_length_b       6.4832
_cell_length_c       6.4832
_cell_angle_alpha    115.33
_cell_angle_beta     98.2997
_cell_angle_gamma    115.33

_space_group_name_H-M_alt    "P 1"
_space_group_IT_number       1

loop_
  _space_group_symop_operation_xyz
  'x, y, z'

loop_
  _atom_site_type_symbol
  _atom_site_label
  _atom_site_symmetry_multiplicity
  _atom_site_fract_x
  _atom_site_fract_y
  _atom_site_fract_z
  _atom_site_occupancy
  Cs  Cs1       1.0  0.00000  0.00000  0.00000  1.0000
  Cs  Cs2       1.0  0.75000  0.50000  0.25000  1.0000
  Li  Li1       1.0  0.37500  0.75000  0.12500  1.0000
  Li  Li2       1.0  0.37500  0.25000  0.62500  1.0000
  Li  Li3       1.0  0.87500  0.25000  0.62500  1.0000
  Li  Li4       1.0  0.37500  0.75000  0.62500  1.0000
  O   O1        1.0  0.23700  0.89600  0.34100  1.0000
  O   O2        1.0  0.44500  0.10400  0.34100  1.0000
  O   O3        1.0  0.09110  0.39600  0.48700  1.0000
  O   O4        1.0  0.65900  0.89600  0.55500  1.0000
  O   O5        1.0  0.09110  0.60400  0.69500  1.0000
  O   O6        1.0  0.65900  0.10400  0.76300  1.0000
  O   O7        1.0  0.30500  0.39600  0.90900  1.0000
  O   O8        1.0  0.51300  0.60400  0.90900  1.0000
