data_image0
_chemical_formula_structural       Li4Mo2O6
_chemical_formula_sum              "Li4 Mo2 O6"
_cell_length_a       4.96916
_cell_length_b       4.96916
_cell_length_c       5.19876
_cell_angle_alpha    99.3075
_cell_angle_beta     99.3075
_cell_angle_gamma    117.825

_space_group_name_H-M_alt    "P 1"
_space_group_IT_number       1

loop_
  _space_group_symop_operation_xyz
  'x, y, z'

loop_
  _atom_site_type_symbol
  _atom_site_label
  _atom_site_symmetry_multiplicity
  _atom_site_fract_x
  _atom_site_fract_y
  _atom_site_fract_z
  _atom_site_occupancy
  Li  Li1       1.0  0.50000  0.50000  0.00000  1.0000
  Li  Li2       1.0  0.00000  0.00000  0.50000  1.0000
  Li  Li3       1.0  0.66300  0.33700  0.50000  1.0000
  Li  Li4       1.0  0.33700  0.66300  0.50000  1.0000
  Mo  Mo1       1.0  0.85700  0.14300  0.00000  1.0000
  Mo  Mo2       1.0  0.14300  0.85700  0.00000  1.0000
  O   O1        1.0  0.92700  0.58200  0.22900  1.0000
  O   O2        1.0  0.58200  0.92700  0.22900  1.0000
  O   O3        1.0  0.26200  0.26200  0.27100  1.0000
  O   O4        1.0  0.73800  0.73800  0.72900  1.0000
  O   O5        1.0  0.41800  0.07250  0.77100  1.0000
  O   O6        1.0  0.07250  0.41800  0.77100  1.0000
