data_image0
_chemical_formula_structural       Cr2Li2O16W4
_chemical_formula_sum              "Cr2 Li2 O16 W4"
_cell_length_a       4.89069
_cell_length_b       7.30967
_cell_length_c       7.30967
_cell_angle_alpha    101.88
_cell_angle_beta     90.1052
_cell_angle_gamma    90.1052

_space_group_name_H-M_alt    "P 1"
_space_group_IT_number       1

loop_
  _space_group_symop_operation_xyz
  'x, y, z'

loop_
  _atom_site_type_symbol
  _atom_site_label
  _atom_site_symmetry_multiplicity
  _atom_site_fract_x
  _atom_site_fract_y
  _atom_site_fract_z
  _atom_site_occupancy
  Cr  Cr1       1.0  0.25000  0.67400  0.32600  1.0000
  Cr  Cr2       1.0  0.75000  0.32600  0.67400  1.0000
  Li  Li1       1.0  0.75000  0.83900  0.16100  1.0000
  Li  Li2       1.0  0.25000  0.16100  0.83900  1.0000
  O   O1        1.0  0.40100  0.68200  0.07420  1.0000
  O   O2        1.0  0.05730  0.19300  0.09380  1.0000
  O   O3        1.0  0.55700  0.09380  0.19300  1.0000
  O   O4        1.0  0.91400  0.56500  0.19600  1.0000
  O   O5        1.0  0.42100  0.42300  0.30700  1.0000
  O   O6        1.0  0.09900  0.92600  0.31800  1.0000
  O   O7        1.0  0.92100  0.30700  0.42300  1.0000
  O   O8        1.0  0.58600  0.80400  0.43500  1.0000
  O   O9        1.0  0.41400  0.19600  0.56500  1.0000
  O   O10       1.0  0.07920  0.69300  0.57700  1.0000
  O   O11       1.0  0.90100  0.07420  0.68200  1.0000
  O   O12       1.0  0.57900  0.57700  0.69300  1.0000
  O   O13       1.0  0.08630  0.43500  0.80400  1.0000
  O   O14       1.0  0.44300  0.90600  0.80700  1.0000
  O   O15       1.0  0.94300  0.80700  0.90600  1.0000
  O   O16       1.0  0.59900  0.31800  0.92600  1.0000
  W   W1        1.0  0.74400  0.34000  0.15700  1.0000
  W   W2        1.0  0.24400  0.15700  0.34000  1.0000
  W   W3        1.0  0.75600  0.84300  0.66000  1.0000
  W   W4        1.0  0.25600  0.66000  0.84300  1.0000
