data_image0
_chemical_formula_structural       B2Li4O6
_chemical_formula_sum              "B2 Li4 O6"
_cell_length_a       4.44501
_cell_length_b       4.44501
_cell_length_c       4.87718
_cell_angle_alpha    98.8656
_cell_angle_beta     98.8656
_cell_angle_gamma    120.328

_space_group_name_H-M_alt    "P 1"
_space_group_IT_number       1

loop_
  _space_group_symop_operation_xyz
  'x, y, z'

loop_
  _atom_site_type_symbol
  _atom_site_label
  _atom_site_symmetry_multiplicity
  _atom_site_fract_x
  _atom_site_fract_y
  _atom_site_fract_z
  _atom_site_occupancy
  B   B1        1.0  0.83300  0.16700  0.00000  1.0000
  B   B2        1.0  0.16700  0.83300  0.00000  1.0000
  Li  Li1       1.0  0.50000  0.50000  0.00000  1.0000
  Li  Li2       1.0  0.65800  0.34200  0.50000  1.0000
  Li  Li3       1.0  0.34200  0.65800  0.50000  1.0000
  Li  Li4       1.0  0.00000  0.00000  0.50000  1.0000
  O   O1        1.0  0.94200  0.57100  0.20800  1.0000
  O   O2        1.0  0.57100  0.94200  0.20800  1.0000
  O   O3        1.0  0.20100  0.20100  0.21000  1.0000
  O   O4        1.0  0.79900  0.79900  0.79000  1.0000
  O   O5        1.0  0.42900  0.05810  0.79200  1.0000
  O   O6        1.0  0.05810  0.42900  0.79200  1.0000
