data_image0
_chemical_formula_structural       B6Bi3F3O12
_chemical_formula_sum              "B6 Bi3 F3 O12"
_cell_length_a       6.65625
_cell_length_b       6.65625
_cell_length_c       6.45271
_cell_angle_alpha    90
_cell_angle_beta     90
_cell_angle_gamma    120

_space_group_name_H-M_alt    "P 1"
_space_group_IT_number       1

loop_
  _space_group_symop_operation_xyz
  'x, y, z'

loop_
  _atom_site_type_symbol
  _atom_site_label
  _atom_site_symmetry_multiplicity
  _atom_site_fract_x
  _atom_site_fract_y
  _atom_site_fract_z
  _atom_site_occupancy
  B   B1        1.0  0.67900  0.94600  0.00085  1.0000
  B   B2        1.0  0.54600  0.23700  0.11700  1.0000
  B   B3        1.0  0.26700  0.32100  0.33400  1.0000
  B   B4        1.0  0.69100  0.45400  0.45000  1.0000
  B   B5        1.0  0.05360  0.73300  0.66800  1.0000
  B   B6        1.0  0.76300  0.30900  0.78300  1.0000
  Bi  Bi1       1.0  0.06970  0.76800  0.12200  1.0000
  Bi  Bi2       1.0  0.69800  0.93000  0.45500  1.0000
  Bi  Bi3       1.0  0.23200  0.30200  0.78900  1.0000
  F   F1        1.0  0.22800  0.48200  0.20700  1.0000
  F   F2        1.0  0.25300  0.77200  0.54000  1.0000
  F   F3        1.0  0.51800  0.74700  0.87300  1.0000
  O   O1        1.0  0.80900  0.88300  0.13800  1.0000
  O   O2        1.0  0.54300  0.01090  0.13900  1.0000
  O   O3        1.0  0.31100  0.18300  0.18400  1.0000
  O   O4        1.0  0.72900  0.42200  0.23500  1.0000
  O   O5        1.0  0.07360  0.19100  0.47100  1.0000
  O   O6        1.0  0.46800  0.45700  0.47300  1.0000
  O   O7        1.0  0.87100  0.68900  0.51800  1.0000
  O   O8        1.0  0.69400  0.27100  0.56800  1.0000
  O   O9        1.0  0.11700  0.92600  0.80400  1.0000
  O   O10       1.0  0.98900  0.53200  0.80600  1.0000
  O   O11       1.0  0.81700  0.12900  0.85100  1.0000
  O   O12       1.0  0.57800  0.30600  0.90200  1.0000
