data_image0
_chemical_formula_structural       Fe2Mo4Na2O16
_chemical_formula_sum              "Fe2 Mo4 Na2 O16"
_cell_length_a       5.2457
_cell_length_b       5.57765
_cell_length_c       13.3555
_cell_angle_alpha    90.8243
_cell_angle_beta     90
_cell_angle_gamma    118.05

_space_group_name_H-M_alt    "P 1"
_space_group_IT_number       1

loop_
  _space_group_symop_operation_xyz
  'x, y, z'

loop_
  _atom_site_type_symbol
  _atom_site_label
  _atom_site_symmetry_multiplicity
  _atom_site_fract_x
  _atom_site_fract_y
  _atom_site_fract_z
  _atom_site_occupancy
  Fe  Fe1       1.0  0.00000  0.00000  0.00000  1.0000
  Fe  Fe2       1.0  0.00000  0.00000  0.50000  1.0000
  Mo  Mo1       1.0  0.71700  0.35600  0.12200  1.0000
  Mo  Mo2       1.0  0.36100  0.64400  0.37800  1.0000
  Mo  Mo3       1.0  0.63900  0.35600  0.62200  1.0000
  Mo  Mo4       1.0  0.28300  0.64400  0.87800  1.0000
  Na  Na1       1.0  0.08250  0.00000  0.25000  1.0000
  Na  Na2       1.0  0.91700  0.00000  0.75000  1.0000
  O   O1        1.0  0.42100  0.20800  0.03670  1.0000
  O   O2        1.0  0.95800  0.70100  0.08520  1.0000
  O   O3        1.0  0.90200  0.15100  0.12200  1.0000
  O   O4        1.0  0.57300  0.34700  0.24000  1.0000
  O   O5        1.0  0.22600  0.65300  0.26000  1.0000
  O   O6        1.0  0.75100  0.84900  0.37800  1.0000
  O   O7        1.0  0.25800  0.29900  0.41500  1.0000
  O   O8        1.0  0.21300  0.79200  0.46300  1.0000
  O   O9        1.0  0.78700  0.20800  0.53700  1.0000
  O   O10       1.0  0.74200  0.70100  0.58500  1.0000
  O   O11       1.0  0.24900  0.15100  0.62200  1.0000
  O   O12       1.0  0.77400  0.34700  0.74000  1.0000
  O   O13       1.0  0.42700  0.65300  0.76000  1.0000
  O   O14       1.0  0.09800  0.84900  0.87800  1.0000
  O   O15       1.0  0.04150  0.29900  0.91500  1.0000
  O   O16       1.0  0.57900  0.79200  0.96300  1.0000
