data_image0
_chemical_formula_structural       Ag12Cu4S8
_chemical_formula_sum              "Ag12 Cu4 S8"
_cell_length_a       8.51887
_cell_length_b       8.51887
_cell_length_c       8.51887
_cell_angle_alpha    95.6955
_cell_angle_beta     116.768
_cell_angle_gamma    116.768

_space_group_name_H-M_alt    "P 1"
_space_group_IT_number       1

loop_
  _space_group_symop_operation_xyz
  'x, y, z'

loop_
  _atom_site_type_symbol
  _atom_site_label
  _atom_site_symmetry_multiplicity
  _atom_site_fract_x
  _atom_site_fract_y
  _atom_site_fract_z
  _atom_site_occupancy
  Ag  Ag1       1.0  0.00000  0.00000  0.00000  1.0000
  Ag  Ag2       1.0  0.62500  0.89500  0.04830  1.0000
  Ag  Ag3       1.0  0.34700  0.45200  0.07650  1.0000
  Ag  Ag4       1.0  0.12500  0.57700  0.23000  1.0000
  Ag  Ag5       1.0  0.84700  0.27000  0.39500  1.0000
  Ag  Ag6       1.0  0.50000  0.50000  0.50000  1.0000
  Ag  Ag7       1.0  0.00000  0.00000  0.50000  1.0000
  Ag  Ag8       1.0  0.50000  0.00000  0.50000  1.0000
  Ag  Ag9       1.0  0.15300  0.73000  0.60500  1.0000
  Ag  Ag10      1.0  0.87500  0.42300  0.77000  1.0000
  Ag  Ag11      1.0  0.65300  0.54800  0.92300  1.0000
  Ag  Ag12      1.0  0.37500  0.10500  0.95200  1.0000
  Cu  Cu1       1.0  0.25000  0.77900  0.02920  1.0000
  Cu  Cu2       1.0  0.75000  0.52900  0.27900  1.0000
  Cu  Cu3       1.0  0.25000  0.47100  0.72100  1.0000
  Cu  Cu4       1.0  0.75000  0.22100  0.97100  1.0000
  S   S1        1.0  0.01200  0.23600  0.21100  1.0000
  S   S2        1.0  0.97500  0.77600  0.26400  1.0000
  S   S3        1.0  0.51200  0.80100  0.27600  1.0000
  S   S4        1.0  0.52500  0.28900  0.30100  1.0000
  S   S5        1.0  0.47500  0.71100  0.69900  1.0000
  S   S6        1.0  0.48800  0.19900  0.72400  1.0000
  S   S7        1.0  0.02500  0.22400  0.73600  1.0000
  S   S8        1.0  0.98800  0.76400  0.78900  1.0000
