data_image0
_chemical_formula_structural       Ba2O8W2
_chemical_formula_sum              "Ba2 O8 W2"
_cell_length_a       3.97623
_cell_length_b       5.88844
_cell_length_c       7.33936
_cell_angle_alpha    90
_cell_angle_beta     74.2831
_cell_angle_gamma    90

_space_group_name_H-M_alt    "P 1"
_space_group_IT_number       1

loop_
  _space_group_symop_operation_xyz
  'x, y, z'

loop_
  _atom_site_type_symbol
  _atom_site_label
  _atom_site_symmetry_multiplicity
  _atom_site_fract_x
  _atom_site_fract_y
  _atom_site_fract_z
  _atom_site_occupancy
  Ba  Ba1       1.0  0.86600  0.01020  0.26700  1.0000
  Ba  Ba2       1.0  0.13400  0.51000  0.73300  1.0000
  O   O1        1.0  0.50100  0.26200  0.99900  1.0000
  O   O2        1.0  0.49900  0.76200  0.00118  1.0000
  O   O3        1.0  0.91500  0.51000  0.17100  1.0000
  O   O4        1.0  0.31300  0.28400  0.37300  1.0000
  O   O5        1.0  0.31300  0.73500  0.37500  1.0000
  O   O6        1.0  0.68700  0.23500  0.62500  1.0000
  O   O7        1.0  0.68700  0.78400  0.62700  1.0000
  O   O8        1.0  0.08530  0.01040  0.82900  1.0000
  W   W1        1.0  0.40000  0.51000  0.19900  1.0000
  W   W2        1.0  0.60000  0.01020  0.80100  1.0000
