data_image0
_chemical_formula_structural       Cu2Ge2Ho6S14
_chemical_formula_sum              "Cu2 Ge2 Ho6 S14"
_cell_length_a       9.80042
_cell_length_b       9.80036
_cell_length_c       5.82701
_cell_angle_alpha    90
_cell_angle_beta     90
_cell_angle_gamma    120

_space_group_name_H-M_alt    "P 1"
_space_group_IT_number       1

loop_
  _space_group_symop_operation_xyz
  'x, y, z'

loop_
  _atom_site_type_symbol
  _atom_site_label
  _atom_site_symmetry_multiplicity
  _atom_site_fract_x
  _atom_site_fract_y
  _atom_site_fract_z
  _atom_site_occupancy
  Cu  Cu1       1.0  0.00000  0.00000  0.18600  1.0000
  Cu  Cu2       1.0  0.00000  0.00000  0.68600  1.0000
  Ge  Ge1       1.0  0.33300  0.66700  0.33100  1.0000
  Ge  Ge2       1.0  0.66700  0.33300  0.83100  1.0000
  Ho  Ho1       1.0  0.35800  0.22000  0.25000  1.0000
  Ho  Ho2       1.0  0.78000  0.13800  0.25000  1.0000
  Ho  Ho3       1.0  0.86200  0.64200  0.25000  1.0000
  Ho  Ho4       1.0  0.64200  0.78000  0.75000  1.0000
  Ho  Ho5       1.0  0.13800  0.35800  0.75000  1.0000
  Ho  Ho6       1.0  0.22000  0.86200  0.75000  1.0000
  S   S1        1.0  0.15700  0.89600  0.20600  1.0000
  S   S2        1.0  0.10400  0.26100  0.20600  1.0000
  S   S3        1.0  0.73900  0.84300  0.20600  1.0000
  S   S4        1.0  0.66700  0.33300  0.45200  1.0000
  S   S5        1.0  0.09600  0.57500  0.49300  1.0000
  S   S6        1.0  0.42500  0.52100  0.49300  1.0000
  S   S7        1.0  0.47900  0.90400  0.49300  1.0000
  S   S8        1.0  0.84300  0.10400  0.70600  1.0000
  S   S9        1.0  0.89600  0.73900  0.70600  1.0000
  S   S10       1.0  0.26100  0.15700  0.70600  1.0000
  S   S11       1.0  0.33300  0.66700  0.95200  1.0000
  S   S12       1.0  0.90400  0.42500  0.99300  1.0000
  S   S13       1.0  0.52100  0.09590  0.99300  1.0000
  S   S14       1.0  0.57500  0.47900  0.99300  1.0000
