data_image0
_chemical_formula_structural       Gd2Li4O6
_chemical_formula_sum              "Gd2 Li4 O6"
_cell_length_a       5.75019
_cell_length_b       5.75019
_cell_length_c       5.02115
_cell_angle_alpha    99.0788
_cell_angle_beta     99.0788
_cell_angle_gamma    121.799

_space_group_name_H-M_alt    "P 1"
_space_group_IT_number       1

loop_
  _space_group_symop_operation_xyz
  'x, y, z'

loop_
  _atom_site_type_symbol
  _atom_site_label
  _atom_site_symmetry_multiplicity
  _atom_site_fract_x
  _atom_site_fract_y
  _atom_site_fract_z
  _atom_site_occupancy
  Gd  Gd1       1.0  0.83400  0.16600  0.00000  1.0000
  Gd  Gd2       1.0  0.16600  0.83400  0.00000  1.0000
  Li  Li1       1.0  0.50000  0.50000  0.00000  1.0000
  Li  Li2       1.0  0.00000  0.00000  0.50000  1.0000
  Li  Li3       1.0  0.62600  0.37400  0.50000  1.0000
  Li  Li4       1.0  0.37400  0.62600  0.50000  1.0000
  O   O1        1.0  0.24800  0.24800  0.24200  1.0000
  O   O2        1.0  0.89600  0.57400  0.26100  1.0000
  O   O3        1.0  0.57400  0.89600  0.26100  1.0000
  O   O4        1.0  0.42600  0.10400  0.73900  1.0000
  O   O5        1.0  0.10400  0.42600  0.73900  1.0000
  O   O6        1.0  0.75200  0.75200  0.75800  1.0000
