data_image0
_chemical_formula_structural       Li6O12Si3Sr3
_chemical_formula_sum              "Li6 O12 Si3 Sr3"
_cell_length_a       5.00764
_cell_length_b       5.00764
_cell_length_c       12.4282
_cell_angle_alpha    90
_cell_angle_beta     90
_cell_angle_gamma    120

_space_group_name_H-M_alt    "P 1"
_space_group_IT_number       1

loop_
  _space_group_symop_operation_xyz
  'x, y, z'

loop_
  _atom_site_type_symbol
  _atom_site_label
  _atom_site_symmetry_multiplicity
  _atom_site_fract_x
  _atom_site_fract_y
  _atom_site_fract_z
  _atom_site_occupancy
  Li  Li1       1.0  0.33500  0.92700  0.08800  1.0000
  Li  Li2       1.0  0.66500  0.59100  0.24500  1.0000
  Li  Li3       1.0  0.07330  0.40900  0.42100  1.0000
  Li  Li4       1.0  0.40900  0.07330  0.57900  1.0000
  Li  Li5       1.0  0.59100  0.66500  0.75500  1.0000
  Li  Li6       1.0  0.92700  0.33500  0.91200  1.0000
  O   O1        1.0  0.03430  0.48700  0.05960  1.0000
  O   O2        1.0  0.69100  0.93000  0.16300  1.0000
  O   O3        1.0  0.30900  0.23900  0.17000  1.0000
  O   O4        1.0  0.96600  0.45300  0.27400  1.0000
  O   O5        1.0  0.51300  0.54700  0.39300  1.0000
  O   O6        1.0  0.06970  0.76100  0.49600  1.0000
  O   O7        1.0  0.76100  0.06970  0.50400  1.0000
  O   O8        1.0  0.54700  0.51300  0.60700  1.0000
  O   O9        1.0  0.45300  0.96600  0.72600  1.0000
  O   O10       1.0  0.23900  0.30900  0.83000  1.0000
  O   O11       1.0  0.93000  0.69100  0.83700  1.0000
  O   O12       1.0  0.48700  0.03430  0.94000  1.0000
  Si  Si1       1.0  0.00000  0.27800  0.16700  1.0000
  Si  Si2       1.0  0.72200  0.72200  0.50000  1.0000
  Si  Si3       1.0  0.27800  0.00000  0.83300  1.0000
  Sr  Sr1       1.0  0.58300  0.58300  0.00000  1.0000
  Sr  Sr2       1.0  0.41700  0.00000  0.33300  1.0000
  Sr  Sr3       1.0  0.00000  0.41700  0.66700  1.0000
