data_image0
_chemical_formula_structural       Eu2Li4O6
_chemical_formula_sum              "Eu2 Li4 O6"
_cell_length_a       5.70968
_cell_length_b       5.70968
_cell_length_c       4.95684
_cell_angle_alpha    102.363
_cell_angle_beta     102.363
_cell_angle_gamma    118.161

_space_group_name_H-M_alt    "P 1"
_space_group_IT_number       1

loop_
  _space_group_symop_operation_xyz
  'x, y, z'

loop_
  _atom_site_type_symbol
  _atom_site_label
  _atom_site_symmetry_multiplicity
  _atom_site_fract_x
  _atom_site_fract_y
  _atom_site_fract_z
  _atom_site_occupancy
  Eu  Eu1       1.0  0.82600  0.17400  0.00000  1.0000
  Eu  Eu2       1.0  0.17400  0.82600  0.00000  1.0000
  Li  Li1       1.0  0.50000  0.50000  0.00000  1.0000
  Li  Li2       1.0  0.00000  0.00000  0.50000  1.0000
  Li  Li3       1.0  0.63200  0.36800  0.50000  1.0000
  Li  Li4       1.0  0.36800  0.63200  0.50000  1.0000
  O   O1        1.0  0.28900  0.28900  0.18900  1.0000
  O   O2        1.0  0.95700  0.62400  0.34000  1.0000
  O   O3        1.0  0.62400  0.95700  0.34000  1.0000
  O   O4        1.0  0.37600  0.04320  0.66000  1.0000
  O   O5        1.0  0.04320  0.37600  0.66000  1.0000
  O   O6        1.0  0.71100  0.71100  0.81100  1.0000
