data_image0
_chemical_formula_structural       Ge8In4Li4Yb8
_chemical_formula_sum              "Ge8 In4 Li4 Yb8"
_cell_length_a       7.17172
_cell_length_b       4.40271
_cell_length_c       16.6907
_cell_angle_alpha    90
_cell_angle_beta     90
_cell_angle_gamma    90

_space_group_name_H-M_alt    "P 1"
_space_group_IT_number       1

loop_
  _space_group_symop_operation_xyz
  'x, y, z'

loop_
  _atom_site_type_symbol
  _atom_site_label
  _atom_site_symmetry_multiplicity
  _atom_site_fract_x
  _atom_site_fract_y
  _atom_site_fract_z
  _atom_site_occupancy
  Ge  Ge1       1.0  0.72900  0.25000  0.06180  1.0000
  Ge  Ge2       1.0  0.22700  0.75000  0.18500  1.0000
  Ge  Ge3       1.0  0.72700  0.75000  0.31500  1.0000
  Ge  Ge4       1.0  0.22900  0.25000  0.43800  1.0000
  Ge  Ge5       1.0  0.77100  0.75000  0.56200  1.0000
  Ge  Ge6       1.0  0.27300  0.25000  0.68500  1.0000
  Ge  Ge7       1.0  0.77300  0.25000  0.81500  1.0000
  Ge  Ge8       1.0  0.27100  0.75000  0.93800  1.0000
  In  In1       1.0  0.84200  0.75000  0.15300  1.0000
  In  In2       1.0  0.34200  0.75000  0.34700  1.0000
  In  In3       1.0  0.65800  0.25000  0.65300  1.0000
  In  In4       1.0  0.15800  0.25000  0.84700  1.0000
  Li  Li1       1.0  0.48800  0.75000  0.06730  1.0000
  Li  Li2       1.0  0.98800  0.75000  0.43300  1.0000
  Li  Li3       1.0  0.01200  0.25000  0.56700  1.0000
  Li  Li4       1.0  0.51200  0.25000  0.93300  1.0000
  Yb  Yb1       1.0  0.15700  0.25000  0.06210  1.0000
  Yb  Yb2       1.0  0.51000  0.25000  0.22100  1.0000
  Yb  Yb3       1.0  0.01030  0.25000  0.27900  1.0000
  Yb  Yb4       1.0  0.65700  0.25000  0.43800  1.0000
  Yb  Yb5       1.0  0.34300  0.75000  0.56200  1.0000
  Yb  Yb6       1.0  0.99000  0.75000  0.72100  1.0000
  Yb  Yb7       1.0  0.49000  0.75000  0.77900  1.0000
  Yb  Yb8       1.0  0.84300  0.75000  0.93800  1.0000
