data_image0
_chemical_formula_structural       Eu5O15Ta4
_chemical_formula_sum              "Eu5 O15 Ta4"
_cell_length_a       5.57809
_cell_length_b       5.57817
_cell_length_c       11.2895
_cell_angle_alpha    90
_cell_angle_beta     90.0009
_cell_angle_gamma    120

_space_group_name_H-M_alt    "P 1"
_space_group_IT_number       1

loop_
  _space_group_symop_operation_xyz
  'x, y, z'

loop_
  _atom_site_type_symbol
  _atom_site_label
  _atom_site_symmetry_multiplicity
  _atom_site_fract_x
  _atom_site_fract_y
  _atom_site_fract_z
  _atom_site_occupancy
  Eu  Eu1       1.0  0.00000  0.00000  0.00000  1.0000
  Eu  Eu2       1.0  0.66700  0.33300  0.23100  1.0000
  Eu  Eu3       1.0  0.33300  0.66700  0.44100  1.0000
  Eu  Eu4       1.0  0.66700  0.33300  0.55900  1.0000
  Eu  Eu5       1.0  0.33300  0.66700  0.76900  1.0000
  O   O1        1.0  0.50000  0.00000  0.00000  1.0000
  O   O2        1.0  0.00000  0.50000  0.00000  1.0000
  O   O3        1.0  0.50000  0.50000  0.00000  1.0000
  O   O4        1.0  0.67500  0.83700  0.19700  1.0000
  O   O5        1.0  0.16300  0.32500  0.19700  1.0000
  O   O6        1.0  0.16300  0.83700  0.19700  1.0000
  O   O7        1.0  0.82600  0.65200  0.39600  1.0000
  O   O8        1.0  0.82600  0.17400  0.39600  1.0000
  O   O9        1.0  0.34800  0.17400  0.39600  1.0000
  O   O10       1.0  0.65200  0.82600  0.60400  1.0000
  O   O11       1.0  0.17400  0.82600  0.60400  1.0000
  O   O12       1.0  0.17400  0.34800  0.60400  1.0000
  O   O13       1.0  0.83700  0.67500  0.80300  1.0000
  O   O14       1.0  0.83700  0.16300  0.80300  1.0000
  O   O15       1.0  0.32500  0.16300  0.80300  1.0000
  Ta  Ta1       1.0  0.33300  0.66700  0.10600  1.0000
  Ta  Ta2       1.0  0.00000  0.00000  0.32300  1.0000
  Ta  Ta3       1.0  0.00000  0.00000  0.67700  1.0000
  Ta  Ta4       1.0  0.66700  0.33300  0.89400  1.0000
