data_image0
_chemical_formula_structural       Fe2Na2O16W4
_chemical_formula_sum              "Fe2 Na2 O16 W4"
_cell_length_a       9.78805
_cell_length_b       5.73425
_cell_length_c       4.96651
_cell_angle_alpha    90
_cell_angle_beta     90.7028
_cell_angle_gamma    90

_space_group_name_H-M_alt    "P 1"
_space_group_IT_number       1

loop_
  _space_group_symop_operation_xyz
  'x, y, z'

loop_
  _atom_site_type_symbol
  _atom_site_label
  _atom_site_symmetry_multiplicity
  _atom_site_fract_x
  _atom_site_fract_y
  _atom_site_fract_z
  _atom_site_occupancy
  Fe  Fe1       1.0  0.00000  0.66700  0.25000  1.0000
  Fe  Fe2       1.0  0.00000  0.33300  0.75000  1.0000
  Na  Na1       1.0  0.50000  0.69700  0.25000  1.0000
  Na  Na2       1.0  0.50000  0.30300  0.75000  1.0000
  O   O1        1.0  0.66300  0.91400  0.04000  1.0000
  O   O2        1.0  0.12700  0.87700  0.07910  1.0000
  O   O3        1.0  0.11000  0.37600  0.09220  1.0000
  O   O4        1.0  0.64200  0.38900  0.11300  1.0000
  O   O5        1.0  0.35800  0.38900  0.38700  1.0000
  O   O6        1.0  0.89000  0.37600  0.40800  1.0000
  O   O7        1.0  0.87300  0.87700  0.42100  1.0000
  O   O8        1.0  0.33700  0.91400  0.46000  1.0000
  O   O9        1.0  0.66300  0.08620  0.54000  1.0000
  O   O10       1.0  0.12700  0.12300  0.57900  1.0000
  O   O11       1.0  0.11000  0.62400  0.59200  1.0000
  O   O12       1.0  0.64200  0.61100  0.61300  1.0000
  O   O13       1.0  0.35800  0.61100  0.88700  1.0000
  O   O14       1.0  0.89000  0.62400  0.90800  1.0000
  O   O15       1.0  0.87300  0.12300  0.92100  1.0000
  O   O16       1.0  0.33700  0.08620  0.96000  1.0000
  W   W1        1.0  0.76000  0.18500  0.23600  1.0000
  W   W2        1.0  0.24000  0.18500  0.26400  1.0000
  W   W3        1.0  0.76000  0.81500  0.73600  1.0000
  W   W4        1.0  0.24000  0.81500  0.76400  1.0000
