data_image0
_chemical_formula_structural       O8Pu2Re4
_chemical_formula_sum              "O8 Pu2 Re4"
_cell_length_a       6.46212
_cell_length_b       6.46212
_cell_length_c       6.46212
_cell_angle_alpha    120.205
_cell_angle_beta     89.6456
_cell_angle_gamma    120.205

_space_group_name_H-M_alt    "P 1"
_space_group_IT_number       1

loop_
  _space_group_symop_operation_xyz
  'x, y, z'

loop_
  _atom_site_type_symbol
  _atom_site_label
  _atom_site_symmetry_multiplicity
  _atom_site_fract_x
  _atom_site_fract_y
  _atom_site_fract_z
  _atom_site_occupancy
  O   O1        1.0  0.60300  0.79200  0.39500  1.0000
  O   O2        1.0  0.18900  0.79200  0.39700  1.0000
  O   O3        1.0  0.60500  0.20800  0.39700  1.0000
  O   O4        1.0  0.14700  0.29200  0.43900  1.0000
  O   O5        1.0  0.60300  0.20800  0.81100  1.0000
  O   O6        1.0  0.56100  0.70800  0.85300  1.0000
  O   O7        1.0  0.14500  0.29200  0.85300  1.0000
  O   O8        1.0  0.14700  0.70800  0.85500  1.0000
  Pu  Pu1       1.0  0.00000  0.00000  0.00000  1.0000
  Pu  Pu2       1.0  0.75000  0.50000  0.25000  1.0000
  Re  Re1       1.0  0.37500  0.75000  0.12500  1.0000
  Re  Re2       1.0  0.87500  0.25000  0.62500  1.0000
  Re  Re3       1.0  0.37500  0.25000  0.62500  1.0000
  Re  Re4       1.0  0.37500  0.75000  0.62500  1.0000
