data_image0
_chemical_formula_structural       Ag8Ge4O12
_chemical_formula_sum              "Ag8 Ge4 O12"
_cell_length_a       4.65987
_cell_length_b       7.07689
_cell_length_c       10.4621
_cell_angle_alpha    90
_cell_angle_beta     90
_cell_angle_gamma    90

_space_group_name_H-M_alt    "P 1"
_space_group_IT_number       1

loop_
  _space_group_symop_operation_xyz
  'x, y, z'

loop_
  _atom_site_type_symbol
  _atom_site_label
  _atom_site_symmetry_multiplicity
  _atom_site_fract_x
  _atom_site_fract_y
  _atom_site_fract_z
  _atom_site_occupancy
  Ag  Ag1       1.0  0.09480  0.62700  0.12300  1.0000
  Ag  Ag2       1.0  0.51800  0.89500  0.22600  1.0000
  Ag  Ag3       1.0  0.48200  0.39500  0.27400  1.0000
  Ag  Ag4       1.0  0.90500  0.12700  0.37700  1.0000
  Ag  Ag5       1.0  0.40500  0.37300  0.62300  1.0000
  Ag  Ag6       1.0  0.98200  0.10500  0.72600  1.0000
  Ag  Ag7       1.0  0.01840  0.60500  0.77400  1.0000
  Ag  Ag8       1.0  0.59500  0.87300  0.87700  1.0000
  Ge  Ge1       1.0  0.03100  0.13100  0.06510  1.0000
  Ge  Ge2       1.0  0.96900  0.63100  0.43500  1.0000
  Ge  Ge3       1.0  0.46900  0.86900  0.56500  1.0000
  Ge  Ge4       1.0  0.53100  0.36900  0.93500  1.0000
  O   O1        1.0  0.86600  0.91300  0.04110  1.0000
  O   O2        1.0  0.78600  0.32800  0.06140  1.0000
  O   O3        1.0  0.20600  0.14200  0.21500  1.0000
  O   O4        1.0  0.79400  0.64200  0.28500  1.0000
  O   O5        1.0  0.21400  0.82800  0.43900  1.0000
  O   O6        1.0  0.13400  0.41300  0.45900  1.0000
  O   O7        1.0  0.63400  0.08670  0.54100  1.0000
  O   O8        1.0  0.71400  0.67200  0.56100  1.0000
  O   O9        1.0  0.29400  0.85800  0.71500  1.0000
  O   O10       1.0  0.70600  0.35800  0.78500  1.0000
  O   O11       1.0  0.28600  0.17200  0.93900  1.0000
  O   O12       1.0  0.36600  0.58700  0.95900  1.0000
