data_image0
_chemical_formula_structural       Cr2Na2O16W4
_chemical_formula_sum              "Cr2 Na2 O16 W4"
_cell_length_a       9.7545
_cell_length_b       5.71153
_cell_length_c       4.96045
_cell_angle_alpha    90
_cell_angle_beta     90.2461
_cell_angle_gamma    90

_space_group_name_H-M_alt    "P 1"
_space_group_IT_number       1

loop_
  _space_group_symop_operation_xyz
  'x, y, z'

loop_
  _atom_site_type_symbol
  _atom_site_label
  _atom_site_symmetry_multiplicity
  _atom_site_fract_x
  _atom_site_fract_y
  _atom_site_fract_z
  _atom_site_occupancy
  Cr  Cr1       1.0  0.00000  0.65300  0.25000  1.0000
  Cr  Cr2       1.0  0.00000  0.34700  0.75000  1.0000
  Na  Na1       1.0  0.50000  0.69300  0.25000  1.0000
  Na  Na2       1.0  0.50000  0.30700  0.75000  1.0000
  O   O1        1.0  0.66500  0.91100  0.04550  1.0000
  O   O2        1.0  0.12500  0.88000  0.07910  1.0000
  O   O3        1.0  0.11000  0.38200  0.08960  1.0000
  O   O4        1.0  0.64400  0.38500  0.11300  1.0000
  O   O5        1.0  0.35600  0.38500  0.38700  1.0000
  O   O6        1.0  0.89000  0.38200  0.41000  1.0000
  O   O7        1.0  0.87500  0.88000  0.42100  1.0000
  O   O8        1.0  0.33500  0.91100  0.45400  1.0000
  O   O9        1.0  0.66500  0.08890  0.54600  1.0000
  O   O10       1.0  0.12500  0.12000  0.57900  1.0000
  O   O11       1.0  0.11000  0.61800  0.59000  1.0000
  O   O12       1.0  0.64400  0.61500  0.61300  1.0000
  O   O13       1.0  0.35600  0.61500  0.88700  1.0000
  O   O14       1.0  0.89000  0.61800  0.91000  1.0000
  O   O15       1.0  0.87500  0.12000  0.92100  1.0000
  O   O16       1.0  0.33500  0.08890  0.95400  1.0000
  W   W1        1.0  0.76200  0.18300  0.23700  1.0000
  W   W2        1.0  0.23800  0.18300  0.26300  1.0000
  W   W3        1.0  0.76200  0.81700  0.73700  1.0000
  W   W4        1.0  0.23800  0.81700  0.76300  1.0000
