data_image0
_chemical_formula_structural       Bi4Cu4Pt4S12
_chemical_formula_sum              "Bi4 Cu4 Pt4 S12"
_cell_length_a       7.78525
_cell_length_b       12.7114
_cell_length_c       4.97312
_cell_angle_alpha    90
_cell_angle_beta     90
_cell_angle_gamma    90

_space_group_name_H-M_alt    "P 1"
_space_group_IT_number       1

loop_
  _space_group_symop_operation_xyz
  'x, y, z'

loop_
  _atom_site_type_symbol
  _atom_site_label
  _atom_site_symmetry_multiplicity
  _atom_site_fract_x
  _atom_site_fract_y
  _atom_site_fract_z
  _atom_site_occupancy
  Bi  Bi1       1.0  0.88300  0.36900  0.09540  1.0000
  Bi  Bi2       1.0  0.11700  0.86900  0.40500  1.0000
  Bi  Bi3       1.0  0.61700  0.63100  0.59500  1.0000
  Bi  Bi4       1.0  0.38300  0.13100  0.90500  1.0000
  Cu  Cu1       1.0  0.88400  0.06020  0.02690  1.0000
  Cu  Cu2       1.0  0.11600  0.56000  0.47300  1.0000
  Cu  Cu3       1.0  0.61600  0.94000  0.52700  1.0000
  Cu  Cu4       1.0  0.38400  0.44000  0.97300  1.0000
  Pt  Pt1       1.0  0.36500  0.75100  0.00510  1.0000
  Pt  Pt2       1.0  0.63500  0.25100  0.49500  1.0000
  Pt  Pt3       1.0  0.13500  0.24900  0.50500  1.0000
  Pt  Pt4       1.0  0.86500  0.74900  0.99500  1.0000
  S   S1        1.0  0.36300  0.58700  0.23300  1.0000
  S   S2        1.0  0.87000  0.58900  0.23900  1.0000
  S   S3        1.0  0.61700  0.79600  0.24000  1.0000
  S   S4        1.0  0.38300  0.29600  0.26000  1.0000
  S   S5        1.0  0.13000  0.08920  0.26100  1.0000
  S   S6        1.0  0.63700  0.08740  0.26700  1.0000
  S   S7        1.0  0.13700  0.41300  0.73300  1.0000
  S   S8        1.0  0.63000  0.41100  0.73900  1.0000
  S   S9        1.0  0.88300  0.20400  0.74000  1.0000
  S   S10       1.0  0.11700  0.70400  0.76000  1.0000
  S   S11       1.0  0.37000  0.91100  0.76100  1.0000
  S   S12       1.0  0.86300  0.91300  0.76700  1.0000
