data_image0
_chemical_formula_structural       La2Li4O6
_chemical_formula_sum              "La2 Li4 O6"
_cell_length_a       5.86741
_cell_length_b       5.86741
_cell_length_c       5.24894
_cell_angle_alpha    98.7493
_cell_angle_beta     98.7493
_cell_angle_gamma    122.012

_space_group_name_H-M_alt    "P 1"
_space_group_IT_number       1

loop_
  _space_group_symop_operation_xyz
  'x, y, z'

loop_
  _atom_site_type_symbol
  _atom_site_label
  _atom_site_symmetry_multiplicity
  _atom_site_fract_x
  _atom_site_fract_y
  _atom_site_fract_z
  _atom_site_occupancy
  La  La1       1.0  0.83200  0.16800  0.00000  1.0000
  La  La2       1.0  0.16800  0.83200  0.00000  1.0000
  Li  Li1       1.0  0.50000  0.50000  0.00000  1.0000
  Li  Li2       1.0  0.00000  0.00000  0.50000  1.0000
  Li  Li3       1.0  0.62200  0.37800  0.50000  1.0000
  Li  Li4       1.0  0.37800  0.62200  0.50000  1.0000
  O   O1        1.0  0.88400  0.57700  0.25700  1.0000
  O   O2        1.0  0.57700  0.88400  0.25700  1.0000
  O   O3        1.0  0.24800  0.24800  0.25800  1.0000
  O   O4        1.0  0.75200  0.75200  0.74200  1.0000
  O   O5        1.0  0.42300  0.11600  0.74300  1.0000
  O   O6        1.0  0.11600  0.42300  0.74300  1.0000
