data_image0
_chemical_formula_structural       Er2K2O16W4
_chemical_formula_sum              "Er2 K2 O16 W4"
_cell_length_a       7.38109
_cell_length_b       7.38109
_cell_length_c       7.49037
_cell_angle_alpha    117.866
_cell_angle_beta     62.1337
_cell_angle_gamma    91.7179

_space_group_name_H-M_alt    "P 1"
_space_group_IT_number       1

loop_
  _space_group_symop_operation_xyz
  'x, y, z'

loop_
  _atom_site_type_symbol
  _atom_site_label
  _atom_site_symmetry_multiplicity
  _atom_site_fract_x
  _atom_site_fract_y
  _atom_site_fract_z
  _atom_site_occupancy
  Er  Er1       1.0  0.77100  0.77100  0.25000  1.0000
  Er  Er2       1.0  0.22900  0.22900  0.75000  1.0000
  K   K1        1.0  0.20000  0.20000  0.25000  1.0000
  K   K2        1.0  0.80000  0.80000  0.75000  1.0000
  O   O1        1.0  0.63300  0.58700  0.02920  1.0000
  O   O2        1.0  0.61700  0.22700  0.05040  1.0000
  O   O3        1.0  0.93700  0.38500  0.12300  1.0000
  O   O4        1.0  0.79700  0.03880  0.18400  1.0000
  O   O5        1.0  0.03880  0.79700  0.31600  1.0000
  O   O6        1.0  0.38500  0.93700  0.37700  1.0000
  O   O7        1.0  0.22700  0.61700  0.45000  1.0000
  O   O8        1.0  0.58700  0.63300  0.47100  1.0000
  O   O9        1.0  0.41300  0.36700  0.52900  1.0000
  O   O10       1.0  0.77300  0.38300  0.55000  1.0000
  O   O11       1.0  0.61500  0.06300  0.62300  1.0000
  O   O12       1.0  0.96100  0.20300  0.68400  1.0000
  O   O13       1.0  0.20300  0.96100  0.81600  1.0000
  O   O14       1.0  0.06300  0.61500  0.87700  1.0000
  O   O15       1.0  0.38300  0.77300  0.95000  1.0000
  O   O16       1.0  0.36700  0.41300  0.97100  1.0000
  W   W1        1.0  0.30200  0.69900  0.23700  1.0000
  W   W2        1.0  0.69900  0.30200  0.26300  1.0000
  W   W3        1.0  0.30100  0.69800  0.73700  1.0000
  W   W4        1.0  0.69800  0.30100  0.76300  1.0000
