data_image0
_chemical_formula_structural       As4Mn4O16
_chemical_formula_sum              "As4 Mn4 O16"
_cell_length_a       6.62747
_cell_length_b       8.97875
_cell_length_c       4.7551
_cell_angle_alpha    90
_cell_angle_beta     93.151
_cell_angle_gamma    90

_space_group_name_H-M_alt    "P 1"
_space_group_IT_number       1

loop_
  _space_group_symop_operation_xyz
  'x, y, z'

loop_
  _atom_site_type_symbol
  _atom_site_label
  _atom_site_symmetry_multiplicity
  _atom_site_fract_x
  _atom_site_fract_y
  _atom_site_fract_z
  _atom_site_occupancy
  As  As1       1.0  0.22200  0.68200  0.03280  1.0000
  As  As2       1.0  0.27800  0.18200  0.46700  1.0000
  As  As3       1.0  0.72200  0.81800  0.53300  1.0000
  As  As4       1.0  0.77800  0.31800  0.96700  1.0000
  Mn  Mn1       1.0  0.00000  0.00000  0.00000  1.0000
  Mn  Mn2       1.0  0.50000  0.00000  0.00000  1.0000
  Mn  Mn3       1.0  0.00000  0.50000  0.50000  1.0000
  Mn  Mn4       1.0  0.50000  0.50000  0.50000  1.0000
  O   O1        1.0  0.23100  0.87200  0.09790  1.0000
  O   O2        1.0  0.00519  0.62400  0.17800  1.0000
  O   O3        1.0  0.44900  0.62400  0.18300  1.0000
  O   O4        1.0  0.72200  0.87600  0.18800  1.0000
  O   O5        1.0  0.77800  0.37600  0.31200  1.0000
  O   O6        1.0  0.05110  0.12400  0.31700  1.0000
  O   O7        1.0  0.49500  0.12400  0.32200  1.0000
  O   O8        1.0  0.26900  0.37200  0.40200  1.0000
  O   O9        1.0  0.73100  0.62800  0.59800  1.0000
  O   O10       1.0  0.50500  0.87600  0.67800  1.0000
  O   O11       1.0  0.94900  0.87600  0.68300  1.0000
  O   O12       1.0  0.22200  0.62400  0.68800  1.0000
  O   O13       1.0  0.27800  0.12400  0.81200  1.0000
  O   O14       1.0  0.55100  0.37600  0.81700  1.0000
  O   O15       1.0  0.99500  0.37600  0.82200  1.0000
  O   O16       1.0  0.76900  0.12800  0.90200  1.0000
