data_image0
_chemical_formula_structural       Li4Np2O6
_chemical_formula_sum              "Li4 Np2 O6"
_cell_length_a       5.7198
_cell_length_b       5.7198
_cell_length_c       5.23592
_cell_angle_alpha    99.8041
_cell_angle_beta     99.8041
_cell_angle_gamma    120.552

_space_group_name_H-M_alt    "P 1"
_space_group_IT_number       1

loop_
  _space_group_symop_operation_xyz
  'x, y, z'

loop_
  _atom_site_type_symbol
  _atom_site_label
  _atom_site_symmetry_multiplicity
  _atom_site_fract_x
  _atom_site_fract_y
  _atom_site_fract_z
  _atom_site_occupancy
  Li  Li1       1.0  0.50000  0.50000  0.00000  1.0000
  Li  Li2       1.0  0.00000  0.00000  0.50000  1.0000
  Li  Li3       1.0  0.63500  0.36500  0.50000  1.0000
  Li  Li4       1.0  0.36500  0.63500  0.50000  1.0000
  Np  Np1       1.0  0.83200  0.16800  0.00000  1.0000
  Np  Np2       1.0  0.16800  0.83200  0.00000  1.0000
  O   O1        1.0  0.90900  0.57900  0.24500  1.0000
  O   O2        1.0  0.57900  0.90900  0.24500  1.0000
  O   O3        1.0  0.24300  0.24300  0.25100  1.0000
  O   O4        1.0  0.75700  0.75700  0.74900  1.0000
  O   O5        1.0  0.42100  0.09090  0.75500  1.0000
  O   O6        1.0  0.09090  0.42100  0.75500  1.0000
