data_image0
_chemical_formula_structural       As6Cs2O16
_chemical_formula_sum              "As6 Cs2 O16"
_cell_length_a       7.23636
_cell_length_b       7.23636
_cell_length_c       7.61234
_cell_angle_alpha    103.251
_cell_angle_beta     103.251
_cell_angle_gamma    108.04

_space_group_name_H-M_alt    "P 1"
_space_group_IT_number       1

loop_
  _space_group_symop_operation_xyz
  'x, y, z'

loop_
  _atom_site_type_symbol
  _atom_site_label
  _atom_site_symmetry_multiplicity
  _atom_site_fract_x
  _atom_site_fract_y
  _atom_site_fract_z
  _atom_site_occupancy
  As  As1       1.0  0.70500  0.04830  0.07000  1.0000
  As  As2       1.0  0.07030  0.93000  0.25000  1.0000
  As  As3       1.0  0.95200  0.29500  0.43000  1.0000
  As  As4       1.0  0.04830  0.70500  0.57000  1.0000
  As  As5       1.0  0.93000  0.07030  0.75000  1.0000
  As  As6       1.0  0.29500  0.95200  0.93000  1.0000
  Cs  Cs1       1.0  0.42500  0.57500  0.25000  1.0000
  Cs  Cs2       1.0  0.57500  0.42500  0.75000  1.0000
  O   O1        1.0  0.52800  0.18300  0.03370  1.0000
  O   O2        1.0  0.84800  0.86300  0.06490  1.0000
  O   O3        1.0  0.28200  0.95800  0.17800  1.0000
  O   O4        1.0  0.93600  0.27900  0.17900  1.0000
  O   O5        1.0  0.72100  0.06440  0.32100  1.0000
  O   O6        1.0  0.04180  0.71800  0.32200  1.0000
  O   O7        1.0  0.13700  0.15200  0.43500  1.0000
  O   O8        1.0  0.81700  0.47200  0.46600  1.0000
  O   O9        1.0  0.18300  0.52800  0.53400  1.0000
  O   O10       1.0  0.86300  0.84800  0.56500  1.0000
  O   O11       1.0  0.95800  0.28200  0.67800  1.0000
  O   O12       1.0  0.27900  0.93600  0.67900  1.0000
  O   O13       1.0  0.06440  0.72100  0.82100  1.0000
  O   O14       1.0  0.71800  0.04180  0.82200  1.0000
  O   O15       1.0  0.15200  0.13700  0.93500  1.0000
  O   O16       1.0  0.47200  0.81700  0.96600  1.0000
