data_image0
_chemical_formula_structural       Gd11In9Ni4
_chemical_formula_sum              "Gd11 In9 Ni4"
_cell_length_a       3.68077
_cell_length_b       13.1251
_cell_length_c       13.1251
_cell_angle_alpha    112.665
_cell_angle_beta     90
_cell_angle_gamma    90

_space_group_name_H-M_alt    "P 1"
_space_group_IT_number       1

loop_
  _space_group_symop_operation_xyz
  'x, y, z'

loop_
  _atom_site_type_symbol
  _atom_site_label
  _atom_site_symmetry_multiplicity
  _atom_site_fract_x
  _atom_site_fract_y
  _atom_site_fract_z
  _atom_site_occupancy
  Gd  Gd1       1.0  0.00000  0.00000  0.00000  1.0000
  Gd  Gd2       1.0  0.00000  0.41700  0.07950  1.0000
  Gd  Gd3       1.0  0.00000  0.83900  0.16100  1.0000
  Gd  Gd4       1.0  0.00000  0.31200  0.31200  1.0000
  Gd  Gd5       1.0  0.00000  0.62500  0.37500  1.0000
  Gd  Gd6       1.0  0.00000  0.07950  0.41700  1.0000
  Gd  Gd7       1.0  0.00000  0.92100  0.58300  1.0000
  Gd  Gd8       1.0  0.00000  0.37500  0.62500  1.0000
  Gd  Gd9       1.0  0.00000  0.68800  0.68800  1.0000
  Gd  Gd10      1.0  0.00000  0.16100  0.83900  1.0000
  Gd  Gd11      1.0  0.00000  0.58300  0.92100  1.0000
  In  In1       1.0  0.50000  0.21900  0.07790  1.0000
  In  In2       1.0  0.50000  0.63200  0.15900  1.0000
  In  In3       1.0  0.50000  0.07790  0.21900  1.0000
  In  In4       1.0  0.50000  0.84100  0.36800  1.0000
  In  In5       1.0  0.50000  0.50000  0.50000  1.0000
  In  In6       1.0  0.50000  0.15900  0.63200  1.0000
  In  In7       1.0  0.50000  0.92200  0.78100  1.0000
  In  In8       1.0  0.50000  0.36800  0.84100  1.0000
  In  In9       1.0  0.50000  0.78100  0.92200  1.0000
  Ni  Ni1       1.0  0.50000  0.44900  0.24800  1.0000
  Ni  Ni2       1.0  0.50000  0.24800  0.44900  1.0000
  Ni  Ni3       1.0  0.50000  0.75200  0.55100  1.0000
  Ni  Ni4       1.0  0.50000  0.55100  0.75200  1.0000
