data_image0
_chemical_formula_structural       Ca4Cr2Nb2O12
_chemical_formula_sum              "Ca4 Cr2 Nb2 O12"
_cell_length_a       5.40932
_cell_length_b       5.55219
_cell_length_c       7.72401
_cell_angle_alpha    90
_cell_angle_beta     89.8912
_cell_angle_gamma    90

_space_group_name_H-M_alt    "P 1"
_space_group_IT_number       1

loop_
  _space_group_symop_operation_xyz
  'x, y, z'

loop_
  _atom_site_type_symbol
  _atom_site_label
  _atom_site_symmetry_multiplicity
  _atom_site_fract_x
  _atom_site_fract_y
  _atom_site_fract_z
  _atom_site_occupancy
  Ca  Ca1       1.0  0.98800  0.95200  0.24900  1.0000
  Ca  Ca2       1.0  0.51200  0.45200  0.25100  1.0000
  Ca  Ca3       1.0  0.48800  0.54800  0.74900  1.0000
  Ca  Ca4       1.0  0.01160  0.04820  0.75100  1.0000
  Cr  Cr1       1.0  0.00000  0.50000  0.00000  1.0000
  Cr  Cr2       1.0  0.50000  0.00000  0.50000  1.0000
  Nb  Nb1       1.0  0.50000  0.00000  0.00000  1.0000
  Nb  Nb2       1.0  0.00000  0.50000  0.50000  1.0000
  O   O1        1.0  0.79700  0.20500  0.04680  1.0000
  O   O2        1.0  0.70300  0.70500  0.04800  1.0000
  O   O3        1.0  0.09080  0.52500  0.25000  1.0000
  O   O4        1.0  0.40900  0.02550  0.25000  1.0000
  O   O5        1.0  0.79700  0.20500  0.45200  1.0000
  O   O6        1.0  0.70300  0.70500  0.45300  1.0000
  O   O7        1.0  0.29700  0.29500  0.54700  1.0000
  O   O8        1.0  0.20300  0.79500  0.54800  1.0000
  O   O9        1.0  0.59100  0.97500  0.75000  1.0000
  O   O10       1.0  0.90900  0.47500  0.75000  1.0000
  O   O11       1.0  0.29700  0.29500  0.95200  1.0000
  O   O12       1.0  0.20300  0.79500  0.95300  1.0000
