data_image0
_chemical_formula_structural       B4Ba4Pd16
_chemical_formula_sum              "B4 Ba4 Pd16"
_cell_length_a       6.18744
_cell_length_b       5.70187
_cell_length_c       12.1797
_cell_angle_alpha    90
_cell_angle_beta     90
_cell_angle_gamma    90

_space_group_name_H-M_alt    "P 1"
_space_group_IT_number       1

loop_
  _space_group_symop_operation_xyz
  'x, y, z'

loop_
  _atom_site_type_symbol
  _atom_site_label
  _atom_site_symmetry_multiplicity
  _atom_site_fract_x
  _atom_site_fract_y
  _atom_site_fract_z
  _atom_site_occupancy
  B   B1        1.0  0.09670  0.25000  0.05170  1.0000
  B   B2        1.0  0.59700  0.25000  0.44800  1.0000
  B   B3        1.0  0.40300  0.75000  0.55200  1.0000
  B   B4        1.0  0.90300  0.75000  0.94800  1.0000
  Ba  Ba1       1.0  0.31500  0.75000  0.16400  1.0000
  Ba  Ba2       1.0  0.81500  0.75000  0.33600  1.0000
  Ba  Ba3       1.0  0.18500  0.25000  0.66400  1.0000
  Ba  Ba4       1.0  0.68500  0.25000  0.83600  1.0000
  Pd  Pd1       1.0  0.43600  0.25000  0.06000  1.0000
  Pd  Pd2       1.0  0.83400  0.00610  0.08130  1.0000
  Pd  Pd3       1.0  0.83400  0.49400  0.08130  1.0000
  Pd  Pd4       1.0  0.10900  0.25000  0.23200  1.0000
  Pd  Pd5       1.0  0.60900  0.25000  0.26800  1.0000
  Pd  Pd6       1.0  0.33400  0.00610  0.41900  1.0000
  Pd  Pd7       1.0  0.33400  0.49400  0.41900  1.0000
  Pd  Pd8       1.0  0.93600  0.25000  0.44000  1.0000
  Pd  Pd9       1.0  0.06400  0.75000  0.56000  1.0000
  Pd  Pd10      1.0  0.66600  0.50600  0.58100  1.0000
  Pd  Pd11      1.0  0.66600  0.99400  0.58100  1.0000
  Pd  Pd12      1.0  0.39100  0.75000  0.73200  1.0000
  Pd  Pd13      1.0  0.89100  0.75000  0.76800  1.0000
  Pd  Pd14      1.0  0.16600  0.50600  0.91900  1.0000
  Pd  Pd15      1.0  0.16600  0.99400  0.91900  1.0000
  Pd  Pd16      1.0  0.56400  0.75000  0.94000  1.0000
