data_image0
_chemical_formula_structural       Nd4O16Sb4
_chemical_formula_sum              "Nd4 O16 Sb4"
_cell_length_a       7.64522
_cell_length_b       5.51379
_cell_length_c       7.66269
_cell_angle_alpha    90
_cell_angle_beta     100.172
_cell_angle_gamma    90

_space_group_name_H-M_alt    "P 1"
_space_group_IT_number       1

loop_
  _space_group_symop_operation_xyz
  'x, y, z'

loop_
  _atom_site_type_symbol
  _atom_site_label
  _atom_site_symmetry_multiplicity
  _atom_site_fract_x
  _atom_site_fract_y
  _atom_site_fract_z
  _atom_site_occupancy
  Nd  Nd1       1.0  0.85100  0.27300  0.10000  1.0000
  Nd  Nd2       1.0  0.14900  0.77300  0.40000  1.0000
  Nd  Nd3       1.0  0.85100  0.22700  0.60000  1.0000
  Nd  Nd4       1.0  0.14900  0.72700  0.90000  1.0000
  O   O1        1.0  0.66600  0.63500  0.05590  1.0000
  O   O2        1.0  0.16900  0.00470  0.12800  1.0000
  O   O3        1.0  0.11800  0.48000  0.17300  1.0000
  O   O4        1.0  0.56300  0.09190  0.19900  1.0000
  O   O5        1.0  0.43700  0.59200  0.30100  1.0000
  O   O6        1.0  0.88200  0.98000  0.32700  1.0000
  O   O7        1.0  0.83100  0.50500  0.37200  1.0000
  O   O8        1.0  0.33400  0.13500  0.44400  1.0000
  O   O9        1.0  0.66600  0.86500  0.55600  1.0000
  O   O10       1.0  0.16900  0.49500  0.62800  1.0000
  O   O11       1.0  0.11800  0.02040  0.67300  1.0000
  O   O12       1.0  0.56300  0.40800  0.69900  1.0000
  O   O13       1.0  0.43700  0.90800  0.80100  1.0000
  O   O14       1.0  0.88200  0.52000  0.82700  1.0000
  O   O15       1.0  0.83100  0.99500  0.87200  1.0000
  O   O16       1.0  0.33400  0.36500  0.94400  1.0000
  Sb  Sb1       1.0  0.33700  0.27000  0.19800  1.0000
  Sb  Sb2       1.0  0.66300  0.77000  0.30200  1.0000
  Sb  Sb3       1.0  0.33700  0.23000  0.69800  1.0000
  Sb  Sb4       1.0  0.66300  0.73000  0.80200  1.0000
