data_image0
_chemical_formula_structural       K2O16Pr2S4
_chemical_formula_sum              "K2 O16 Pr2 S4"
_cell_length_a       6.91213
_cell_length_b       5.36678
_cell_length_c       8.39613
_cell_angle_alpha    91.4601
_cell_angle_beta     93.3891
_cell_angle_gamma    88.3193

_space_group_name_H-M_alt    "P 1"
_space_group_IT_number       1

loop_
  _space_group_symop_operation_xyz
  'x, y, z'

loop_
  _atom_site_type_symbol
  _atom_site_label
  _atom_site_symmetry_multiplicity
  _atom_site_fract_x
  _atom_site_fract_y
  _atom_site_fract_z
  _atom_site_occupancy
  K   K1        1.0  0.34600  0.75300  0.31400  1.0000
  K   K2        1.0  0.65400  0.24700  0.68600  1.0000
  O   O1        1.0  0.22200  0.53500  0.02030  1.0000
  O   O2        1.0  0.14300  0.11200  0.08600  1.0000
  O   O3        1.0  0.61500  0.82900  0.09810  1.0000
  O   O4        1.0  0.45100  0.28800  0.18200  1.0000
  O   O5        1.0  0.96000  0.76800  0.30300  1.0000
  O   O6        1.0  0.70900  0.51200  0.40000  1.0000
  O   O7        1.0  0.07810  0.27200  0.40800  1.0000
  O   O8        1.0  0.69000  0.96500  0.42500  1.0000
  O   O9        1.0  0.31000  0.03490  0.57500  1.0000
  O   O10       1.0  0.92200  0.72800  0.59200  1.0000
  O   O11       1.0  0.29100  0.48800  0.60000  1.0000
  O   O12       1.0  0.04000  0.23200  0.69700  1.0000
  O   O13       1.0  0.54900  0.71200  0.81800  1.0000
  O   O14       1.0  0.38500  0.17100  0.90200  1.0000
  O   O15       1.0  0.85700  0.88800  0.91400  1.0000
  O   O16       1.0  0.77800  0.46500  0.98000  1.0000
  Pr  Pr1       1.0  0.81800  0.18500  0.20100  1.0000
  Pr  Pr2       1.0  0.18200  0.81500  0.79900  1.0000
  S   S1        1.0  0.30400  0.27900  0.04850  1.0000
  S   S2        1.0  0.82400  0.74000  0.43200  1.0000
  S   S3        1.0  0.17600  0.26000  0.56800  1.0000
  S   S4        1.0  0.69600  0.72100  0.95200  1.0000
