data_image0
_chemical_formula_structural       In9Nd11Ni4
_chemical_formula_sum              "In9 Nd11 Ni4"
_cell_length_a       3.79436
_cell_length_b       13.503
_cell_length_c       13.503
_cell_angle_alpha    112.922
_cell_angle_beta     90
_cell_angle_gamma    90

_space_group_name_H-M_alt    "P 1"
_space_group_IT_number       1

loop_
  _space_group_symop_operation_xyz
  'x, y, z'

loop_
  _atom_site_type_symbol
  _atom_site_label
  _atom_site_symmetry_multiplicity
  _atom_site_fract_x
  _atom_site_fract_y
  _atom_site_fract_z
  _atom_site_occupancy
  In  In1       1.0  0.50000  0.22600  0.08860  1.0000
  In  In2       1.0  0.50000  0.62800  0.16600  1.0000
  In  In3       1.0  0.50000  0.08860  0.22600  1.0000
  In  In4       1.0  0.50000  0.83400  0.37200  1.0000
  In  In5       1.0  0.50000  0.50000  0.50000  1.0000
  In  In6       1.0  0.50000  0.16600  0.62800  1.0000
  In  In7       1.0  0.50000  0.91100  0.77400  1.0000
  In  In8       1.0  0.50000  0.37200  0.83400  1.0000
  In  In9       1.0  0.50000  0.77400  0.91100  1.0000
  Nd  Nd1       1.0  0.00000  0.00000  0.00000  1.0000
  Nd  Nd2       1.0  0.00000  0.41200  0.07370  1.0000
  Nd  Nd3       1.0  0.00000  0.84000  0.16000  1.0000
  Nd  Nd4       1.0  0.00000  0.30700  0.30700  1.0000
  Nd  Nd5       1.0  0.00000  0.62200  0.37800  1.0000
  Nd  Nd6       1.0  0.00000  0.07370  0.41200  1.0000
  Nd  Nd7       1.0  0.00000  0.92600  0.58800  1.0000
  Nd  Nd8       1.0  0.00000  0.37800  0.62200  1.0000
  Nd  Nd9       1.0  0.00000  0.69300  0.69300  1.0000
  Nd  Nd10      1.0  0.00000  0.16000  0.84000  1.0000
  Nd  Nd11      1.0  0.00000  0.58800  0.92600  1.0000
  Ni  Ni1       1.0  0.50000  0.45200  0.26200  1.0000
  Ni  Ni2       1.0  0.50000  0.26200  0.45200  1.0000
  Ni  Ni3       1.0  0.50000  0.73800  0.54800  1.0000
  Ni  Ni4       1.0  0.50000  0.54800  0.73800  1.0000
