data_image0
_chemical_formula_structural       Li2O16Pr2W4
_chemical_formula_sum              "Li2 O16 Pr2 W4"
_cell_length_a       7.45941
_cell_length_b       8.01474
_cell_length_c       7.07615
_cell_angle_alpha    114.453
_cell_angle_beta     115.621
_cell_angle_gamma    56.4738

_space_group_name_H-M_alt    "P 1"
_space_group_IT_number       1

loop_
  _space_group_symop_operation_xyz
  'x, y, z'

loop_
  _atom_site_type_symbol
  _atom_site_label
  _atom_site_symmetry_multiplicity
  _atom_site_fract_x
  _atom_site_fract_y
  _atom_site_fract_z
  _atom_site_occupancy
  Li  Li1       1.0  0.34800  0.67800  0.26700  1.0000
  Li  Li2       1.0  0.65200  0.32200  0.73300  1.0000
  O   O1        1.0  0.78100  0.30500  0.03170  1.0000
  O   O2        1.0  0.80700  0.99300  0.13500  1.0000
  O   O3        1.0  0.43700  0.36800  0.17900  1.0000
  O   O4        1.0  0.91800  0.64200  0.18000  1.0000
  O   O5        1.0  0.52100  0.98500  0.29200  1.0000
  O   O6        1.0  0.08440  0.17200  0.38200  1.0000
  O   O7        1.0  0.70700  0.54400  0.43900  1.0000
  O   O8        1.0  0.18700  0.82500  0.48300  1.0000
  O   O9        1.0  0.81300  0.17500  0.51700  1.0000
  O   O10       1.0  0.29300  0.45600  0.56100  1.0000
  O   O11       1.0  0.91600  0.82800  0.61800  1.0000
  O   O12       1.0  0.47900  0.01470  0.70800  1.0000
  O   O13       1.0  0.08150  0.35800  0.82000  1.0000
  O   O14       1.0  0.56300  0.63200  0.82100  1.0000
  O   O15       1.0  0.19300  0.00730  0.86500  1.0000
  O   O16       1.0  0.21900  0.69500  0.96800  1.0000
  Pr  Pr1       1.0  0.16900  0.28700  0.17900  1.0000
  Pr  Pr2       1.0  0.83100  0.71300  0.82100  1.0000
  W   W1        1.0  0.72900  0.29800  0.25500  1.0000
  W   W2        1.0  0.81200  0.89900  0.35500  1.0000
  W   W3        1.0  0.18800  0.10100  0.64500  1.0000
  W   W4        1.0  0.27100  0.70200  0.74500  1.0000
