data_image0
_chemical_formula_structural       S14Sb8Sn2
_chemical_formula_sum              "S14 Sb8 Sn2"
_cell_length_a       11.2533
_cell_length_b       3.90154
_cell_length_c       14.5336
_cell_angle_alpha    90
_cell_angle_beta     104.426
_cell_angle_gamma    90

_space_group_name_H-M_alt    "P 1"
_space_group_IT_number       1

loop_
  _space_group_symop_operation_xyz
  'x, y, z'

loop_
  _atom_site_type_symbol
  _atom_site_label
  _atom_site_symmetry_multiplicity
  _atom_site_fract_x
  _atom_site_fract_y
  _atom_site_fract_z
  _atom_site_occupancy
  S   S1        1.0  0.23500  0.25000  0.03890  1.0000
  S   S2        1.0  0.51400  0.75000  0.10700  1.0000
  S   S3        1.0  0.95000  0.25000  0.18000  1.0000
  S   S4        1.0  0.23200  0.75000  0.25700  1.0000
  S   S5        1.0  0.75800  0.25000  0.33100  1.0000
  S   S6        1.0  0.52900  0.75000  0.39700  1.0000
  S   S7        1.0  0.11000  0.25000  0.46000  1.0000
  S   S8        1.0  0.89000  0.75000  0.54000  1.0000
  S   S9        1.0  0.47100  0.25000  0.60300  1.0000
  S   S10       1.0  0.24200  0.75000  0.66900  1.0000
  S   S11       1.0  0.76800  0.25000  0.74300  1.0000
  S   S12       1.0  0.05010  0.75000  0.82000  1.0000
  S   S13       1.0  0.48600  0.25000  0.89300  1.0000
  S   S14       1.0  0.76500  0.75000  0.96100  1.0000
  Sb  Sb1       1.0  0.65800  0.25000  0.04020  1.0000
  Sb  Sb2       1.0  0.05470  0.75000  0.11800  1.0000
  Sb  Sb3       1.0  0.92800  0.75000  0.37900  1.0000
  Sb  Sb4       1.0  0.66700  0.25000  0.47600  1.0000
  Sb  Sb5       1.0  0.33300  0.75000  0.52400  1.0000
  Sb  Sb6       1.0  0.07240  0.25000  0.62100  1.0000
  Sb  Sb7       1.0  0.94500  0.25000  0.88200  1.0000
  Sb  Sb8       1.0  0.34200  0.75000  0.96000  1.0000
  Sn  Sn1       1.0  0.38300  0.25000  0.21600  1.0000
  Sn  Sn2       1.0  0.61700  0.75000  0.78400  1.0000
