data_image0
_chemical_formula_structural       B4Li6O12Sc2
_chemical_formula_sum              "B4 Li6 O12 Sc2"
_cell_length_a       4.76819
_cell_length_b       5.88359
_cell_length_c       9.39248
_cell_angle_alpha    90
_cell_angle_beta     119.964
_cell_angle_gamma    90

_space_group_name_H-M_alt    "P 1"
_space_group_IT_number       1

loop_
  _space_group_symop_operation_xyz
  'x, y, z'

loop_
  _atom_site_type_symbol
  _atom_site_label
  _atom_site_symmetry_multiplicity
  _atom_site_fract_x
  _atom_site_fract_y
  _atom_site_fract_z
  _atom_site_occupancy
  B   B1        1.0  0.61000  0.69300  0.12400  1.0000
  B   B2        1.0  0.39000  0.19300  0.37600  1.0000
  B   B3        1.0  0.61000  0.80700  0.62400  1.0000
  B   B4        1.0  0.39000  0.30700  0.87600  1.0000
  Li  Li1       1.0  0.00000  0.50000  0.00000  1.0000
  Li  Li2       1.0  0.68400  0.25100  0.20400  1.0000
  Li  Li3       1.0  0.31600  0.75100  0.29600  1.0000
  Li  Li4       1.0  0.00000  0.00000  0.50000  1.0000
  Li  Li5       1.0  0.68400  0.24900  0.70400  1.0000
  Li  Li6       1.0  0.31600  0.74900  0.79600  1.0000
  O   O1        1.0  0.69300  0.24700  0.00440  1.0000
  O   O2        1.0  0.88000  0.73400  0.11100  1.0000
  O   O3        1.0  0.37100  0.08320  0.24100  1.0000
  O   O4        1.0  0.62900  0.58300  0.25900  1.0000
  O   O5        1.0  0.12000  0.23400  0.38900  1.0000
  O   O6        1.0  0.30700  0.74700  0.49600  1.0000
  O   O7        1.0  0.69300  0.25300  0.50400  1.0000
  O   O8        1.0  0.88000  0.76600  0.61100  1.0000
  O   O9        1.0  0.37100  0.41700  0.74100  1.0000
  O   O10       1.0  0.62900  0.91700  0.75900  1.0000
  O   O11       1.0  0.12000  0.26600  0.88900  1.0000
  O   O12       1.0  0.30700  0.75300  0.99600  1.0000
  Sc  Sc1       1.0  0.00000  0.00000  0.00000  1.0000
  Sc  Sc2       1.0  0.00000  0.50000  0.50000  1.0000
