data_image0
_chemical_formula_structural       Eu4O16Sb4
_chemical_formula_sum              "Eu4 O16 Sb4"
_cell_length_a       7.79002
_cell_length_b       5.3994
_cell_length_c       7.57431
_cell_angle_alpha    90
_cell_angle_beta     99.4065
_cell_angle_gamma    90

_space_group_name_H-M_alt    "P 1"
_space_group_IT_number       1

loop_
  _space_group_symop_operation_xyz
  'x, y, z'

loop_
  _atom_site_type_symbol
  _atom_site_label
  _atom_site_symmetry_multiplicity
  _atom_site_fract_x
  _atom_site_fract_y
  _atom_site_fract_z
  _atom_site_occupancy
  Eu  Eu1       1.0  0.84900  0.27400  0.09890  1.0000
  Eu  Eu2       1.0  0.15100  0.77400  0.40100  1.0000
  Eu  Eu3       1.0  0.84900  0.22600  0.59900  1.0000
  Eu  Eu4       1.0  0.15100  0.72600  0.90100  1.0000
  O   O1        1.0  0.65600  0.63200  0.05480  1.0000
  O   O2        1.0  0.16400  0.02000  0.13000  1.0000
  O   O3        1.0  0.12300  0.46300  0.17300  1.0000
  O   O4        1.0  0.56800  0.10100  0.19800  1.0000
  O   O5        1.0  0.43200  0.60100  0.30200  1.0000
  O   O6        1.0  0.87700  0.96300  0.32700  1.0000
  O   O7        1.0  0.83600  0.52000  0.37000  1.0000
  O   O8        1.0  0.34400  0.13200  0.44500  1.0000
  O   O9        1.0  0.65600  0.86800  0.55500  1.0000
  O   O10       1.0  0.16400  0.48000  0.63000  1.0000
  O   O11       1.0  0.12300  0.03710  0.67300  1.0000
  O   O12       1.0  0.56800  0.39900  0.69800  1.0000
  O   O13       1.0  0.43200  0.89900  0.80200  1.0000
  O   O14       1.0  0.87700  0.53700  0.82700  1.0000
  O   O15       1.0  0.83600  0.98000  0.87000  1.0000
  O   O16       1.0  0.34400  0.36800  0.94500  1.0000
  Sb  Sb1       1.0  0.34500  0.27300  0.20000  1.0000
  Sb  Sb2       1.0  0.65500  0.77300  0.30000  1.0000
  Sb  Sb3       1.0  0.34500  0.22700  0.70000  1.0000
  Sb  Sb4       1.0  0.65500  0.72700  0.80000  1.0000
