data_image0
_chemical_formula_structural       Cr2Li2Mo4O16
_chemical_formula_sum              "Cr2 Li2 Mo4 O16"
_cell_length_a       6.71489
_cell_length_b       7.16366
_cell_length_c       7.12596
_cell_angle_alpha    91.0423
_cell_angle_beta     110.059
_cell_angle_gamma    106.083

_space_group_name_H-M_alt    "P 1"
_space_group_IT_number       1

loop_
  _space_group_symop_operation_xyz
  'x, y, z'

loop_
  _atom_site_type_symbol
  _atom_site_label
  _atom_site_symmetry_multiplicity
  _atom_site_fract_x
  _atom_site_fract_y
  _atom_site_fract_z
  _atom_site_occupancy
  Cr  Cr1       1.0  0.90400  0.60000  0.32200  1.0000
  Cr  Cr2       1.0  0.09610  0.40000  0.67800  1.0000
  Li  Li1       1.0  0.27400  0.95100  0.26700  1.0000
  Li  Li2       1.0  0.72600  0.04860  0.73300  1.0000
  Mo  Mo1       1.0  0.32500  0.46800  0.22600  1.0000
  Mo  Mo2       1.0  0.82700  0.07050  0.28100  1.0000
  Mo  Mo3       1.0  0.17300  0.93000  0.71900  1.0000
  Mo  Mo4       1.0  0.67500  0.53200  0.77400  1.0000
  O   O1        1.0  0.73600  0.06680  0.02270  1.0000
  O   O2        1.0  0.72200  0.52800  0.03460  1.0000
  O   O3        1.0  0.20700  0.22200  0.25100  1.0000
  O   O4        1.0  0.18600  0.63700  0.27400  1.0000
  O   O5        1.0  0.98100  0.88600  0.33800  1.0000
  O   O6        1.0  0.59200  0.97200  0.34000  1.0000
  O   O7        1.0  0.62000  0.55200  0.37000  1.0000
  O   O8        1.0  0.91600  0.33700  0.38500  1.0000
  O   O9        1.0  0.08370  0.66300  0.61500  1.0000
  O   O10       1.0  0.38000  0.44800  0.63000  1.0000
  O   O11       1.0  0.40800  0.02760  0.66000  1.0000
  O   O12       1.0  0.01850  0.11400  0.66200  1.0000
  O   O13       1.0  0.81400  0.36300  0.72600  1.0000
  O   O14       1.0  0.79300  0.77800  0.74900  1.0000
  O   O15       1.0  0.27800  0.47200  0.96500  1.0000
  O   O16       1.0  0.26400  0.93300  0.97700  1.0000
