data_image0
_chemical_formula_structural       As8Ce8Se8
_chemical_formula_sum              "As8 Ce8 Se8"
_cell_length_a       5.84336
_cell_length_b       5.83187
_cell_length_c       18.1412
_cell_angle_alpha    90
_cell_angle_beta     90
_cell_angle_gamma    90

_space_group_name_H-M_alt    "P 1"
_space_group_IT_number       1

loop_
  _space_group_symop_operation_xyz
  'x, y, z'

loop_
  _atom_site_type_symbol
  _atom_site_label
  _atom_site_symmetry_multiplicity
  _atom_site_fract_x
  _atom_site_fract_y
  _atom_site_fract_z
  _atom_site_occupancy
  As  As1       1.0  0.28500  0.03140  0.00196  1.0000
  As  As2       1.0  0.28500  0.46900  0.00196  1.0000
  As  As3       1.0  0.78500  0.03140  0.49800  1.0000
  As  As4       1.0  0.78500  0.46900  0.49800  1.0000
  As  As5       1.0  0.21500  0.53100  0.50200  1.0000
  As  As6       1.0  0.21500  0.96900  0.50200  1.0000
  As  As7       1.0  0.71500  0.53100  0.99800  1.0000
  As  As8       1.0  0.71500  0.96900  0.99800  1.0000
  Ce  Ce1       1.0  0.01110  0.75000  0.13800  1.0000
  Ce  Ce2       1.0  0.51200  0.25000  0.14300  1.0000
  Ce  Ce3       1.0  0.01170  0.25000  0.35700  1.0000
  Ce  Ce4       1.0  0.51100  0.75000  0.36200  1.0000
  Ce  Ce5       1.0  0.48900  0.25000  0.63800  1.0000
  Ce  Ce6       1.0  0.98800  0.75000  0.64300  1.0000
  Ce  Ce7       1.0  0.48800  0.75000  0.85700  1.0000
  Ce  Ce8       1.0  0.98900  0.25000  0.86200  1.0000
  Se  Se1       1.0  0.00925  0.25000  0.18400  1.0000
  Se  Se2       1.0  0.51000  0.75000  0.18900  1.0000
  Se  Se3       1.0  0.01010  0.75000  0.31100  1.0000
  Se  Se4       1.0  0.50900  0.25000  0.31600  1.0000
  Se  Se5       1.0  0.49100  0.75000  0.68400  1.0000
  Se  Se6       1.0  0.99000  0.25000  0.68900  1.0000
  Se  Se7       1.0  0.49000  0.25000  0.81100  1.0000
  Se  Se8       1.0  0.99100  0.75000  0.81600  1.0000
