data_image0
_chemical_formula_structural       F4In4O12Te4
_chemical_formula_sum              "F4 In4 O12 Te4"
_cell_length_a       7.85111
_cell_length_b       5.39029
_cell_length_c       8.01485
_cell_angle_alpha    90
_cell_angle_beta     91.2399
_cell_angle_gamma    90

_space_group_name_H-M_alt    "P 1"
_space_group_IT_number       1

loop_
  _space_group_symop_operation_xyz
  'x, y, z'

loop_
  _atom_site_type_symbol
  _atom_site_label
  _atom_site_symmetry_multiplicity
  _atom_site_fract_x
  _atom_site_fract_y
  _atom_site_fract_z
  _atom_site_occupancy
  F   F1        1.0  0.30200  0.04130  0.39000  1.0000
  F   F2        1.0  0.80200  0.45900  0.39000  1.0000
  F   F3        1.0  0.19800  0.54100  0.61000  1.0000
  F   F4        1.0  0.69800  0.95900  0.61000  1.0000
  In  In1       1.0  0.82700  0.27000  0.14100  1.0000
  In  In2       1.0  0.32700  0.23000  0.14100  1.0000
  In  In3       1.0  0.17300  0.73000  0.85900  1.0000
  In  In4       1.0  0.67300  0.77000  0.85900  1.0000
  O   O1        1.0  0.17200  0.90100  0.10000  1.0000
  O   O2        1.0  0.67200  0.59900  0.10000  1.0000
  O   O3        1.0  0.57500  0.07850  0.16500  1.0000
  O   O4        1.0  0.07470  0.42100  0.16500  1.0000
  O   O5        1.0  0.36800  0.56100  0.28500  1.0000
  O   O6        1.0  0.86800  0.93900  0.28500  1.0000
  O   O7        1.0  0.13200  0.06060  0.71500  1.0000
  O   O8        1.0  0.63200  0.43900  0.71500  1.0000
  O   O9        1.0  0.92500  0.57900  0.83500  1.0000
  O   O10       1.0  0.42500  0.92100  0.83500  1.0000
  O   O11       1.0  0.82800  0.09900  0.90000  1.0000
  O   O12       1.0  0.32800  0.40100  0.90000  1.0000
  Te  Te1       1.0  0.14400  0.70700  0.30400  1.0000
  Te  Te2       1.0  0.64400  0.79300  0.30400  1.0000
  Te  Te3       1.0  0.35600  0.20700  0.69600  1.0000
  Te  Te4       1.0  0.85600  0.29300  0.69600  1.0000
