data_image0
_chemical_formula_structural       Ru9Sb8Zn7
_chemical_formula_sum              "Ru9 Sb8 Zn7"
_cell_length_a       8.48092
_cell_length_b       8.48092
_cell_length_c       8.48092
_cell_angle_alpha    120
_cell_angle_beta     90
_cell_angle_gamma    120

_space_group_name_H-M_alt    "P 1"
_space_group_IT_number       1

loop_
  _space_group_symop_operation_xyz
  'x, y, z'

loop_
  _atom_site_type_symbol
  _atom_site_label
  _atom_site_symmetry_multiplicity
  _atom_site_fract_x
  _atom_site_fract_y
  _atom_site_fract_z
  _atom_site_occupancy
  Ru  Ru1       1.0  0.37100  0.24700  0.12400  1.0000
  Ru  Ru2       1.0  0.87600  0.24700  0.12400  1.0000
  Ru  Ru3       1.0  0.87600  0.75300  0.12400  1.0000
  Ru  Ru4       1.0  0.12400  0.24700  0.37100  1.0000
  Ru  Ru5       1.0  0.50000  0.00000  0.50000  1.0000
  Ru  Ru6       1.0  0.87600  0.75300  0.62900  1.0000
  Ru  Ru7       1.0  0.12400  0.24700  0.87600  1.0000
  Ru  Ru8       1.0  0.12400  0.75300  0.87600  1.0000
  Ru  Ru9       1.0  0.62900  0.75300  0.87600  1.0000
  Sb  Sb1       1.0  0.75000  0.50000  0.25000  1.0000
  Sb  Sb2       1.0  0.72600  0.00000  0.27400  1.0000
  Sb  Sb3       1.0  0.27400  0.00000  0.27400  1.0000
  Sb  Sb4       1.0  0.27400  0.54900  0.27400  1.0000
  Sb  Sb5       1.0  0.72600  0.00000  0.72600  1.0000
  Sb  Sb6       1.0  0.27400  0.00000  0.72600  1.0000
  Sb  Sb7       1.0  0.72600  0.45100  0.72600  1.0000
  Sb  Sb8       1.0  0.25000  0.50000  0.75000  1.0000
  Zn  Zn1       1.0  0.00000  0.00000  0.00000  1.0000
  Zn  Zn2       1.0  0.50000  0.00000  0.00000  1.0000
  Zn  Zn3       1.0  0.00000  0.50000  0.00000  1.0000
  Zn  Zn4       1.0  0.50000  0.50000  0.00000  1.0000
  Zn  Zn5       1.0  0.00000  0.00000  0.50000  1.0000
  Zn  Zn6       1.0  0.00000  0.50000  0.50000  1.0000
  Zn  Zn7       1.0  0.50000  0.50000  0.50000  1.0000
