data_image0
_chemical_formula_structural       C8Cs4N12
_chemical_formula_sum              "C8 Cs4 N12"
_cell_length_a       7.81969
_cell_length_b       7.81969
_cell_length_c       8.23435
_cell_angle_alpha    102.255
_cell_angle_beta     102.255
_cell_angle_gamma    108.273

_space_group_name_H-M_alt    "P 1"
_space_group_IT_number       1

loop_
  _space_group_symop_operation_xyz
  'x, y, z'

loop_
  _atom_site_type_symbol
  _atom_site_label
  _atom_site_symmetry_multiplicity
  _atom_site_fract_x
  _atom_site_fract_y
  _atom_site_fract_z
  _atom_site_occupancy
  C   C1        1.0  0.17400  0.43700  0.12700  1.0000
  C   C2        1.0  0.39500  0.90700  0.15500  1.0000
  C   C3        1.0  0.09320  0.60500  0.34500  1.0000
  C   C4        1.0  0.56300  0.82600  0.37300  1.0000
  C   C5        1.0  0.43700  0.17400  0.62700  1.0000
  C   C6        1.0  0.90700  0.39500  0.65500  1.0000
  C   C7        1.0  0.60500  0.09320  0.84500  1.0000
  C   C8        1.0  0.82600  0.56300  0.87300  1.0000
  Cs  Cs1       1.0  0.98300  0.01720  0.25000  1.0000
  Cs  Cs2       1.0  0.62100  0.37900  0.25000  1.0000
  Cs  Cs3       1.0  0.37900  0.62100  0.75000  1.0000
  Cs  Cs4       1.0  0.01720  0.98300  0.75000  1.0000
  N   N1        1.0  0.23900  0.40400  0.01280  1.0000
  N   N2        1.0  0.26700  0.92400  0.06300  1.0000
  N   N3        1.0  0.54900  0.90100  0.24600  1.0000
  N   N4        1.0  0.09930  0.45100  0.25400  1.0000
  N   N5        1.0  0.07580  0.73300  0.43700  1.0000
  N   N6        1.0  0.59600  0.76100  0.48700  1.0000
  N   N7        1.0  0.40400  0.23900  0.51300  1.0000
  N   N8        1.0  0.92400  0.26700  0.56300  1.0000
  N   N9        1.0  0.90100  0.54900  0.74600  1.0000
  N   N10       1.0  0.45100  0.09930  0.75400  1.0000
  N   N11       1.0  0.73300  0.07580  0.93700  1.0000
  N   N12       1.0  0.76100  0.59600  0.98700  1.0000
