data_image0
_chemical_formula_structural       Cl9F6Rb6Sb3
_chemical_formula_sum              "Cl9 F6 Rb6 Sb3"
_cell_length_a       13.0928
_cell_length_b       7.44812
_cell_length_c       7.49138
_cell_angle_alpha    59.4149
_cell_angle_beta     84.2507
_cell_angle_gamma    78.8557

_space_group_name_H-M_alt    "P 1"
_space_group_IT_number       1

loop_
  _space_group_symop_operation_xyz
  'x, y, z'

loop_
  _atom_site_type_symbol
  _atom_site_label
  _atom_site_symmetry_multiplicity
  _atom_site_fract_x
  _atom_site_fract_y
  _atom_site_fract_z
  _atom_site_occupancy
  Cl  Cl1       1.0  0.50000  0.50000  0.00000  1.0000
  Cl  Cl2       1.0  0.11900  0.62800  0.10900  1.0000
  Cl  Cl3       1.0  0.11700  0.07230  0.21900  1.0000
  Cl  Cl4       1.0  0.49800  0.87700  0.31400  1.0000
  Cl  Cl5       1.0  0.88300  0.81500  0.33400  1.0000
  Cl  Cl6       1.0  0.11700  0.18500  0.66600  1.0000
  Cl  Cl7       1.0  0.50200  0.12300  0.68600  1.0000
  Cl  Cl8       1.0  0.88300  0.92800  0.78100  1.0000
  Cl  Cl9       1.0  0.88100  0.37200  0.89100  1.0000
  F   F1        1.0  0.69600  0.64800  0.12100  1.0000
  F   F2        1.0  0.69600  0.22200  0.33700  1.0000
  F   F3        1.0  0.30600  0.56400  0.44700  1.0000
  F   F4        1.0  0.69400  0.43600  0.55300  1.0000
  F   F5        1.0  0.30400  0.77800  0.66300  1.0000
  F   F6        1.0  0.30400  0.35200  0.87900  1.0000
  Rb  Rb1       1.0  0.31500  0.89800  0.00106  1.0000
  Rb  Rb2       1.0  0.90900  0.36300  0.33200  1.0000
  Rb  Rb3       1.0  0.30900  0.22900  0.33600  1.0000
  Rb  Rb4       1.0  0.69100  0.77100  0.66400  1.0000
  Rb  Rb5       1.0  0.09060  0.63700  0.66800  1.0000
  Rb  Rb6       1.0  0.68500  0.10200  0.99900  1.0000
  Sb  Sb1       1.0  0.00000  0.00000  0.00000  1.0000
  Sb  Sb2       1.0  0.60100  0.46600  0.33600  1.0000
  Sb  Sb3       1.0  0.39900  0.53400  0.66400  1.0000
