data_image0
_chemical_formula_structural       Mo3Na2O16Te3
_chemical_formula_sum              "Mo3 Na2 O16 Te3"
_cell_length_a       7.2456
_cell_length_b       7.55749
_cell_length_c       7.55749
_cell_angle_alpha    95.3766
_cell_angle_beta     114.675
_cell_angle_gamma    114.675

_space_group_name_H-M_alt    "P 1"
_space_group_IT_number       1

loop_
  _space_group_symop_operation_xyz
  'x, y, z'

loop_
  _atom_site_type_symbol
  _atom_site_label
  _atom_site_symmetry_multiplicity
  _atom_site_fract_x
  _atom_site_fract_y
  _atom_site_fract_z
  _atom_site_occupancy
  Mo  Mo1       1.0  0.01330  0.02310  0.50800  1.0000
  Mo  Mo2       1.0  0.50000  0.42400  0.57600  1.0000
  Mo  Mo3       1.0  0.98700  0.49200  0.97700  1.0000
  Na  Na1       1.0  0.50000  0.91300  0.08680  1.0000
  Na  Na2       1.0  1.00000  0.51300  0.48700  1.0000
  O   O1        1.0  0.08050  0.29100  0.04890  1.0000
  O   O2        1.0  0.34200  0.12200  0.06540  1.0000
  O   O3        1.0  0.76700  0.37600  0.11300  1.0000
  O   O4        1.0  0.18200  0.71300  0.19500  1.0000
  O   O5        1.0  0.81800  0.80500  0.28700  1.0000
  O   O6        1.0  0.23000  0.15300  0.39700  1.0000
  O   O7        1.0  0.63400  0.46600  0.42300  1.0000
  O   O8        1.0  0.86900  0.16300  0.43600  1.0000
  O   O9        1.0  0.36600  0.57700  0.53400  1.0000
  O   O10       1.0  0.23300  0.88700  0.62400  1.0000
  O   O11       1.0  0.66800  0.24700  0.70500  1.0000
  O   O12       1.0  0.92000  0.95100  0.70900  1.0000
  O   O13       1.0  0.33200  0.29500  0.75300  1.0000
  O   O14       1.0  0.13100  0.56400  0.83700  1.0000
  O   O15       1.0  0.77000  0.60300  0.84700  1.0000
  O   O16       1.0  0.65800  0.93500  0.87800  1.0000
  Te  Te1       1.0  0.00000  0.00000  0.00000  1.0000
  Te  Te2       1.0  0.49900  0.39600  0.05280  1.0000
  Te  Te3       1.0  0.50100  0.94700  0.60400  1.0000
