data_image0
_chemical_formula_structural       Eu2Li2O16S4
_chemical_formula_sum              "Eu2 Li2 O16 S4"
_cell_length_a       7.61139
_cell_length_b       7.60652
_cell_length_c       5.72242
_cell_angle_alpha    90
_cell_angle_beta     90
_cell_angle_gamma    90

_space_group_name_H-M_alt    "P 1"
_space_group_IT_number       1

loop_
  _space_group_symop_operation_xyz
  'x, y, z'

loop_
  _atom_site_type_symbol
  _atom_site_label
  _atom_site_symmetry_multiplicity
  _atom_site_fract_x
  _atom_site_fract_y
  _atom_site_fract_z
  _atom_site_occupancy
  Eu  Eu1       1.0  0.00000  0.00000  0.00836  1.0000
  Eu  Eu2       1.0  0.50000  0.50000  0.50800  1.0000
  Li  Li1       1.0  0.50000  0.50000  0.00816  1.0000
  Li  Li2       1.0  0.00000  0.00000  0.50800  1.0000
  O   O1        1.0  0.29300  0.10400  0.12000  1.0000
  O   O2        1.0  0.70700  0.89600  0.12000  1.0000
  O   O3        1.0  0.30600  0.41900  0.18700  1.0000
  O   O4        1.0  0.69400  0.58100  0.18700  1.0000
  O   O5        1.0  0.91900  0.19500  0.33000  1.0000
  O   O6        1.0  0.08130  0.80500  0.33000  1.0000
  O   O7        1.0  0.60400  0.20700  0.39800  1.0000
  O   O8        1.0  0.39600  0.79300  0.39800  1.0000
  O   O9        1.0  0.79300  0.39600  0.62000  1.0000
  O   O10       1.0  0.20700  0.60400  0.62000  1.0000
  O   O11       1.0  0.80600  0.08080  0.68700  1.0000
  O   O12       1.0  0.19400  0.91900  0.68700  1.0000
  O   O13       1.0  0.41900  0.30500  0.83000  1.0000
  O   O14       1.0  0.58100  0.69500  0.83000  1.0000
  O   O15       1.0  0.10400  0.29300  0.89800  1.0000
  O   O16       1.0  0.89600  0.70700  0.89800  1.0000
  S   S1        1.0  0.27800  0.27800  0.00885  1.0000
  S   S2        1.0  0.72200  0.72200  0.00885  1.0000
  S   S3        1.0  0.77800  0.22200  0.50900  1.0000
  S   S4        1.0  0.22200  0.77800  0.50900  1.0000
