data_image0
_chemical_formula_structural       Cs5Hg19
_chemical_formula_sum              "Cs5 Hg19"
_cell_length_a       10.0525
_cell_length_b       10.0525
_cell_length_c       10.0525
_cell_angle_alpha    107.142
_cell_angle_beta     114.237
_cell_angle_gamma    107.142

_space_group_name_H-M_alt    "P 1"
_space_group_IT_number       1

loop_
  _space_group_symop_operation_xyz
  'x, y, z'

loop_
  _atom_site_type_symbol
  _atom_site_label
  _atom_site_symmetry_multiplicity
  _atom_site_fract_x
  _atom_site_fract_y
  _atom_site_fract_z
  _atom_site_occupancy
  Cs  Cs1       1.0  0.32600  0.44500  0.11900  1.0000
  Cs  Cs2       1.0  0.88100  0.20700  0.32600  1.0000
  Cs  Cs3       1.0  0.50000  0.00000  0.50000  1.0000
  Cs  Cs4       1.0  0.11900  0.79300  0.67400  1.0000
  Cs  Cs5       1.0  0.67400  0.55500  0.88100  1.0000
  Hg  Hg1       1.0  0.00000  0.00000  0.00000  1.0000
  Hg  Hg2       1.0  0.13800  0.74900  0.04500  1.0000
  Hg  Hg3       1.0  0.47600  0.81800  0.06550  1.0000
  Hg  Hg4       1.0  0.39000  0.09330  0.13800  1.0000
  Hg  Hg5       1.0  0.06550  0.59000  0.24700  1.0000
  Hg  Hg6       1.0  0.75000  0.50000  0.25000  1.0000
  Hg  Hg7       1.0  0.04500  0.90700  0.29600  1.0000
  Hg  Hg8       1.0  0.75300  0.81800  0.34200  1.0000
  Hg  Hg9       1.0  0.29600  0.25100  0.39000  1.0000
  Hg  Hg10      1.0  0.65800  0.41000  0.47600  1.0000
  Hg  Hg11      1.0  0.34200  0.59000  0.52400  1.0000
  Hg  Hg12      1.0  0.70400  0.74900  0.61000  1.0000
  Hg  Hg13      1.0  0.24700  0.18200  0.65800  1.0000
  Hg  Hg14      1.0  0.95500  0.09330  0.70400  1.0000
  Hg  Hg15      1.0  0.25000  0.50000  0.75000  1.0000
  Hg  Hg16      1.0  0.93400  0.41000  0.75300  1.0000
  Hg  Hg17      1.0  0.61000  0.90700  0.86200  1.0000
  Hg  Hg18      1.0  0.52400  0.18200  0.93400  1.0000
  Hg  Hg19      1.0  0.86200  0.25100  0.95500  1.0000
