data_image0
_chemical_formula_structural       F4Fe4O12Te4
_chemical_formula_sum              "F4 Fe4 O12 Te4"
_cell_length_a       4.98849
_cell_length_b       4.99795
_cell_length_c       12.3948
_cell_angle_alpha    90
_cell_angle_beta     97.3356
_cell_angle_gamma    90

_space_group_name_H-M_alt    "P 1"
_space_group_IT_number       1

loop_
  _space_group_symop_operation_xyz
  'x, y, z'

loop_
  _atom_site_type_symbol
  _atom_site_label
  _atom_site_symmetry_multiplicity
  _atom_site_fract_x
  _atom_site_fract_y
  _atom_site_fract_z
  _atom_site_occupancy
  F   F1        1.0  0.76400  0.43000  0.01550  1.0000
  F   F2        1.0  0.73600  0.93000  0.48500  1.0000
  F   F3        1.0  0.26400  0.07040  0.51500  1.0000
  F   F4        1.0  0.23600  0.57000  0.98500  1.0000
  Fe  Fe1       1.0  0.96400  0.75900  0.07090  1.0000
  Fe  Fe2       1.0  0.53600  0.25900  0.42900  1.0000
  Fe  Fe3       1.0  0.46400  0.74100  0.57100  1.0000
  Fe  Fe4       1.0  0.03580  0.24100  0.92900  1.0000
  O   O1        1.0  0.20300  0.06970  0.06930  1.0000
  O   O2        1.0  0.71400  0.89500  0.16500  1.0000
  O   O3        1.0  0.14400  0.57800  0.20100  1.0000
  O   O4        1.0  0.35600  0.07750  0.29900  1.0000
  O   O5        1.0  0.78600  0.39500  0.33500  1.0000
  O   O6        1.0  0.29700  0.57000  0.43100  1.0000
  O   O7        1.0  0.70300  0.43000  0.56900  1.0000
  O   O8        1.0  0.21400  0.60500  0.66500  1.0000
  O   O9        1.0  0.64400  0.92200  0.70100  1.0000
  O   O10       1.0  0.85600  0.42200  0.79900  1.0000
  O   O11       1.0  0.28600  0.10500  0.83500  1.0000
  O   O12       1.0  0.79700  0.93000  0.93100  1.0000
  Te  Te1       1.0  0.49400  0.21500  0.17300  1.0000
  Te  Te2       1.0  0.00620  0.71500  0.32700  1.0000
  Te  Te3       1.0  0.99400  0.28500  0.67300  1.0000
  Te  Te4       1.0  0.50600  0.78500  0.82700  1.0000
