data_image0
_chemical_formula_structural       O16Se4Sr2U2
_chemical_formula_sum              "O16 Se4 Sr2 U2"
_cell_length_a       5.60441
_cell_length_b       6.7824
_cell_length_c       11.1806
_cell_angle_alpha    104.69
_cell_angle_beta     92.6
_cell_angle_gamma    110.065

_space_group_name_H-M_alt    "P 1"
_space_group_IT_number       1

loop_
  _space_group_symop_operation_xyz
  'x, y, z'

loop_
  _atom_site_type_symbol
  _atom_site_label
  _atom_site_symmetry_multiplicity
  _atom_site_fract_x
  _atom_site_fract_y
  _atom_site_fract_z
  _atom_site_occupancy
  O   O1        1.0  0.10500  0.87200  0.03130  1.0000
  O   O2        1.0  0.44700  0.34000  0.08900  1.0000
  O   O3        1.0  0.10500  0.58000  0.15700  1.0000
  O   O4        1.0  0.88900  0.17600  0.24000  1.0000
  O   O5        1.0  0.31800  0.01840  0.25400  1.0000
  O   O6        1.0  0.44000  0.48600  0.34600  1.0000
  O   O7        1.0  0.93300  0.62200  0.42000  1.0000
  O   O8        1.0  0.69400  0.90700  0.44200  1.0000
  O   O9        1.0  0.30600  0.09340  0.55800  1.0000
  O   O10       1.0  0.06720  0.37800  0.58000  1.0000
  O   O11       1.0  0.56000  0.51400  0.65400  1.0000
  O   O12       1.0  0.68200  0.98200  0.74600  1.0000
  O   O13       1.0  0.11100  0.82400  0.76000  1.0000
  O   O14       1.0  0.89500  0.42000  0.84300  1.0000
  O   O15       1.0  0.55300  0.66000  0.91100  1.0000
  O   O16       1.0  0.89500  0.12800  0.96900  1.0000
  Se  Se1       1.0  0.30900  0.80800  0.12600  1.0000
  Se  Se2       1.0  0.73900  0.69800  0.33700  1.0000
  Se  Se3       1.0  0.26100  0.30200  0.66300  1.0000
  Se  Se4       1.0  0.69100  0.19200  0.87400  1.0000
  Sr  Sr1       1.0  0.66000  0.25500  0.44200  1.0000
  Sr  Sr2       1.0  0.34000  0.74500  0.55800  1.0000
  U   U1        1.0  0.16800  0.25800  0.16300  1.0000
  U   U2        1.0  0.83200  0.74200  0.83700  1.0000
