data_image0
_chemical_formula_structural       O16Se2Te6
_chemical_formula_sum              "O16 Se2 Te6"
_cell_length_a       4.85176
_cell_length_b       6.8153
_cell_length_c       11.4496
_cell_angle_alpha    102.359
_cell_angle_beta     101.138
_cell_angle_gamma    69.7007

_space_group_name_H-M_alt    "P 1"
_space_group_IT_number       1

loop_
  _space_group_symop_operation_xyz
  'x, y, z'

loop_
  _atom_site_type_symbol
  _atom_site_label
  _atom_site_symmetry_multiplicity
  _atom_site_fract_x
  _atom_site_fract_y
  _atom_site_fract_z
  _atom_site_occupancy
  O   O1        1.0  0.18300  0.63700  0.05930  1.0000
  O   O2        1.0  0.07300  0.05600  0.13600  1.0000
  O   O3        1.0  0.51300  0.29300  0.18800  1.0000
  O   O4        1.0  0.60000  0.77800  0.21200  1.0000
  O   O5        1.0  0.16500  0.68600  0.31700  1.0000
  O   O6        1.0  0.01300  0.36100  0.32900  1.0000
  O   O7        1.0  0.25600  0.03170  0.43700  1.0000
  O   O8        1.0  0.63600  0.31500  0.44000  1.0000
  O   O9        1.0  0.36400  0.68500  0.56000  1.0000
  O   O10       1.0  0.74400  0.96800  0.56300  1.0000
  O   O11       1.0  0.98700  0.63900  0.67100  1.0000
  O   O12       1.0  0.83500  0.31400  0.68300  1.0000
  O   O13       1.0  0.40000  0.22200  0.78800  1.0000
  O   O14       1.0  0.48700  0.70700  0.81200  1.0000
  O   O15       1.0  0.92700  0.94400  0.86400  1.0000
  O   O16       1.0  0.81700  0.36300  0.94100  1.0000
  Se  Se1       1.0  0.35500  0.82800  0.08300  1.0000
  Se  Se2       1.0  0.64500  0.17200  0.91700  1.0000
  Te  Te1       1.0  0.10000  0.46300  0.18900  1.0000
  Te  Te2       1.0  0.85500  0.12800  0.30000  1.0000
  Te  Te3       1.0  0.51200  0.73900  0.42900  1.0000
  Te  Te4       1.0  0.48800  0.26100  0.57100  1.0000
  Te  Te5       1.0  0.14500  0.87200  0.70000  1.0000
  Te  Te6       1.0  0.90000  0.53700  0.81100  1.0000
