data_image0
_chemical_formula_structural       O16Sb4Sm4
_chemical_formula_sum              "O16 Sb4 Sm4"
_cell_length_a       7.61991
_cell_length_b       5.45023
_cell_length_c       7.59227
_cell_angle_alpha    90
_cell_angle_beta     99.528
_cell_angle_gamma    90

_space_group_name_H-M_alt    "P 1"
_space_group_IT_number       1

loop_
  _space_group_symop_operation_xyz
  'x, y, z'

loop_
  _atom_site_type_symbol
  _atom_site_label
  _atom_site_symmetry_multiplicity
  _atom_site_fract_x
  _atom_site_fract_y
  _atom_site_fract_z
  _atom_site_occupancy
  O   O1        1.0  0.66700  0.62800  0.05830  1.0000
  O   O2        1.0  0.17000  0.00151  0.12500  1.0000
  O   O3        1.0  0.11700  0.48100  0.17300  1.0000
  O   O4        1.0  0.56500  0.09360  0.19400  1.0000
  O   O5        1.0  0.43500  0.59400  0.30600  1.0000
  O   O6        1.0  0.88300  0.98100  0.32700  1.0000
  O   O7        1.0  0.83000  0.50200  0.37500  1.0000
  O   O8        1.0  0.33300  0.12800  0.44200  1.0000
  O   O9        1.0  0.66700  0.87200  0.55800  1.0000
  O   O10       1.0  0.17000  0.49800  0.62500  1.0000
  O   O11       1.0  0.11700  0.01900  0.67300  1.0000
  O   O12       1.0  0.56500  0.40600  0.69400  1.0000
  O   O13       1.0  0.43500  0.90600  0.80600  1.0000
  O   O14       1.0  0.88300  0.51900  0.82700  1.0000
  O   O15       1.0  0.83000  0.99800  0.87500  1.0000
  O   O16       1.0  0.33300  0.37200  0.94200  1.0000
  Sb  Sb1       1.0  0.33700  0.27000  0.19600  1.0000
  Sb  Sb2       1.0  0.66300  0.77000  0.30400  1.0000
  Sb  Sb3       1.0  0.33700  0.23000  0.69600  1.0000
  Sb  Sb4       1.0  0.66300  0.73000  0.80400  1.0000
  Sm  Sm1       1.0  0.85400  0.27300  0.10300  1.0000
  Sm  Sm2       1.0  0.14600  0.77300  0.39700  1.0000
  Sm  Sm3       1.0  0.85400  0.22700  0.60300  1.0000
  Sm  Sm4       1.0  0.14600  0.72700  0.89700  1.0000
