data_image0
_chemical_formula_structural       B8O14Sn2
_chemical_formula_sum              "B8 O14 Sn2"
_cell_length_a       10.824
_cell_length_b       4.43351
_cell_length_c       4.2229
_cell_angle_alpha    90
_cell_angle_beta     90
_cell_angle_gamma    90

_space_group_name_H-M_alt    "P 1"
_space_group_IT_number       1

loop_
  _space_group_symop_operation_xyz
  'x, y, z'

loop_
  _atom_site_type_symbol
  _atom_site_label
  _atom_site_symmetry_multiplicity
  _atom_site_fract_x
  _atom_site_fract_y
  _atom_site_fract_z
  _atom_site_occupancy
  B   B1        1.0  0.12200  0.32700  0.44400  1.0000
  B   B2        1.0  0.87800  0.32700  0.44400  1.0000
  B   B3        1.0  0.25100  0.82400  0.47100  1.0000
  B   B4        1.0  0.74900  0.82400  0.47100  1.0000
  B   B5        1.0  0.37800  0.67300  0.94400  1.0000
  B   B6        1.0  0.62200  0.67300  0.94400  1.0000
  B   B7        1.0  0.24900  0.17600  0.97100  1.0000
  B   B8        1.0  0.75100  0.17600  0.97100  1.0000
  O   O1        1.0  0.35800  0.35700  0.02320  1.0000
  O   O2        1.0  0.64200  0.35700  0.02320  1.0000
  O   O3        1.0  0.50000  0.77000  0.05470  1.0000
  O   O4        1.0  0.13600  0.27400  0.11000  1.0000
  O   O5        1.0  0.86400  0.27400  0.11000  1.0000
  O   O6        1.0  0.28000  0.86900  0.11600  1.0000
  O   O7        1.0  0.72000  0.86900  0.11600  1.0000
  O   O8        1.0  0.14200  0.64300  0.52300  1.0000
  O   O9        1.0  0.85800  0.64300  0.52300  1.0000
  O   O10       1.0  0.00000  0.23000  0.55500  1.0000
  O   O11       1.0  0.36400  0.72600  0.61000  1.0000
  O   O12       1.0  0.63600  0.72600  0.61000  1.0000
  O   O13       1.0  0.22000  0.13100  0.61600  1.0000
  O   O14       1.0  0.78000  0.13100  0.61600  1.0000
  Sn  Sn1       1.0  0.50000  0.17900  0.41000  1.0000
  Sn  Sn2       1.0  0.00000  0.82100  0.91000  1.0000
