data_image0
_chemical_formula_structural       F4Ga4O12Te4
_chemical_formula_sum              "F4 Ga4 O12 Te4"
_cell_length_a       4.99564
_cell_length_b       4.95575
_cell_length_c       12.2273
_cell_angle_alpha    90
_cell_angle_beta     97.8552
_cell_angle_gamma    90

_space_group_name_H-M_alt    "P 1"
_space_group_IT_number       1

loop_
  _space_group_symop_operation_xyz
  'x, y, z'

loop_
  _atom_site_type_symbol
  _atom_site_label
  _atom_site_symmetry_multiplicity
  _atom_site_fract_x
  _atom_site_fract_y
  _atom_site_fract_z
  _atom_site_occupancy
  F   F1        1.0  0.76800  0.43300  0.01480  1.0000
  F   F2        1.0  0.73200  0.93300  0.48500  1.0000
  F   F3        1.0  0.26800  0.06730  0.51500  1.0000
  F   F4        1.0  0.23200  0.56700  0.98500  1.0000
  Ga  Ga1       1.0  0.96400  0.76000  0.07050  1.0000
  Ga  Ga2       1.0  0.53600  0.26000  0.43000  1.0000
  Ga  Ga3       1.0  0.46400  0.74000  0.57000  1.0000
  Ga  Ga4       1.0  0.03580  0.24000  0.93000  1.0000
  O   O1        1.0  0.19900  0.06850  0.06810  1.0000
  O   O2        1.0  0.71000  0.88600  0.16500  1.0000
  O   O3        1.0  0.14000  0.57600  0.20000  1.0000
  O   O4        1.0  0.36000  0.07580  0.30000  1.0000
  O   O5        1.0  0.79000  0.38600  0.33500  1.0000
  O   O6        1.0  0.30100  0.56900  0.43200  1.0000
  O   O7        1.0  0.69900  0.43100  0.56800  1.0000
  O   O8        1.0  0.21000  0.61400  0.66500  1.0000
  O   O9        1.0  0.64000  0.92400  0.70000  1.0000
  O   O10       1.0  0.86000  0.42400  0.80000  1.0000
  O   O11       1.0  0.29000  0.11400  0.83500  1.0000
  O   O12       1.0  0.80100  0.93100  0.93200  1.0000
  Te  Te1       1.0  0.49700  0.21400  0.17300  1.0000
  Te  Te2       1.0  0.00280  0.71400  0.32700  1.0000
  Te  Te3       1.0  0.99700  0.28600  0.67300  1.0000
  Te  Te4       1.0  0.50300  0.78600  0.82700  1.0000
