data_image0
_chemical_formula_structural       Al4Pd20
_chemical_formula_sum              "Al4 Pd20"
_cell_length_a       10.8282
_cell_length_b       4.01715
_cell_length_c       8.1585
_cell_angle_alpha    90
_cell_angle_beta     90
_cell_angle_gamma    90

_space_group_name_H-M_alt    "P 1"
_space_group_IT_number       1

loop_
  _space_group_symop_operation_xyz
  'x, y, z'

loop_
  _atom_site_type_symbol
  _atom_site_label
  _atom_site_symmetry_multiplicity
  _atom_site_fract_x
  _atom_site_fract_y
  _atom_site_fract_z
  _atom_site_occupancy
  Al  Al1       1.0  0.92000  0.75000  0.11400  1.0000
  Al  Al2       1.0  0.42000  0.75000  0.38600  1.0000
  Al  Al3       1.0  0.58000  0.25000  0.61400  1.0000
  Al  Al4       1.0  0.07970  0.25000  0.88600  1.0000
  Pd  Pd1       1.0  0.16400  0.75000  0.04420  1.0000
  Pd  Pd2       1.0  0.43000  0.75000  0.07130  1.0000
  Pd  Pd3       1.0  0.68400  0.75000  0.11500  1.0000
  Pd  Pd4       1.0  0.29600  0.25000  0.21500  1.0000
  Pd  Pd5       1.0  0.04290  0.25000  0.21800  1.0000
  Pd  Pd6       1.0  0.54300  0.25000  0.28200  1.0000
  Pd  Pd7       1.0  0.79600  0.25000  0.28500  1.0000
  Pd  Pd8       1.0  0.18400  0.75000  0.38500  1.0000
  Pd  Pd9       1.0  0.93000  0.75000  0.42900  1.0000
  Pd  Pd10      1.0  0.66400  0.75000  0.45600  1.0000
  Pd  Pd11      1.0  0.33600  0.25000  0.54400  1.0000
  Pd  Pd12      1.0  0.06960  0.25000  0.57100  1.0000
  Pd  Pd13      1.0  0.81600  0.25000  0.61500  1.0000
  Pd  Pd14      1.0  0.20400  0.75000  0.71500  1.0000
  Pd  Pd15      1.0  0.45700  0.75000  0.71800  1.0000
  Pd  Pd16      1.0  0.95700  0.75000  0.78200  1.0000
  Pd  Pd17      1.0  0.70400  0.75000  0.78500  1.0000
  Pd  Pd18      1.0  0.31600  0.25000  0.88500  1.0000
  Pd  Pd19      1.0  0.57000  0.25000  0.92900  1.0000
  Pd  Pd20      1.0  0.83600  0.25000  0.95600  1.0000
