data_image0
_chemical_formula_structural       Nd10Ni38
_chemical_formula_sum              "Nd10 Ni38"
_cell_length_a       4.9152
_cell_length_b       4.91503
_cell_length_c       31.9687
_cell_angle_alpha    90.0004
_cell_angle_beta     89.9991
_cell_angle_gamma    120.002

_space_group_name_H-M_alt    "P 1"
_space_group_IT_number       1

loop_
  _space_group_symop_operation_xyz
  'x, y, z'

loop_
  _atom_site_type_symbol
  _atom_site_label
  _atom_site_symmetry_multiplicity
  _atom_site_fract_x
  _atom_site_fract_y
  _atom_site_fract_z
  _atom_site_occupancy
  Nd  Nd1       1.0  0.33300  0.66700  0.36800  1.0000
  Nd  Nd2       1.0  0.66700  0.33300  0.86800  1.0000
  Nd  Nd3       1.0  0.66700  0.33300  0.63200  1.0000
  Nd  Nd4       1.0  0.33300  0.66700  0.13200  1.0000
  Nd  Nd5       1.0  0.33300  0.66700  0.47800  1.0000
  Nd  Nd6       1.0  0.66700  0.33300  0.97800  1.0000
  Nd  Nd7       1.0  0.66700  0.33300  0.52200  1.0000
  Nd  Nd8       1.0  0.33300  0.66700  0.02240  1.0000
  Nd  Nd9       1.0  0.66700  0.33300  0.75000  1.0000
  Nd  Nd10      1.0  0.33300  0.66700  0.25000  1.0000
  Ni  Ni1       1.0  0.33300  0.66700  0.62600  1.0000
  Ni  Ni2       1.0  0.66700  0.33300  0.12600  1.0000
  Ni  Ni3       1.0  0.66700  0.33300  0.37400  1.0000
  Ni  Ni4       1.0  0.33300  0.66700  0.87400  1.0000
  Ni  Ni5       1.0  0.00000  0.00003  0.37300  1.0000
  Ni  Ni6       1.0  0.00002  1.00000  0.87300  1.0000
  Ni  Ni7       1.0  0.00000  0.00000  0.62700  1.0000
  Ni  Ni8       1.0  0.00003  0.00000  0.12700  1.0000
  Ni  Ni9       1.0  0.83300  0.66700  0.31100  1.0000
  Ni  Ni10      1.0  0.83300  0.16700  0.31100  1.0000
  Ni  Ni11      1.0  0.33300  0.16700  0.31100  1.0000
  Ni  Ni12      1.0  0.66600  0.83300  0.81100  1.0000
  Ni  Ni13      1.0  0.16700  0.83300  0.81100  1.0000
  Ni  Ni14      1.0  0.16700  0.33300  0.81100  1.0000
  Ni  Ni15      1.0  0.66600  0.83300  0.68900  1.0000
  Ni  Ni16      1.0  0.16700  0.83300  0.68900  1.0000
  Ni  Ni17      1.0  0.83300  0.16700  0.18900  1.0000
  Ni  Ni18      1.0  0.33300  0.16700  0.18900  1.0000
  Ni  Ni19      1.0  0.16700  0.33300  0.68900  1.0000
  Ni  Ni20      1.0  0.83300  0.66700  0.18900  1.0000
  Ni  Ni21      1.0  0.83300  0.66700  0.43400  1.0000
  Ni  Ni22      1.0  0.83300  0.16700  0.43400  1.0000
  Ni  Ni23      1.0  0.33300  0.16700  0.43400  1.0000
  Ni  Ni24      1.0  0.66700  0.83300  0.93400  1.0000
  Ni  Ni25      1.0  0.16700  0.83300  0.93400  1.0000
  Ni  Ni26      1.0  0.16700  0.33300  0.93400  1.0000
  Ni  Ni27      1.0  0.66700  0.83300  0.56600  1.0000
  Ni  Ni28      1.0  0.16700  0.83300  0.56600  1.0000
  Ni  Ni29      1.0  0.83400  0.16700  0.06550  1.0000
  Ni  Ni30      1.0  0.33300  0.16700  0.06550  1.0000
  Ni  Ni31      1.0  0.16700  0.33300  0.56600  1.0000
  Ni  Ni32      1.0  0.83300  0.66700  0.06550  1.0000
  Ni  Ni33      1.0  0.66700  0.33300  0.25000  1.0000
  Ni  Ni34      1.0  0.33300  0.66700  0.75000  1.0000
  Ni  Ni35      1.0  0.00009  0.00000  0.75000  1.0000
  Ni  Ni36      1.0  0.00000  0.00019  0.25000  1.0000
  Ni  Ni37      1.0  0.00000  0.00003  0.50000  1.0000
  Ni  Ni38      1.0  0.00000  0.00000  0.00002  1.0000
