data_image0
_chemical_formula_structural       Bi2Ca4Na6O12
_chemical_formula_sum              "Bi2 Ca4 Na6 O12"
_cell_length_a       5.83683
_cell_length_b       5.83683
_cell_length_c       10.5085
_cell_angle_alpha    100.482
_cell_angle_beta     100.482
_cell_angle_gamma    110.177

_space_group_name_H-M_alt    "P 1"
_space_group_IT_number       1

loop_
  _space_group_symop_operation_xyz
  'x, y, z'

loop_
  _atom_site_type_symbol
  _atom_site_label
  _atom_site_symmetry_multiplicity
  _atom_site_fract_x
  _atom_site_fract_y
  _atom_site_fract_z
  _atom_site_occupancy
  Bi  Bi1       1.0  0.62500  0.87500  0.25000  1.0000
  Bi  Bi2       1.0  0.37500  0.12500  0.75000  1.0000
  Ca  Ca1       1.0  0.54400  0.29400  0.08880  1.0000
  Ca  Ca2       1.0  0.20600  0.95600  0.41100  1.0000
  Ca  Ca3       1.0  0.79400  0.04440  0.58900  1.0000
  Ca  Ca4       1.0  0.45600  0.70600  0.91100  1.0000
  Na  Na1       1.0  0.03770  0.78800  0.07530  1.0000
  Na  Na2       1.0  0.12500  0.37500  0.25000  1.0000
  Na  Na3       1.0  0.71200  0.46200  0.42500  1.0000
  Na  Na4       1.0  0.28800  0.53800  0.57500  1.0000
  Na  Na5       1.0  0.87500  0.62500  0.75000  1.0000
  Na  Na6       1.0  0.96200  0.21200  0.92500  1.0000
  O   O1        1.0  0.77000  0.02840  0.09470  1.0000
  O   O2        1.0  0.32400  0.56600  0.09470  1.0000
  O   O3        1.0  0.40000  0.09970  0.25000  1.0000
  O   O4        1.0  0.85000  0.65000  0.25000  1.0000
  O   O5        1.0  0.93400  0.17600  0.40500  1.0000
  O   O6        1.0  0.47200  0.73000  0.40500  1.0000
  O   O7        1.0  0.52800  0.27000  0.59500  1.0000
  O   O8        1.0  0.06630  0.82400  0.59500  1.0000
  O   O9        1.0  0.15000  0.35000  0.75000  1.0000
  O   O10       1.0  0.60000  0.90000  0.75000  1.0000
  O   O11       1.0  0.67600  0.43400  0.90500  1.0000
  O   O12       1.0  0.23000  0.97200  0.90500  1.0000
