data_image0
_chemical_formula_structural       Ce2O16Zr6
_chemical_formula_sum              "Ce2 O16 Zr6"
_cell_length_a       7.43958
_cell_length_b       7.43965
_cell_length_c       5.39561
_cell_angle_alpha    88.8644
_cell_angle_beta     91.1355
_cell_angle_gamma    89.7487

_space_group_name_H-M_alt    "P 1"
_space_group_IT_number       1

loop_
  _space_group_symop_operation_xyz
  'x, y, z'

loop_
  _atom_site_type_symbol
  _atom_site_label
  _atom_site_symmetry_multiplicity
  _atom_site_fract_x
  _atom_site_fract_y
  _atom_site_fract_z
  _atom_site_occupancy
  Ce  Ce1       1.0  0.99700  0.99700  0.00000  1.0000
  Ce  Ce2       1.0  0.25300  0.25300  0.50000  1.0000
  O   O1        1.0  0.55100  0.75400  0.12400  1.0000
  O   O2        1.0  0.50000  0.24700  0.21100  1.0000
  O   O3        1.0  0.98100  0.28400  0.23500  1.0000
  O   O4        1.0  0.97800  0.71800  0.24300  1.0000
  O   O5        1.0  0.27200  0.53200  0.25700  1.0000
  O   O6        1.0  0.26900  0.96600  0.26500  1.0000
  O   O7        1.0  0.75000  0.00338  0.28900  1.0000
  O   O8        1.0  0.69900  0.49600  0.37600  1.0000
  O   O9        1.0  0.49600  0.69900  0.62400  1.0000
  O   O10       1.0  0.00339  0.75000  0.71100  1.0000
  O   O11       1.0  0.96600  0.26900  0.73500  1.0000
  O   O12       1.0  0.53200  0.27200  0.74300  1.0000
  O   O13       1.0  0.71800  0.97800  0.75700  1.0000
  O   O14       1.0  0.28400  0.98100  0.76500  1.0000
  O   O15       1.0  0.24700  0.50000  0.78900  1.0000
  O   O16       1.0  0.75400  0.55100  0.87600  1.0000
  Zr  Zr1       1.0  0.49500  0.49500  0.00000  1.0000
  Zr  Zr2       1.0  0.01840  0.50300  0.00190  1.0000
  Zr  Zr3       1.0  0.23200  0.74700  0.49800  1.0000
  Zr  Zr4       1.0  0.75500  0.75500  0.50000  1.0000
  Zr  Zr5       1.0  0.74700  0.23200  0.50200  1.0000
  Zr  Zr6       1.0  0.50300  0.01840  0.99800  1.0000
