data_image0
_chemical_formula_structural       Ba2F8Zn2
_chemical_formula_sum              "Ba2 F8 Zn2"
_cell_length_a       4.18683
_cell_length_b       5.746
_cell_length_c       7.41406
_cell_angle_alpha    90
_cell_angle_beta     73.599
_cell_angle_gamma    90

_space_group_name_H-M_alt    "P 1"
_space_group_IT_number       1

loop_
  _space_group_symop_operation_xyz
  'x, y, z'

loop_
  _atom_site_type_symbol
  _atom_site_label
  _atom_site_symmetry_multiplicity
  _atom_site_fract_x
  _atom_site_fract_y
  _atom_site_fract_z
  _atom_site_occupancy
  Ba  Ba1       1.0  0.85700  0.74300  0.28700  1.0000
  Ba  Ba2       1.0  0.14300  0.24300  0.71300  1.0000
  F   F1        1.0  0.47000  0.61100  0.05940  1.0000
  F   F2        1.0  0.92600  0.29400  0.14800  1.0000
  F   F3        1.0  0.32800  0.00733  0.34400  1.0000
  F   F4        1.0  0.29700  0.49100  0.40500  1.0000
  F   F5        1.0  0.70300  0.99100  0.59500  1.0000
  F   F6        1.0  0.67200  0.50700  0.65600  1.0000
  F   F7        1.0  0.07400  0.79400  0.85200  1.0000
  F   F8        1.0  0.53000  0.11100  0.94100  1.0000
  Zn  Zn1       1.0  0.41000  0.28200  0.18100  1.0000
  Zn  Zn2       1.0  0.59000  0.78200  0.81900  1.0000
