data_image0
_chemical_formula_structural       Al2O15Ti7
_chemical_formula_sum              "Al2 O15 Ti7"
_cell_length_a       2.97028
_cell_length_b       9.10952
_cell_length_c       9.44988
_cell_angle_alpha    98.2388
_cell_angle_beta     90
_cell_angle_gamma    99.3829

_space_group_name_H-M_alt    "P 1"
_space_group_IT_number       1

loop_
  _space_group_symop_operation_xyz
  'x, y, z'

loop_
  _atom_site_type_symbol
  _atom_site_label
  _atom_site_symmetry_multiplicity
  _atom_site_fract_x
  _atom_site_fract_y
  _atom_site_fract_z
  _atom_site_occupancy
  Al  Al1       1.0  0.84300  0.68600  0.27700  1.0000
  Al  Al2       1.0  0.15700  0.31400  0.72300  1.0000
  O   O1        1.0  0.57400  0.14900  0.00628  1.0000
  O   O2        1.0  0.80000  0.60100  0.09340  1.0000
  O   O3        1.0  0.18700  0.37300  0.18500  1.0000
  O   O4        1.0  0.00918  0.01840  0.21300  1.0000
  O   O5        1.0  0.39300  0.78700  0.30600  1.0000
  O   O6        1.0  0.77400  0.54700  0.39600  1.0000
  O   O7        1.0  0.62000  0.23900  0.39700  1.0000
  O   O8        1.0  0.00000  0.00000  0.50000  1.0000
  O   O9        1.0  0.38000  0.76100  0.60300  1.0000
  O   O10       1.0  0.22600  0.45300  0.60400  1.0000
  O   O11       1.0  0.60700  0.21300  0.69400  1.0000
  O   O12       1.0  0.99100  0.98200  0.78700  1.0000
  O   O13       1.0  0.81300  0.62700  0.81500  1.0000
  O   O14       1.0  0.20000  0.39900  0.90700  1.0000
  O   O15       1.0  0.42600  0.85100  0.99400  1.0000
  Ti  Ti1       1.0  0.00000  0.00000  0.00000  1.0000
  Ti  Ti2       1.0  0.67900  0.35800  0.04730  1.0000
  Ti  Ti3       1.0  0.50900  0.01900  0.35200  1.0000
  Ti  Ti4       1.0  0.19000  0.37900  0.38600  1.0000
  Ti  Ti5       1.0  0.81000  0.62100  0.61400  1.0000
  Ti  Ti6       1.0  0.49100  0.98100  0.64800  1.0000
  Ti  Ti7       1.0  0.32100  0.64200  0.95300  1.0000
