data_image0
_chemical_formula_structural       As4Eu4K4S12
_chemical_formula_sum              "As4 Eu4 K4 S12"
_cell_length_a       9.0018
_cell_length_b       8.25366
_cell_length_c       8.63
_cell_angle_alpha    90
_cell_angle_beta     105.951
_cell_angle_gamma    90

_space_group_name_H-M_alt    "P 1"
_space_group_IT_number       1

loop_
  _space_group_symop_operation_xyz
  'x, y, z'

loop_
  _atom_site_type_symbol
  _atom_site_label
  _atom_site_symmetry_multiplicity
  _atom_site_fract_x
  _atom_site_fract_y
  _atom_site_fract_z
  _atom_site_occupancy
  As  As1       1.0  0.26800  0.04750  0.14300  1.0000
  As  As2       1.0  0.73200  0.54700  0.35700  1.0000
  As  As3       1.0  0.26800  0.45300  0.64300  1.0000
  As  As4       1.0  0.73200  0.95300  0.85700  1.0000
  Eu  Eu1       1.0  0.56900  0.28600  0.03090  1.0000
  Eu  Eu2       1.0  0.43100  0.78600  0.46900  1.0000
  Eu  Eu3       1.0  0.56900  0.21400  0.53100  1.0000
  Eu  Eu4       1.0  0.43100  0.71400  0.96900  1.0000
  K   K1        1.0  0.08800  0.42200  0.22500  1.0000
  K   K2        1.0  0.91200  0.92200  0.27500  1.0000
  K   K3        1.0  0.08800  0.07770  0.72500  1.0000
  K   K4        1.0  0.91200  0.57800  0.77500  1.0000
  S   S1        1.0  0.16200  0.80100  0.07900  1.0000
  S   S2        1.0  0.75400  0.59200  0.10700  1.0000
  S   S3        1.0  0.52900  0.98400  0.21900  1.0000
  S   S4        1.0  0.47100  0.48400  0.28100  1.0000
  S   S5        1.0  0.24600  0.09160  0.39300  1.0000
  S   S6        1.0  0.83800  0.30100  0.42100  1.0000
  S   S7        1.0  0.16200  0.69900  0.57900  1.0000
  S   S8        1.0  0.75400  0.90800  0.60700  1.0000
  S   S9        1.0  0.52900  0.51600  0.71900  1.0000
  S   S10       1.0  0.47100  0.01570  0.78100  1.0000
  S   S11       1.0  0.24600  0.40800  0.89300  1.0000
  S   S12       1.0  0.83800  0.19900  0.92100  1.0000
