data_image0
_chemical_formula_structural       Na12O8Tl4
_chemical_formula_sum              "Na12 O8 Tl4"
_cell_length_a       11.4655
_cell_length_b       6.70756
_cell_length_c       5.30658
_cell_angle_alpha    90
_cell_angle_beta     90
_cell_angle_gamma    90

_space_group_name_H-M_alt    "P 1"
_space_group_IT_number       1

loop_
  _space_group_symop_operation_xyz
  'x, y, z'

loop_
  _atom_site_type_symbol
  _atom_site_label
  _atom_site_symmetry_multiplicity
  _atom_site_fract_x
  _atom_site_fract_y
  _atom_site_fract_z
  _atom_site_occupancy
  Na  Na1       1.0  0.57600  0.75000  0.24800  1.0000
  Na  Na2       1.0  0.83400  0.50200  0.24800  1.0000
  Na  Na3       1.0  0.83400  0.99800  0.24800  1.0000
  Na  Na4       1.0  0.33400  0.50200  0.25200  1.0000
  Na  Na5       1.0  0.33400  0.99800  0.25200  1.0000
  Na  Na6       1.0  0.07620  0.75000  0.25200  1.0000
  Na  Na7       1.0  0.92400  0.25000  0.74800  1.0000
  Na  Na8       1.0  0.66600  0.00236  0.74800  1.0000
  Na  Na9       1.0  0.66600  0.49800  0.74800  1.0000
  Na  Na10      1.0  0.16600  0.00236  0.75200  1.0000
  Na  Na11      1.0  0.16600  0.49800  0.75200  1.0000
  Na  Na12      1.0  0.42400  0.25000  0.75200  1.0000
  O   O1        1.0  0.00000  0.00000  0.00000  1.0000
  O   O2        1.0  0.00000  0.50000  0.00000  1.0000
  O   O3        1.0  0.74200  0.75000  0.00890  1.0000
  O   O4        1.0  0.24200  0.75000  0.49100  1.0000
  O   O5        1.0  0.50000  0.00000  0.50000  1.0000
  O   O6        1.0  0.50000  0.50000  0.50000  1.0000
  O   O7        1.0  0.75800  0.25000  0.50900  1.0000
  O   O8        1.0  0.25800  0.25000  0.99100  1.0000
  Tl  Tl1       1.0  0.09110  0.25000  0.24500  1.0000
  Tl  Tl2       1.0  0.59100  0.25000  0.25500  1.0000
  Tl  Tl3       1.0  0.40900  0.75000  0.74500  1.0000
  Tl  Tl4       1.0  0.90900  0.75000  0.75500  1.0000
