data_image0
_chemical_formula_structural       B4Na4O12Sr4
_chemical_formula_sum              "B4 Na4 O12 Sr4"
_cell_length_a       5.31545
_cell_length_b       9.21072
_cell_length_c       6.02115
_cell_angle_alpha    90
_cell_angle_beta     100.882
_cell_angle_gamma    90

_space_group_name_H-M_alt    "P 1"
_space_group_IT_number       1

loop_
  _space_group_symop_operation_xyz
  'x, y, z'

loop_
  _atom_site_type_symbol
  _atom_site_label
  _atom_site_symmetry_multiplicity
  _atom_site_fract_x
  _atom_site_fract_y
  _atom_site_fract_z
  _atom_site_occupancy
  B   B1        1.0  0.24700  0.08010  0.23700  1.0000
  B   B2        1.0  0.75300  0.58000  0.26300  1.0000
  B   B3        1.0  0.24700  0.42000  0.73700  1.0000
  B   B4        1.0  0.75300  0.92000  0.76300  1.0000
  Na  Na1       1.0  0.25900  0.75800  0.03920  1.0000
  Na  Na2       1.0  0.74100  0.25800  0.46100  1.0000
  Na  Na3       1.0  0.25900  0.74200  0.53900  1.0000
  Na  Na4       1.0  0.74100  0.24200  0.96100  1.0000
  O   O1        1.0  0.42700  0.14500  0.13200  1.0000
  O   O2        1.0  0.72500  0.43800  0.18600  1.0000
  O   O3        1.0  0.96300  0.65700  0.22000  1.0000
  O   O4        1.0  0.03650  0.15700  0.28000  1.0000
  O   O5        1.0  0.27500  0.93800  0.31400  1.0000
  O   O6        1.0  0.57300  0.64500  0.36800  1.0000
  O   O7        1.0  0.42700  0.35500  0.63200  1.0000
  O   O8        1.0  0.72500  0.06170  0.68600  1.0000
  O   O9        1.0  0.96300  0.84300  0.72000  1.0000
  O   O10       1.0  0.03650  0.34300  0.78000  1.0000
  O   O11       1.0  0.27500  0.56200  0.81400  1.0000
  O   O12       1.0  0.57300  0.85500  0.86800  1.0000
  Sr  Sr1       1.0  0.24400  0.41400  0.21500  1.0000
  Sr  Sr2       1.0  0.75600  0.91400  0.28500  1.0000
  Sr  Sr3       1.0  0.24400  0.08610  0.71500  1.0000
  Sr  Sr4       1.0  0.75600  0.58600  0.78500  1.0000
