data_image0
_chemical_formula_structural       As4Eu4Li4S12
_chemical_formula_sum              "As4 Eu4 Li4 S12"
_cell_length_a       5.67257
_cell_length_b       13.0419
_cell_length_c       7.18803
_cell_angle_alpha    90
_cell_angle_beta     104.926
_cell_angle_gamma    90

_space_group_name_H-M_alt    "P 1"
_space_group_IT_number       1

loop_
  _space_group_symop_operation_xyz
  'x, y, z'

loop_
  _atom_site_type_symbol
  _atom_site_label
  _atom_site_symmetry_multiplicity
  _atom_site_fract_x
  _atom_site_fract_y
  _atom_site_fract_z
  _atom_site_occupancy
  As  As1       1.0  0.12400  0.90200  0.16800  1.0000
  As  As2       1.0  0.87600  0.40200  0.33200  1.0000
  As  As3       1.0  0.12400  0.59800  0.66800  1.0000
  As  As4       1.0  0.87600  0.09760  0.83200  1.0000
  Eu  Eu1       1.0  0.32900  0.57900  0.22600  1.0000
  Eu  Eu2       1.0  0.67100  0.07900  0.27400  1.0000
  Eu  Eu3       1.0  0.32900  0.92100  0.72600  1.0000
  Eu  Eu4       1.0  0.67100  0.42100  0.77400  1.0000
  Li  Li1       1.0  0.28000  0.29100  0.07000  1.0000
  Li  Li2       1.0  0.72000  0.79100  0.43000  1.0000
  Li  Li3       1.0  0.28000  0.20900  0.57000  1.0000
  Li  Li4       1.0  0.72000  0.70900  0.93000  1.0000
  S   S1        1.0  0.74300  0.28200  0.10200  1.0000
  S   S2        1.0  0.71200  0.87300  0.11500  1.0000
  S   S3        1.0  0.80400  0.54700  0.14300  1.0000
  S   S4        1.0  0.19600  0.04700  0.35700  1.0000
  S   S5        1.0  0.28800  0.37300  0.38500  1.0000
  S   S6        1.0  0.25700  0.78200  0.39800  1.0000
  S   S7        1.0  0.74300  0.21800  0.60200  1.0000
  S   S8        1.0  0.71200  0.62700  0.61500  1.0000
  S   S9        1.0  0.80400  0.95300  0.64300  1.0000
  S   S10       1.0  0.19600  0.45300  0.85700  1.0000
  S   S11       1.0  0.28800  0.12700  0.88500  1.0000
  S   S12       1.0  0.25700  0.71800  0.89800  1.0000
