data_image0
_chemical_formula_structural       F16Li2Na2Y4
_chemical_formula_sum              "F16 Li2 Na2 Y4"
_cell_length_a       6.57151
_cell_length_b       6.91159
_cell_length_c       6.57725
_cell_angle_alpha    90
_cell_angle_beta     103.295
_cell_angle_gamma    90

_space_group_name_H-M_alt    "P 1"
_space_group_IT_number       1

loop_
  _space_group_symop_operation_xyz
  'x, y, z'

loop_
  _atom_site_type_symbol
  _atom_site_label
  _atom_site_symmetry_multiplicity
  _atom_site_fract_x
  _atom_site_fract_y
  _atom_site_fract_z
  _atom_site_occupancy
  F   F1        1.0  0.32900  0.55200  0.05780  1.0000
  F   F2        1.0  0.32900  0.94800  0.05780  1.0000
  F   F3        1.0  0.08630  0.25000  0.08630  1.0000
  F   F4        1.0  0.68200  0.75000  0.25400  1.0000
  F   F5        1.0  0.74600  0.25000  0.31800  1.0000
  F   F6        1.0  0.05790  0.55200  0.32900  1.0000
  F   F7        1.0  0.05790  0.94800  0.32900  1.0000
  F   F8        1.0  0.39800  0.25000  0.39800  1.0000
  F   F9        1.0  0.60200  0.75000  0.60200  1.0000
  F   F10       1.0  0.94200  0.05250  0.67100  1.0000
  F   F11       1.0  0.94200  0.44800  0.67100  1.0000
  F   F12       1.0  0.25400  0.75000  0.68200  1.0000
  F   F13       1.0  0.31800  0.25000  0.74600  1.0000
  F   F14       1.0  0.91400  0.75000  0.91400  1.0000
  F   F15       1.0  0.67100  0.05250  0.94200  1.0000
  F   F16       1.0  0.67100  0.44800  0.94200  1.0000
  Li  Li1       1.0  0.00000  0.00000  0.00000  1.0000
  Li  Li2       1.0  0.00000  0.50000  0.00000  1.0000
  Na  Na1       1.0  0.33600  0.75000  0.33500  1.0000
  Na  Na2       1.0  0.66400  0.25000  0.66500  1.0000
  Y   Y1        1.0  0.45100  0.25000  0.07960  1.0000
  Y   Y2        1.0  0.07970  0.25000  0.45100  1.0000
  Y   Y3        1.0  0.92000  0.75000  0.54900  1.0000
  Y   Y4        1.0  0.54900  0.75000  0.92000  1.0000
