data_image0
_chemical_formula_structural       K4P4S14Sm2
_chemical_formula_sum              "K4 P4 S14 Sm2"
_cell_length_a       6.75295
_cell_length_b       8.78687
_cell_length_c       11.9028
_cell_angle_alpha    95.106
_cell_angle_beta     106.479
_cell_angle_gamma    90

_space_group_name_H-M_alt    "P 1"
_space_group_IT_number       1

loop_
  _space_group_symop_operation_xyz
  'x, y, z'

loop_
  _atom_site_type_symbol
  _atom_site_label
  _atom_site_symmetry_multiplicity
  _atom_site_fract_x
  _atom_site_fract_y
  _atom_site_fract_z
  _atom_site_occupancy
  K   K1        1.0  0.42700  0.70500  0.10600  1.0000
  K   K2        1.0  0.56000  0.12500  0.36900  1.0000
  K   K3        1.0  0.19100  0.87500  0.63100  1.0000
  K   K4        1.0  0.32100  0.29500  0.89400  1.0000
  P   P1        1.0  0.89300  0.38400  0.03260  1.0000
  P   P2        1.0  0.56900  0.71200  0.45000  1.0000
  P   P3        1.0  0.11900  0.28800  0.55000  1.0000
  P   P4        1.0  0.86000  0.61600  0.96700  1.0000
  S   S1        1.0  0.93400  0.76300  0.11400  1.0000
  S   S2        1.0  0.19200  0.38000  0.13600  1.0000
  S   S3        1.0  0.70200  0.38400  0.13800  1.0000
  S   S4        1.0  0.76700  0.77200  0.35800  1.0000
  S   S5        1.0  0.05640  0.22500  0.37400  1.0000
  S   S6        1.0  0.29500  0.81500  0.37900  1.0000
  S   S7        1.0  0.49700  0.48000  0.43000  1.0000
  S   S8        1.0  0.06660  0.52000  0.57000  1.0000
  S   S9        1.0  0.91600  0.18500  0.62100  1.0000
  S   S10       1.0  0.68300  0.77500  0.62600  1.0000
  S   S11       1.0  0.40900  0.22800  0.64200  1.0000
  S   S12       1.0  0.56400  0.61600  0.86200  1.0000
  S   S13       1.0  0.05580  0.62000  0.86400  1.0000
  S   S14       1.0  0.82100  0.23700  0.88600  1.0000
  Sm  Sm1       1.0  0.04800  0.53600  0.32000  1.0000
  Sm  Sm2       1.0  0.72800  0.46400  0.68000  1.0000
