data_image0
_chemical_formula_structural       Ba4Pt8S12
_chemical_formula_sum              "Ba4 Pt8 S12"
_cell_length_a       6.8684
_cell_length_b       6.8684
_cell_length_c       12.4135
_cell_angle_alpha    90
_cell_angle_beta     90
_cell_angle_gamma    90

_space_group_name_H-M_alt    "P 1"
_space_group_IT_number       1

loop_
  _space_group_symop_operation_xyz
  'x, y, z'

loop_
  _atom_site_type_symbol
  _atom_site_label
  _atom_site_symmetry_multiplicity
  _atom_site_fract_x
  _atom_site_fract_y
  _atom_site_fract_z
  _atom_site_occupancy
  Ba  Ba1       1.0  0.67800  0.67800  0.00000  1.0000
  Ba  Ba2       1.0  0.82200  0.17800  0.25000  1.0000
  Ba  Ba3       1.0  0.32200  0.32200  0.50000  1.0000
  Ba  Ba4       1.0  0.17800  0.82200  0.75000  1.0000
  Pt  Pt1       1.0  0.25000  0.49300  0.12500  1.0000
  Pt  Pt2       1.0  0.25000  0.99300  0.12500  1.0000
  Pt  Pt3       1.0  0.00727  0.75000  0.37500  1.0000
  Pt  Pt4       1.0  0.50700  0.75000  0.37500  1.0000
  Pt  Pt5       1.0  0.75000  0.50700  0.62500  1.0000
  Pt  Pt6       1.0  0.75000  0.00727  0.62500  1.0000
  Pt  Pt7       1.0  0.99300  0.25000  0.87500  1.0000
  Pt  Pt8       1.0  0.49300  0.25000  0.87500  1.0000
  S   S1        1.0  0.24300  0.24300  0.00000  1.0000
  S   S2        1.0  0.16400  0.74300  0.00441  1.0000
  S   S3        1.0  0.33600  0.24300  0.24600  1.0000
  S   S4        1.0  0.25700  0.74300  0.25000  1.0000
  S   S5        1.0  0.75700  0.66400  0.25400  1.0000
  S   S6        1.0  0.25700  0.83600  0.49600  1.0000
  S   S7        1.0  0.75700  0.75700  0.50000  1.0000
  S   S8        1.0  0.83600  0.25700  0.50400  1.0000
  S   S9        1.0  0.66400  0.75700  0.74600  1.0000
  S   S10       1.0  0.74300  0.25700  0.75000  1.0000
  S   S11       1.0  0.24300  0.33600  0.75400  1.0000
  S   S12       1.0  0.74300  0.16400  0.99600  1.0000
