data_image0
_chemical_formula_structural       Li2O7SrTa2
_chemical_formula_sum              "Li2 O7 Sr1 Ta2"
_cell_length_a       3.96033
_cell_length_b       3.96033
_cell_length_c       9.40554
_cell_angle_alpha    102.154
_cell_angle_beta     102.154
_cell_angle_gamma    90

_space_group_name_H-M_alt    "P 1"
_space_group_IT_number       1

loop_
  _space_group_symop_operation_xyz
  'x, y, z'

loop_
  _atom_site_type_symbol
  _atom_site_label
  _atom_site_symmetry_multiplicity
  _atom_site_fract_x
  _atom_site_fract_y
  _atom_site_fract_z
  _atom_site_occupancy
  Li  Li1       1.0  0.75000  0.25000  0.50000  1.0000
  Li  Li2       1.0  0.25000  0.75000  0.50000  1.0000
  O   O1        1.0  0.50000  0.50000  0.00000  1.0000
  O   O2        1.0  0.60600  0.10600  0.21300  1.0000
  O   O3        1.0  0.10600  0.60600  0.21300  1.0000
  O   O4        1.0  0.72200  0.72200  0.44300  1.0000
  O   O5        1.0  0.27800  0.27800  0.55700  1.0000
  O   O6        1.0  0.89400  0.39400  0.78800  1.0000
  O   O7        1.0  0.39400  0.89400  0.78800  1.0000
  Sr  Sr1       1.0  0.00000  0.00000  0.00000  1.0000
  Ta  Ta1       1.0  0.61700  0.61700  0.23300  1.0000
  Ta  Ta2       1.0  0.38300  0.38300  0.76700  1.0000
