data_image0
_chemical_formula_structural       Ni19Pr5
_chemical_formula_sum              "Ni19 Pr5"
_cell_length_a       5.00691
_cell_length_b       5.00691
_cell_length_c       16.4342
_cell_angle_alpha    98.7621
_cell_angle_beta     81.2379
_cell_angle_gamma    120

_space_group_name_H-M_alt    "P 1"
_space_group_IT_number       1

loop_
  _space_group_symop_operation_xyz
  'x, y, z'

loop_
  _atom_site_type_symbol
  _atom_site_label
  _atom_site_symmetry_multiplicity
  _atom_site_fract_x
  _atom_site_fract_y
  _atom_site_fract_z
  _atom_site_occupancy
  Ni  Ni1       1.0  0.66700  0.33300  0.00000  1.0000
  Ni  Ni2       1.0  0.33300  0.66700  0.00000  1.0000
  Ni  Ni3       1.0  0.45900  0.04040  0.12200  1.0000
  Ni  Ni4       1.0  0.45900  0.54100  0.12200  1.0000
  Ni  Ni5       1.0  0.96000  0.54100  0.12200  1.0000
  Ni  Ni6       1.0  0.58500  0.41500  0.24600  1.0000
  Ni  Ni7       1.0  0.25100  0.74900  0.24700  1.0000
  Ni  Ni8       1.0  0.37700  0.12300  0.36900  1.0000
  Ni  Ni9       1.0  0.37700  0.62300  0.36900  1.0000
  Ni  Ni10      1.0  0.87700  0.62300  0.36900  1.0000
  Ni  Ni11      1.0  0.50000  0.50000  0.50000  1.0000
  Ni  Ni12      1.0  0.12300  0.37700  0.63100  1.0000
  Ni  Ni13      1.0  0.62300  0.37700  0.63100  1.0000
  Ni  Ni14      1.0  0.62300  0.87700  0.63100  1.0000
  Ni  Ni15      1.0  0.74900  0.25100  0.75300  1.0000
  Ni  Ni16      1.0  0.41500  0.58500  0.75400  1.0000
  Ni  Ni17      1.0  0.04040  0.45900  0.87800  1.0000
  Ni  Ni18      1.0  0.54100  0.45900  0.87800  1.0000
  Ni  Ni19      1.0  0.54100  0.96000  0.87800  1.0000
  Pr  Pr1       1.0  0.00000  0.00000  0.00000  1.0000
  Pr  Pr2       1.0  0.92200  0.07830  0.23500  1.0000
  Pr  Pr3       1.0  0.84800  0.15200  0.45500  1.0000
  Pr  Pr4       1.0  0.15200  0.84800  0.54500  1.0000
  Pr  Pr5       1.0  0.07830  0.92200  0.76500  1.0000
