data_image0
_chemical_formula_structural       In2K4P4S14
_chemical_formula_sum              "In2 K4 P4 S14"
_cell_length_a       8.72432
_cell_length_b       8.96437
_cell_length_c       8.96437
_cell_angle_alpha    73.4274
_cell_angle_beta     105.157
_cell_angle_gamma    105.157

_space_group_name_H-M_alt    "P 1"
_space_group_IT_number       1

loop_
  _space_group_symop_operation_xyz
  'x, y, z'

loop_
  _atom_site_type_symbol
  _atom_site_label
  _atom_site_symmetry_multiplicity
  _atom_site_fract_x
  _atom_site_fract_y
  _atom_site_fract_z
  _atom_site_occupancy
  In  In1       1.0  0.50000  0.68900  0.31100  1.0000
  In  In2       1.0  0.50000  0.31100  0.68900  1.0000
  K   K1        1.0  0.84100  0.61200  0.04820  1.0000
  K   K2        1.0  0.15900  0.95200  0.38800  1.0000
  K   K3        1.0  0.84100  0.04820  0.61200  1.0000
  K   K4        1.0  0.15900  0.38800  0.95200  1.0000
  P   P1        1.0  0.44100  0.06130  0.06130  1.0000
  P   P2        1.0  0.18300  0.38900  0.38900  1.0000
  P   P3        1.0  0.81700  0.61100  0.61100  1.0000
  P   P4        1.0  0.55900  0.93900  0.93900  1.0000
  S   S1        1.0  0.20000  0.00634  0.00634  1.0000
  S   S2        1.0  0.46500  0.70000  0.01160  1.0000
  S   S3        1.0  0.98700  0.26800  0.26800  1.0000
  S   S4        1.0  0.53500  0.98800  0.30000  1.0000
  S   S5        1.0  0.19300  0.63100  0.30800  1.0000
  S   S6        1.0  0.40500  0.35900  0.35900  1.0000
  S   S7        1.0  0.80700  0.69200  0.36900  1.0000
  S   S8        1.0  0.19300  0.30800  0.63100  1.0000
  S   S9        1.0  0.59500  0.64100  0.64100  1.0000
  S   S10       1.0  0.80700  0.36900  0.69200  1.0000
  S   S11       1.0  0.46500  0.01160  0.70000  1.0000
  S   S12       1.0  0.01310  0.73200  0.73200  1.0000
  S   S13       1.0  0.53500  0.30000  0.98800  1.0000
  S   S14       1.0  0.80000  0.99400  0.99400  1.0000
