data_image0
_chemical_formula_structural       Ho2K2O16W4
_chemical_formula_sum              "Ho2 K2 O16 W4"
_cell_length_a       7.3936
_cell_length_b       7.3936
_cell_length_c       7.51265
_cell_angle_alpha    117.85
_cell_angle_beta     62.1497
_cell_angle_gamma    91.5928

_space_group_name_H-M_alt    "P 1"
_space_group_IT_number       1

loop_
  _space_group_symop_operation_xyz
  'x, y, z'

loop_
  _atom_site_type_symbol
  _atom_site_label
  _atom_site_symmetry_multiplicity
  _atom_site_fract_x
  _atom_site_fract_y
  _atom_site_fract_z
  _atom_site_occupancy
  Ho  Ho1       1.0  0.77200  0.77200  0.25000  1.0000
  Ho  Ho2       1.0  0.22800  0.22800  0.75000  1.0000
  K   K1        1.0  0.20100  0.20100  0.25000  1.0000
  K   K2        1.0  0.79900  0.79900  0.75000  1.0000
  O   O1        1.0  0.63300  0.58600  0.02920  1.0000
  O   O2        1.0  0.61500  0.23000  0.05270  1.0000
  O   O3        1.0  0.93600  0.38500  0.12400  1.0000
  O   O4        1.0  0.79700  0.04040  0.18500  1.0000
  O   O5        1.0  0.04040  0.79700  0.31500  1.0000
  O   O6        1.0  0.38500  0.93600  0.37600  1.0000
  O   O7        1.0  0.23000  0.61500  0.44700  1.0000
  O   O8        1.0  0.58600  0.63300  0.47100  1.0000
  O   O9        1.0  0.41400  0.36700  0.52900  1.0000
  O   O10       1.0  0.77000  0.38500  0.55300  1.0000
  O   O11       1.0  0.61500  0.06420  0.62400  1.0000
  O   O12       1.0  0.96000  0.20300  0.68500  1.0000
  O   O13       1.0  0.20300  0.96000  0.81500  1.0000
  O   O14       1.0  0.06420  0.61500  0.87600  1.0000
  O   O15       1.0  0.38500  0.77000  0.94700  1.0000
  O   O16       1.0  0.36700  0.41400  0.97100  1.0000
  W   W1        1.0  0.30300  0.69800  0.23600  1.0000
  W   W2        1.0  0.69800  0.30300  0.26400  1.0000
  W   W3        1.0  0.30200  0.69700  0.73600  1.0000
  W   W4        1.0  0.69700  0.30200  0.76400  1.0000
