data_image0
_chemical_formula_structural       CuLi4O6W
_chemical_formula_sum              "Cu1 Li4 O6 W1"
_cell_length_a       5.09187
_cell_length_b       5.09187
_cell_length_c       5.0387
_cell_angle_alpha    99.0031
_cell_angle_beta     99.0031
_cell_angle_gamma    120.821

_space_group_name_H-M_alt    "P 1"
_space_group_IT_number       1

loop_
  _space_group_symop_operation_xyz
  'x, y, z'

loop_
  _atom_site_type_symbol
  _atom_site_label
  _atom_site_symmetry_multiplicity
  _atom_site_fract_x
  _atom_site_fract_y
  _atom_site_fract_z
  _atom_site_occupancy
  Cu  Cu1       1.0  0.83000  0.17000  0.00000  1.0000
  Li  Li1       1.0  0.49700  0.50300  0.00000  1.0000
  Li  Li2       1.0  0.99100  0.00911  0.50000  1.0000
  Li  Li3       1.0  0.66800  0.33200  0.50000  1.0000
  Li  Li4       1.0  0.34600  0.65400  0.50000  1.0000
  O   O1        1.0  0.56800  0.92200  0.22600  1.0000
  O   O2        1.0  0.25400  0.22700  0.24200  1.0000
  O   O3        1.0  0.94000  0.60600  0.24200  1.0000
  O   O4        1.0  0.39400  0.05990  0.75800  1.0000
  O   O5        1.0  0.77300  0.74600  0.75800  1.0000
  O   O6        1.0  0.07840  0.43200  0.77400  1.0000
  W   W1        1.0  0.16000  0.84000  0.00000  1.0000
