data_image0
_chemical_formula_structural       Fe2LiO6
_chemical_formula_sum              "Fe2 Li1 O6"
_cell_length_a       4.95419
_cell_length_b       4.95419
_cell_length_c       4.51047
_cell_angle_alpha    100.908
_cell_angle_beta     100.908
_cell_angle_gamma    120.313

_space_group_name_H-M_alt    "P 1"
_space_group_IT_number       1

loop_
  _space_group_symop_operation_xyz
  'x, y, z'

loop_
  _atom_site_type_symbol
  _atom_site_label
  _atom_site_symmetry_multiplicity
  _atom_site_fract_x
  _atom_site_fract_y
  _atom_site_fract_z
  _atom_site_occupancy
  Fe  Fe1       1.0  0.83500  0.16500  0.00000  1.0000
  Fe  Fe2       1.0  0.16500  0.83500  0.00000  1.0000
  Li  Li1       1.0  0.50000  0.50000  0.00000  1.0000
  O   O1        1.0  0.94100  0.58000  0.23300  1.0000
  O   O2        1.0  0.58000  0.94100  0.23300  1.0000
  O   O3        1.0  0.22000  0.22000  0.23700  1.0000
  O   O4        1.0  0.78000  0.78000  0.76300  1.0000
  O   O5        1.0  0.42000  0.05910  0.76700  1.0000
  O   O6        1.0  0.05910  0.42000  0.76700  1.0000
