data_image0
_chemical_formula_structural       Li3O6V2
_chemical_formula_sum              "Li3 O6 V2"
_cell_length_a       4.94018
_cell_length_b       4.94018
_cell_length_c       4.99113
_cell_angle_alpha    99.1172
_cell_angle_beta     99.1172
_cell_angle_gamma    120.562

_space_group_name_H-M_alt    "P 1"
_space_group_IT_number       1

loop_
  _space_group_symop_operation_xyz
  'x, y, z'

loop_
  _atom_site_type_symbol
  _atom_site_label
  _atom_site_symmetry_multiplicity
  _atom_site_fract_x
  _atom_site_fract_y
  _atom_site_fract_z
  _atom_site_occupancy
  Li  Li1       1.0  0.65500  0.34500  0.50000  1.0000
  Li  Li2       1.0  0.34500  0.65500  0.50000  1.0000
  Li  Li3       1.0  0.00000  0.00000  0.50000  1.0000
  O   O1        1.0  0.94700  0.58400  0.22700  1.0000
  O   O2        1.0  0.58400  0.94700  0.22700  1.0000
  O   O3        1.0  0.22200  0.22200  0.24300  1.0000
  O   O4        1.0  0.77800  0.77800  0.75700  1.0000
  O   O5        1.0  0.41600  0.05330  0.77300  1.0000
  O   O6        1.0  0.05330  0.41600  0.77300  1.0000
  V   V1        1.0  0.84100  0.15900  0.00000  1.0000
  V   V2        1.0  0.15900  0.84100  0.00000  1.0000
