data_image0
_chemical_formula_structural       Li3O6Pb2
_chemical_formula_sum              "Li3 O6 Pb2"
_cell_length_a       5.60492
_cell_length_b       5.60492
_cell_length_c       5.0503
_cell_angle_alpha    99.0684
_cell_angle_beta     99.0684
_cell_angle_gamma    121.505

_space_group_name_H-M_alt    "P 1"
_space_group_IT_number       1

loop_
  _space_group_symop_operation_xyz
  'x, y, z'

loop_
  _atom_site_type_symbol
  _atom_site_label
  _atom_site_symmetry_multiplicity
  _atom_site_fract_x
  _atom_site_fract_y
  _atom_site_fract_z
  _atom_site_occupancy
  Li  Li1       1.0  0.50000  0.50000  0.00000  1.0000
  Li  Li2       1.0  0.64900  0.35100  0.50000  1.0000
  Li  Li3       1.0  0.35100  0.64900  0.50000  1.0000
  O   O1        1.0  0.26200  0.26200  0.22500  1.0000
  O   O2        1.0  0.92000  0.56000  0.25500  1.0000
  O   O3        1.0  0.56000  0.92000  0.25500  1.0000
  O   O4        1.0  0.44000  0.07980  0.74500  1.0000
  O   O5        1.0  0.07980  0.44000  0.74500  1.0000
  O   O6        1.0  0.73800  0.73800  0.77500  1.0000
  Pb  Pb1       1.0  0.83900  0.16100  0.00000  1.0000
  Pb  Pb2       1.0  0.16100  0.83900  0.00000  1.0000
