data_image0
_chemical_formula_structural       Li3Ni2O6
_chemical_formula_sum              "Li3 Ni2 O6"
_cell_length_a       4.77004
_cell_length_b       4.77004
_cell_length_c       4.89658
_cell_angle_alpha    99.4669
_cell_angle_beta     99.4669
_cell_angle_gamma    119.976

_space_group_name_H-M_alt    "P 1"
_space_group_IT_number       1

loop_
  _space_group_symop_operation_xyz
  'x, y, z'

loop_
  _atom_site_type_symbol
  _atom_site_label
  _atom_site_symmetry_multiplicity
  _atom_site_fract_x
  _atom_site_fract_y
  _atom_site_fract_z
  _atom_site_occupancy
  Li  Li1       1.0  0.00000  0.00000  0.50000  1.0000
  Li  Li2       1.0  0.65100  0.34900  0.50000  1.0000
  Li  Li3       1.0  0.34900  0.65100  0.50000  1.0000
  Ni  Ni1       1.0  0.83300  0.16700  0.00000  1.0000
  Ni  Ni2       1.0  0.16700  0.83300  0.00000  1.0000
  O   O1        1.0  0.94000  0.57600  0.22700  1.0000
  O   O2        1.0  0.57600  0.94000  0.22700  1.0000
  O   O3        1.0  0.21300  0.21300  0.22800  1.0000
  O   O4        1.0  0.78700  0.78700  0.77200  1.0000
  O   O5        1.0  0.42400  0.05970  0.77300  1.0000
  O   O6        1.0  0.05970  0.42400  0.77300  1.0000
