data_image0
_chemical_formula_structural       Li3O6Tc2
_chemical_formula_sum              "Li3 O6 Tc2"
_cell_length_a       5.1152
_cell_length_b       5.1152
_cell_length_c       5.10624
_cell_angle_alpha    100.101
_cell_angle_beta     100.101
_cell_angle_gamma    119.417

_space_group_name_H-M_alt    "P 1"
_space_group_IT_number       1

loop_
  _space_group_symop_operation_xyz
  'x, y, z'

loop_
  _atom_site_type_symbol
  _atom_site_label
  _atom_site_symmetry_multiplicity
  _atom_site_fract_x
  _atom_site_fract_y
  _atom_site_fract_z
  _atom_site_occupancy
  Li  Li1       1.0  0.50300  0.49700  0.00000  1.0000
  Li  Li2       1.0  0.00083  0.99900  0.50000  1.0000
  Li  Li3       1.0  0.35100  0.64900  0.50000  1.0000
  O   O1        1.0  0.57800  0.91800  0.22600  1.0000
  O   O2        1.0  0.22000  0.22900  0.23200  1.0000
  O   O3        1.0  0.93100  0.59000  0.23400  1.0000
  O   O4        1.0  0.41000  0.06880  0.76600  1.0000
  O   O5        1.0  0.77100  0.78000  0.76800  1.0000
  O   O6        1.0  0.08230  0.42200  0.77400  1.0000
  Tc  Tc1       1.0  0.82700  0.17300  0.00000  1.0000
  Tc  Tc2       1.0  0.16700  0.83300  0.00000  1.0000
