data_image0
_chemical_formula_structural       Li3O6Os2
_chemical_formula_sum              "Li3 O6 Os2"
_cell_length_a       4.91879
_cell_length_b       4.91879
_cell_length_c       5.1675
_cell_angle_alpha    99.9006
_cell_angle_beta     99.9006
_cell_angle_gamma    116.892

_space_group_name_H-M_alt    "P 1"
_space_group_IT_number       1

loop_
  _space_group_symop_operation_xyz
  'x, y, z'

loop_
  _atom_site_type_symbol
  _atom_site_label
  _atom_site_symmetry_multiplicity
  _atom_site_fract_x
  _atom_site_fract_y
  _atom_site_fract_z
  _atom_site_occupancy
  Li  Li1       1.0  0.00000  0.00000  0.50000  1.0000
  Li  Li2       1.0  0.66000  0.34000  0.50000  1.0000
  Li  Li3       1.0  0.34000  0.66000  0.50000  1.0000
  O   O1        1.0  0.93600  0.56900  0.22400  1.0000
  O   O2        1.0  0.56900  0.93600  0.22400  1.0000
  O   O3        1.0  0.24600  0.24600  0.27800  1.0000
  O   O4        1.0  0.75400  0.75400  0.72200  1.0000
  O   O5        1.0  0.43100  0.06420  0.77600  1.0000
  O   O6        1.0  0.06420  0.43100  0.77600  1.0000
  Os  Os1       1.0  0.85400  0.14600  0.00000  1.0000
  Os  Os2       1.0  0.14600  0.85400  0.00000  1.0000
