data_image0
_chemical_formula_structural       Li3O6Ti2
_chemical_formula_sum              "Li3 O6 Ti2"
_cell_length_a       5.09575
_cell_length_b       5.09575
_cell_length_c       4.96757
_cell_angle_alpha    98.8931
_cell_angle_beta     98.8931
_cell_angle_gamma    121.106

_space_group_name_H-M_alt    "P 1"
_space_group_IT_number       1

loop_
  _space_group_symop_operation_xyz
  'x, y, z'

loop_
  _atom_site_type_symbol
  _atom_site_label
  _atom_site_symmetry_multiplicity
  _atom_site_fract_x
  _atom_site_fract_y
  _atom_site_fract_z
  _atom_site_occupancy
  Li  Li1       1.0  0.50000  0.50000  0.00000  1.0000
  Li  Li2       1.0  0.65800  0.34200  0.50000  1.0000
  Li  Li3       1.0  0.34200  0.65800  0.50000  1.0000
  O   O1        1.0  0.23400  0.23400  0.22300  1.0000
  O   O2        1.0  0.92800  0.56400  0.23000  1.0000
  O   O3        1.0  0.56400  0.92800  0.23000  1.0000
  O   O4        1.0  0.43600  0.07150  0.77000  1.0000
  O   O5        1.0  0.07150  0.43600  0.77000  1.0000
  O   O6        1.0  0.76600  0.76600  0.77700  1.0000
  Ti  Ti1       1.0  0.83800  0.16200  0.00000  1.0000
  Ti  Ti2       1.0  0.16200  0.83800  0.00000  1.0000
