data_image0
_chemical_formula_structural       Li4MnO6W
_chemical_formula_sum              "Li4 Mn1 O6 W1"
_cell_length_a       5.14123
_cell_length_b       5.14123
_cell_length_c       5.08255
_cell_angle_alpha    99.9428
_cell_angle_beta     99.9428
_cell_angle_gamma    119.804

_space_group_name_H-M_alt    "P 1"
_space_group_IT_number       1

loop_
  _space_group_symop_operation_xyz
  'x, y, z'

loop_
  _atom_site_type_symbol
  _atom_site_label
  _atom_site_symmetry_multiplicity
  _atom_site_fract_x
  _atom_site_fract_y
  _atom_site_fract_z
  _atom_site_occupancy
  Li  Li1       1.0  0.50000  0.50000  0.00000  1.0000
  Li  Li2       1.0  0.99700  0.00251  0.50000  1.0000
  Li  Li3       1.0  0.66100  0.33900  0.50000  1.0000
  Li  Li4       1.0  0.34300  0.65700  0.50000  1.0000
  Mn  Mn1       1.0  0.83300  0.16700  0.00000  1.0000
  O   O1        1.0  0.93500  0.60800  0.23200  1.0000
  O   O2        1.0  0.25000  0.22300  0.24000  1.0000
  O   O3        1.0  0.55100  0.90800  0.24200  1.0000
  O   O4        1.0  0.09180  0.44900  0.75800  1.0000
  O   O5        1.0  0.77700  0.75000  0.76000  1.0000
  O   O6        1.0  0.39200  0.06500  0.76800  1.0000
  W   W1        1.0  0.16700  0.83300  0.00000  1.0000
