data_image0
_chemical_formula_structural       Li4O6UZn
_chemical_formula_sum              "Li4 O6 U1 Zn1"
_cell_length_a       5.2519
_cell_length_b       5.2519
_cell_length_c       5.20276
_cell_angle_alpha    99.3043
_cell_angle_beta     99.3043
_cell_angle_gamma    120.269

_space_group_name_H-M_alt    "P 1"
_space_group_IT_number       1

loop_
  _space_group_symop_operation_xyz
  'x, y, z'

loop_
  _atom_site_type_symbol
  _atom_site_label
  _atom_site_symmetry_multiplicity
  _atom_site_fract_x
  _atom_site_fract_y
  _atom_site_fract_z
  _atom_site_occupancy
  Li  Li1       1.0  0.50000  0.50000  0.00000  1.0000
  Li  Li2       1.0  0.98300  0.01680  0.50000  1.0000
  Li  Li3       1.0  0.66300  0.33700  0.50000  1.0000
  Li  Li4       1.0  0.35300  0.64700  0.50000  1.0000
  O   O1        1.0  0.92100  0.58700  0.24300  1.0000
  O   O2        1.0  0.24800  0.24300  0.24600  1.0000
  O   O3        1.0  0.57800  0.91700  0.24700  1.0000
  O   O4        1.0  0.08280  0.42200  0.75300  1.0000
  O   O5        1.0  0.75700  0.75200  0.75400  1.0000
  O   O6        1.0  0.41300  0.07920  0.75700  1.0000
  U   U1        1.0  0.16700  0.83300  0.00000  1.0000
  Zn  Zn1       1.0  0.83400  0.16600  0.00000  1.0000
