data_image0
_chemical_formula_structural       Cr2Li3O6
_chemical_formula_sum              "Cr2 Li3 O6"
_cell_length_a       4.96036
_cell_length_b       4.96036
_cell_length_c       4.98145
_cell_angle_alpha    99.4458
_cell_angle_beta     99.4458
_cell_angle_gamma    120.235

_space_group_name_H-M_alt    "P 1"
_space_group_IT_number       1

loop_
  _space_group_symop_operation_xyz
  'x, y, z'

loop_
  _atom_site_type_symbol
  _atom_site_label
  _atom_site_symmetry_multiplicity
  _atom_site_fract_x
  _atom_site_fract_y
  _atom_site_fract_z
  _atom_site_occupancy
  Cr  Cr1       1.0  0.83400  0.16600  0.00000  1.0000
  Cr  Cr2       1.0  0.16600  0.83400  0.00000  1.0000
  Li  Li1       1.0  0.50000  0.50000  0.00000  1.0000
  Li  Li2       1.0  0.65700  0.34300  0.50000  1.0000
  Li  Li3       1.0  0.34300  0.65700  0.50000  1.0000
  O   O1        1.0  0.22300  0.22300  0.22000  1.0000
  O   O2        1.0  0.93100  0.55700  0.22500  1.0000
  O   O3        1.0  0.55700  0.93100  0.22500  1.0000
  O   O4        1.0  0.44300  0.06900  0.77500  1.0000
  O   O5        1.0  0.06900  0.44300  0.77500  1.0000
  O   O6        1.0  0.77700  0.77700  0.78000  1.0000
