data_image0
_chemical_formula_structural       Li3O6Pt2
_chemical_formula_sum              "Li3 O6 Pt2"
_cell_length_a       5.22548
_cell_length_b       5.22548
_cell_length_c       5.0016
_cell_angle_alpha    99.3351
_cell_angle_beta     99.3351
_cell_angle_gamma    121.148

_space_group_name_H-M_alt    "P 1"
_space_group_IT_number       1

loop_
  _space_group_symop_operation_xyz
  'x, y, z'

loop_
  _atom_site_type_symbol
  _atom_site_label
  _atom_site_symmetry_multiplicity
  _atom_site_fract_x
  _atom_site_fract_y
  _atom_site_fract_z
  _atom_site_occupancy
  Li  Li1       1.0  0.50000  0.50000  0.00000  1.0000
  Li  Li2       1.0  0.65900  0.34100  0.50000  1.0000
  Li  Li3       1.0  0.34100  0.65900  0.50000  1.0000
  O   O1        1.0  0.24100  0.24100  0.23100  1.0000
  O   O2        1.0  0.92400  0.56600  0.23200  1.0000
  O   O3        1.0  0.56600  0.92400  0.23200  1.0000
  O   O4        1.0  0.43400  0.07600  0.76800  1.0000
  O   O5        1.0  0.07600  0.43400  0.76800  1.0000
  O   O6        1.0  0.75900  0.75900  0.76900  1.0000
  Pt  Pt1       1.0  0.83800  0.16200  0.00000  1.0000
  Pt  Pt2       1.0  0.16200  0.83800  0.00000  1.0000
