data_image0
_chemical_formula_structural       CuLi4MoO6
_chemical_formula_sum              "Cu1 Li4 Mo1 O6"
_cell_length_a       5.08393
_cell_length_b       5.08393
_cell_length_c       5.02465
_cell_angle_alpha    98.973
_cell_angle_beta     98.973
_cell_angle_gamma    120.884

_space_group_name_H-M_alt    "P 1"
_space_group_IT_number       1

loop_
  _space_group_symop_operation_xyz
  'x, y, z'

loop_
  _atom_site_type_symbol
  _atom_site_label
  _atom_site_symmetry_multiplicity
  _atom_site_fract_x
  _atom_site_fract_y
  _atom_site_fract_z
  _atom_site_occupancy
  Cu  Cu1       1.0  0.83000  0.17000  0.00000  1.0000
  Li  Li1       1.0  0.49500  0.50500  0.00000  1.0000
  Li  Li2       1.0  0.99000  0.01030  0.50000  1.0000
  Li  Li3       1.0  0.67000  0.33000  0.50000  1.0000
  Li  Li4       1.0  0.34600  0.65400  0.50000  1.0000
  Mo  Mo1       1.0  0.15800  0.84200  0.00000  1.0000
  O   O1        1.0  0.57000  0.92200  0.22600  1.0000
  O   O2        1.0  0.94100  0.60600  0.24200  1.0000
  O   O3        1.0  0.25600  0.22900  0.24300  1.0000
  O   O4        1.0  0.77100  0.74400  0.75700  1.0000
  O   O5        1.0  0.39400  0.05890  0.75800  1.0000
  O   O6        1.0  0.07800  0.43000  0.77400  1.0000
