data_image0
_chemical_formula_structural       Li3O6Ru2
_chemical_formula_sum              "Li3 O6 Ru2"
_cell_length_a       5.07622
_cell_length_b       5.07622
_cell_length_c       5.08767
_cell_angle_alpha    99.9957
_cell_angle_beta     99.9957
_cell_angle_gamma    119.464

_space_group_name_H-M_alt    "P 1"
_space_group_IT_number       1

loop_
  _space_group_symop_operation_xyz
  'x, y, z'

loop_
  _atom_site_type_symbol
  _atom_site_label
  _atom_site_symmetry_multiplicity
  _atom_site_fract_x
  _atom_site_fract_y
  _atom_site_fract_z
  _atom_site_occupancy
  Li  Li1       1.0  0.50400  0.49600  0.00000  1.0000
  Li  Li2       1.0  0.00114  0.99900  0.50000  1.0000
  Li  Li3       1.0  0.34600  0.65400  0.50000  1.0000
  O   O1        1.0  0.57700  0.91600  0.22500  1.0000
  O   O2        1.0  0.22100  0.23000  0.23100  1.0000
  O   O3        1.0  0.93100  0.58900  0.23500  1.0000
  O   O4        1.0  0.41100  0.06910  0.76500  1.0000
  O   O5        1.0  0.77000  0.77900  0.76900  1.0000
  O   O6        1.0  0.08450  0.42300  0.77500  1.0000
  Ru  Ru1       1.0  0.82700  0.17300  0.00000  1.0000
  Ru  Ru2       1.0  0.16600  0.83400  0.00000  1.0000
