data_image0
_chemical_formula_structural       Li4MnMoO6
_chemical_formula_sum              "Li4 Mn1 Mo1 O6"
_cell_length_a       5.12685
_cell_length_b       5.12685
_cell_length_c       5.06984
_cell_angle_alpha    99.9405
_cell_angle_beta     99.9405
_cell_angle_gamma    119.813

_space_group_name_H-M_alt    "P 1"
_space_group_IT_number       1

loop_
  _space_group_symop_operation_xyz
  'x, y, z'

loop_
  _atom_site_type_symbol
  _atom_site_label
  _atom_site_symmetry_multiplicity
  _atom_site_fract_x
  _atom_site_fract_y
  _atom_site_fract_z
  _atom_site_occupancy
  Li  Li1       1.0  0.50000  0.50000  0.00000  1.0000
  Li  Li2       1.0  0.99800  0.00210  0.50000  1.0000
  Li  Li3       1.0  0.66100  0.33900  0.50000  1.0000
  Li  Li4       1.0  0.34300  0.65700  0.50000  1.0000
  Mn  Mn1       1.0  0.83300  0.16700  0.00000  1.0000
  Mo  Mo1       1.0  0.16800  0.83200  0.00000  1.0000
  O   O1        1.0  0.93400  0.60500  0.23300  1.0000
  O   O2        1.0  0.24900  0.22500  0.23900  1.0000
  O   O3        1.0  0.55400  0.91000  0.24200  1.0000
  O   O4        1.0  0.09030  0.44600  0.75800  1.0000
  O   O5        1.0  0.77500  0.75100  0.76100  1.0000
  O   O6        1.0  0.39500  0.06640  0.76700  1.0000
