data_image0
_chemical_formula_structural       Li4O12V4
_chemical_formula_sum              "Li4 O12 V4"
_cell_length_a       5.84399
_cell_length_b       6.55311
_cell_length_c       6.55311
_cell_angle_alpha    101.614
_cell_angle_beta     106.342
_cell_angle_gamma    73.6575

_space_group_name_H-M_alt    "P 1"
_space_group_IT_number       1

loop_
  _space_group_symop_operation_xyz
  'x, y, z'

loop_
  _atom_site_type_symbol
  _atom_site_label
  _atom_site_symmetry_multiplicity
  _atom_site_fract_x
  _atom_site_fract_y
  _atom_site_fract_z
  _atom_site_occupancy
  Li  Li1       1.0  0.25000  0.07380  0.07380  1.0000
  Li  Li2       1.0  0.75000  0.28500  0.28500  1.0000
  Li  Li3       1.0  0.25000  0.71500  0.71500  1.0000
  Li  Li4       1.0  0.75000  0.92600  0.92600  1.0000
  O   O1        1.0  0.15900  0.77800  0.99600  1.0000
  O   O2        1.0  0.84100  0.22200  0.00439  1.0000
  O   O3        1.0  0.27800  0.36800  0.07140  1.0000
  O   O4        1.0  0.65900  0.00440  0.22200  1.0000
  O   O5        1.0  0.57800  0.61200  0.32800  1.0000
  O   O6        1.0  0.22200  0.07140  0.36800  1.0000
  O   O7        1.0  0.07760  0.67200  0.38800  1.0000
  O   O8        1.0  0.92200  0.32800  0.61200  1.0000
  O   O9        1.0  0.77800  0.92900  0.63200  1.0000
  O   O10       1.0  0.42200  0.38800  0.67200  1.0000
  O   O11       1.0  0.34100  0.99600  0.77800  1.0000
  O   O12       1.0  0.72200  0.63200  0.92900  1.0000
  V   V1        1.0  0.26100  0.61800  0.18900  1.0000
  V   V2        1.0  0.76100  0.81100  0.38200  1.0000
  V   V3        1.0  0.23900  0.18900  0.61800  1.0000
  V   V4        1.0  0.73900  0.38200  0.81100  1.0000
