data_image0
_chemical_formula_structural       Li4O6WZn
_chemical_formula_sum              "Li4 O6 W1 Zn1"
_cell_length_a       5.10971
_cell_length_b       5.10971
_cell_length_c       5.0967
_cell_angle_alpha    99.8601
_cell_angle_beta     99.8601
_cell_angle_gamma    119.795

_space_group_name_H-M_alt    "P 1"
_space_group_IT_number       1

loop_
  _space_group_symop_operation_xyz
  'x, y, z'

loop_
  _atom_site_type_symbol
  _atom_site_label
  _atom_site_symmetry_multiplicity
  _atom_site_fract_x
  _atom_site_fract_y
  _atom_site_fract_z
  _atom_site_occupancy
  Li  Li1       1.0  0.50100  0.49900  0.00000  1.0000
  Li  Li2       1.0  0.99500  0.00536  0.50000  1.0000
  Li  Li3       1.0  0.66200  0.33800  0.50000  1.0000
  Li  Li4       1.0  0.34400  0.65600  0.50000  1.0000
  O   O1        1.0  0.93500  0.60200  0.23100  1.0000
  O   O2        1.0  0.24400  0.22300  0.23800  1.0000
  O   O3        1.0  0.55500  0.91300  0.24000  1.0000
  O   O4        1.0  0.08750  0.44500  0.76000  1.0000
  O   O5        1.0  0.77700  0.75600  0.76200  1.0000
  O   O6        1.0  0.39800  0.06530  0.76900  1.0000
  W   W1        1.0  0.16800  0.83200  0.00000  1.0000
  Zn  Zn1       1.0  0.83300  0.16700  0.00000  1.0000
