data_image0
_chemical_formula_structural       Li4NpO6Zn
_chemical_formula_sum              "Li4 Np1 O6 Zn1"
_cell_length_a       5.22496
_cell_length_b       5.22496
_cell_length_c       5.19006
_cell_angle_alpha    99.3666
_cell_angle_beta     99.3666
_cell_angle_gamma    120.24

_space_group_name_H-M_alt    "P 1"
_space_group_IT_number       1

loop_
  _space_group_symop_operation_xyz
  'x, y, z'

loop_
  _atom_site_type_symbol
  _atom_site_label
  _atom_site_symmetry_multiplicity
  _atom_site_fract_x
  _atom_site_fract_y
  _atom_site_fract_z
  _atom_site_occupancy
  Li  Li1       1.0  0.50000  0.50000  0.00000  1.0000
  Li  Li2       1.0  0.98700  0.01310  0.50000  1.0000
  Li  Li3       1.0  0.66300  0.33700  0.50000  1.0000
  Li  Li4       1.0  0.35000  0.65000  0.50000  1.0000
  Np  Np1       1.0  0.16700  0.83300  0.00000  1.0000
  O   O1        1.0  0.92300  0.58900  0.24200  1.0000
  O   O2        1.0  0.24800  0.24200  0.24600  1.0000
  O   O3        1.0  0.57700  0.91700  0.24700  1.0000
  O   O4        1.0  0.08290  0.42300  0.75300  1.0000
  O   O5        1.0  0.75800  0.75200  0.75400  1.0000
  O   O6        1.0  0.41100  0.07720  0.75800  1.0000
  Zn  Zn1       1.0  0.83400  0.16600  0.00000  1.0000
