data_image0
_chemical_formula_structural       Li3O6Sn2
_chemical_formula_sum              "Li3 O6 Sn2"
_cell_length_a       5.32987
_cell_length_b       5.32987
_cell_length_c       5.18253
_cell_angle_alpha    100.137
_cell_angle_beta     100.137
_cell_angle_gamma    119.967

_space_group_name_H-M_alt    "P 1"
_space_group_IT_number       1

loop_
  _space_group_symop_operation_xyz
  'x, y, z'

loop_
  _atom_site_type_symbol
  _atom_site_label
  _atom_site_symmetry_multiplicity
  _atom_site_fract_x
  _atom_site_fract_y
  _atom_site_fract_z
  _atom_site_occupancy
  Li  Li1       1.0  0.64700  0.35400  0.50000  1.0000
  Li  Li2       1.0  0.35400  0.64700  0.50000  1.0000
  Li  Li3       1.0  0.00000  0.00000  0.50000  1.0000
  O   O1        1.0  0.95500  0.58500  0.25000  1.0000
  O   O2        1.0  0.58500  0.95500  0.25000  1.0000
  O   O3        1.0  0.21600  0.21600  0.25400  1.0000
  O   O4        1.0  0.78400  0.78400  0.74600  1.0000
  O   O5        1.0  0.41500  0.04500  0.75000  1.0000
  O   O6        1.0  0.04500  0.41500  0.75000  1.0000
  Sn  Sn1       1.0  0.83400  0.16600  0.00000  1.0000
  Sn  Sn2       1.0  0.16600  0.83400  0.00000  1.0000
