data_image0
_chemical_formula_structural       BLi4O6Os
_chemical_formula_sum              "B1 Li4 O6 Os1"
_cell_length_a       5.06289
_cell_length_b       5.06289
_cell_length_c       4.9177
_cell_angle_alpha    98.8853
_cell_angle_beta     98.8853
_cell_angle_gamma    122.7

_space_group_name_H-M_alt    "P 1"
_space_group_IT_number       1

loop_
  _space_group_symop_operation_xyz
  'x, y, z'

loop_
  _atom_site_type_symbol
  _atom_site_label
  _atom_site_symmetry_multiplicity
  _atom_site_fract_x
  _atom_site_fract_y
  _atom_site_fract_z
  _atom_site_occupancy
  B   B1        1.0  0.77200  0.22800  0.00000  1.0000
  Li  Li1       1.0  0.48700  0.51300  0.00000  1.0000
  Li  Li2       1.0  0.98100  0.01900  0.50000  1.0000
  Li  Li3       1.0  0.67300  0.32700  0.50000  1.0000
  Li  Li4       1.0  0.35700  0.64300  0.50000  1.0000
  O   O1        1.0  0.63900  0.97900  0.17500  1.0000
  O   O2        1.0  0.90900  0.54500  0.22400  1.0000
  O   O3        1.0  0.27100  0.22600  0.26000  1.0000
  O   O4        1.0  0.77400  0.72900  0.74000  1.0000
  O   O5        1.0  0.45500  0.09070  0.77600  1.0000
  O   O6        1.0  0.02130  0.36100  0.82500  1.0000
  Os  Os1       1.0  0.16100  0.83900  0.00000  1.0000
