data_image0
_chemical_formula_structural       Li4O6TbTc
_chemical_formula_sum              "Li4 O6 Tb1 Tc1"
_cell_length_a       5.37338
_cell_length_b       5.37338
_cell_length_c       5.18085
_cell_angle_alpha    99.5042
_cell_angle_beta     99.5042
_cell_angle_gamma    120.344

_space_group_name_H-M_alt    "P 1"
_space_group_IT_number       1

loop_
  _space_group_symop_operation_xyz
  'x, y, z'

loop_
  _atom_site_type_symbol
  _atom_site_label
  _atom_site_symmetry_multiplicity
  _atom_site_fract_x
  _atom_site_fract_y
  _atom_site_fract_z
  _atom_site_occupancy
  Li  Li1       1.0  0.49900  0.50100  0.00000  1.0000
  Li  Li2       1.0  0.02300  0.97700  0.50000  1.0000
  Li  Li3       1.0  0.64900  0.35100  0.50000  1.0000
  Li  Li4       1.0  0.33900  0.66100  0.50000  1.0000
  O   O1        1.0  0.93400  0.61100  0.23200  1.0000
  O   O2        1.0  0.54000  0.90500  0.24100  1.0000
  O   O3        1.0  0.25200  0.22200  0.24500  1.0000
  O   O4        1.0  0.77800  0.74800  0.75500  1.0000
  O   O5        1.0  0.09510  0.46000  0.75900  1.0000
  O   O6        1.0  0.38900  0.06620  0.76800  1.0000
  Tb  Tb1       1.0  0.83500  0.16500  0.00000  1.0000
  Tc  Tc1       1.0  0.16700  0.83300  0.00000  1.0000
