data_image0
_chemical_formula_structural       HoLi4O6U
_chemical_formula_sum              "Ho1 Li4 O6 U1"
_cell_length_a       5.57151
_cell_length_b       5.57151
_cell_length_c       5.28587
_cell_angle_alpha    100.03
_cell_angle_beta     100.03
_cell_angle_gamma    119.966

_space_group_name_H-M_alt    "P 1"
_space_group_IT_number       1

loop_
  _space_group_symop_operation_xyz
  'x, y, z'

loop_
  _atom_site_type_symbol
  _atom_site_label
  _atom_site_symmetry_multiplicity
  _atom_site_fract_x
  _atom_site_fract_y
  _atom_site_fract_z
  _atom_site_occupancy
  Ho  Ho1       1.0  0.83300  0.16700  0.00000  1.0000
  Li  Li1       1.0  0.50000  0.50000  0.00000  1.0000
  Li  Li2       1.0  0.99800  0.00193  0.50000  1.0000
  Li  Li3       1.0  0.64600  0.35400  0.50000  1.0000
  Li  Li4       1.0  0.35700  0.64300  0.50000  1.0000
  O   O1        1.0  0.92200  0.59000  0.23900  1.0000
  O   O2        1.0  0.57300  0.91500  0.24500  1.0000
  O   O3        1.0  0.24600  0.23900  0.24900  1.0000
  O   O4        1.0  0.76100  0.75400  0.75100  1.0000
  O   O5        1.0  0.08490  0.42700  0.75500  1.0000
  O   O6        1.0  0.41000  0.07830  0.76100  1.0000
  U   U1        1.0  0.16800  0.83200  0.00000  1.0000
