data_image0
_chemical_formula_structural       Li4O6RhU
_chemical_formula_sum              "Li4 O6 Rh1 U1"
_cell_length_a       5.22498
_cell_length_b       5.22498
_cell_length_c       5.2461
_cell_angle_alpha    99.1041
_cell_angle_beta     99.1041
_cell_angle_gamma    120.245

_space_group_name_H-M_alt    "P 1"
_space_group_IT_number       1

loop_
  _space_group_symop_operation_xyz
  'x, y, z'

loop_
  _atom_site_type_symbol
  _atom_site_label
  _atom_site_symmetry_multiplicity
  _atom_site_fract_x
  _atom_site_fract_y
  _atom_site_fract_z
  _atom_site_occupancy
  Li  Li1       1.0  0.50100  0.49900  0.00000  1.0000
  Li  Li2       1.0  0.97800  0.02210  0.50000  1.0000
  Li  Li3       1.0  0.66600  0.33400  0.50000  1.0000
  Li  Li4       1.0  0.35300  0.64700  0.50000  1.0000
  O   O1        1.0  0.59500  0.92100  0.24600  1.0000
  O   O2        1.0  0.23900  0.25400  0.24700  1.0000
  O   O3        1.0  0.90800  0.56300  0.24900  1.0000
  O   O4        1.0  0.43700  0.09200  0.75100  1.0000
  O   O5        1.0  0.74600  0.76100  0.75300  1.0000
  O   O6        1.0  0.07860  0.40500  0.75400  1.0000
  Rh  Rh1       1.0  0.83400  0.16600  0.00000  1.0000
  U   U1        1.0  0.16700  0.83300  0.00000  1.0000
