data_image0
_chemical_formula_structural       CrLi4O6Zn
_chemical_formula_sum              "Cr1 Li4 O6 Zn1"
_cell_length_a       4.9882
_cell_length_b       4.9882
_cell_length_c       5.02837
_cell_angle_alpha    100.324
_cell_angle_beta     100.324
_cell_angle_gamma    118.94

_space_group_name_H-M_alt    "P 1"
_space_group_IT_number       1

loop_
  _space_group_symop_operation_xyz
  'x, y, z'

loop_
  _atom_site_type_symbol
  _atom_site_label
  _atom_site_symmetry_multiplicity
  _atom_site_fract_x
  _atom_site_fract_y
  _atom_site_fract_z
  _atom_site_occupancy
  Cr  Cr1       1.0  0.17700  0.82300  0.00000  1.0000
  Li  Li1       1.0  0.50400  0.49600  0.00000  1.0000
  Li  Li2       1.0  0.00070  0.99900  0.50000  1.0000
  Li  Li3       1.0  0.65800  0.34200  0.50000  1.0000
  Li  Li4       1.0  0.34000  0.66000  0.50000  1.0000
  O   O1        1.0  0.93300  0.59300  0.22400  1.0000
  O   O2        1.0  0.23100  0.21500  0.23500  1.0000
  O   O3        1.0  0.54600  0.91700  0.24100  1.0000
  O   O4        1.0  0.08310  0.45400  0.75900  1.0000
  O   O5        1.0  0.78500  0.76900  0.76500  1.0000
  O   O6        1.0  0.40700  0.06670  0.77600  1.0000
  Zn  Zn1       1.0  0.83600  0.16400  0.00000  1.0000
