data_image0
_chemical_formula_structural       FeLi4O6Ta
_chemical_formula_sum              "Fe1 Li4 O6 Ta1"
_cell_length_a       5.10808
_cell_length_b       5.10808
_cell_length_c       5.10331
_cell_angle_alpha    99.7346
_cell_angle_beta     99.7346
_cell_angle_gamma    119.854

_space_group_name_H-M_alt    "P 1"
_space_group_IT_number       1

loop_
  _space_group_symop_operation_xyz
  'x, y, z'

loop_
  _atom_site_type_symbol
  _atom_site_label
  _atom_site_symmetry_multiplicity
  _atom_site_fract_x
  _atom_site_fract_y
  _atom_site_fract_z
  _atom_site_occupancy
  Fe  Fe1       1.0  0.83300  0.16700  0.00000  1.0000
  Li  Li1       1.0  0.50100  0.49900  0.00000  1.0000
  Li  Li2       1.0  0.99200  0.00827  0.50000  1.0000
  Li  Li3       1.0  0.66100  0.33900  0.50000  1.0000
  Li  Li4       1.0  0.34600  0.65400  0.50000  1.0000
  O   O1        1.0  0.93000  0.58200  0.23400  1.0000
  O   O2        1.0  0.57500  0.92600  0.23500  1.0000
  O   O3        1.0  0.23100  0.22700  0.23700  1.0000
  O   O4        1.0  0.77300  0.76900  0.76300  1.0000
  O   O5        1.0  0.07450  0.42500  0.76500  1.0000
  O   O6        1.0  0.41800  0.07040  0.76600  1.0000
  Ta  Ta1       1.0  0.16800  0.83200  0.00000  1.0000
