data_image0
_chemical_formula_structural       BiLi4NbO6
_chemical_formula_sum              "Bi1 Li4 Nb1 O6"
_cell_length_a       5.53376
_cell_length_b       5.53376
_cell_length_c       5.23638
_cell_angle_alpha    99.5617
_cell_angle_beta     99.5617
_cell_angle_gamma    120.496

_space_group_name_H-M_alt    "P 1"
_space_group_IT_number       1

loop_
  _space_group_symop_operation_xyz
  'x, y, z'

loop_
  _atom_site_type_symbol
  _atom_site_label
  _atom_site_symmetry_multiplicity
  _atom_site_fract_x
  _atom_site_fract_y
  _atom_site_fract_z
  _atom_site_occupancy
  Bi  Bi1       1.0  0.16500  0.83500  0.00000  1.0000
  Li  Li1       1.0  0.49800  0.50200  0.00000  1.0000
  Li  Li2       1.0  0.97600  0.02400  0.50000  1.0000
  Li  Li3       1.0  0.65900  0.34100  0.50000  1.0000
  Li  Li4       1.0  0.35500  0.64500  0.50000  1.0000
  Nb  Nb1       1.0  0.83200  0.16800  0.00000  1.0000
  O   O1        1.0  0.61500  0.92900  0.23200  1.0000
  O   O2        1.0  0.89600  0.53100  0.24200  1.0000
  O   O3        1.0  0.21900  0.25600  0.24400  1.0000
  O   O4        1.0  0.74400  0.78100  0.75600  1.0000
  O   O5        1.0  0.46900  0.10400  0.75800  1.0000
  O   O6        1.0  0.07140  0.38500  0.76800  1.0000
