data_image0
_chemical_formula_structural       Li4NbNiO6
_chemical_formula_sum              "Li4 Nb1 Ni1 O6"
_cell_length_a       5.07162
_cell_length_b       5.07162
_cell_length_c       5.06573
_cell_angle_alpha    99.133
_cell_angle_beta     99.133
_cell_angle_gamma    120.555

_space_group_name_H-M_alt    "P 1"
_space_group_IT_number       1

loop_
  _space_group_symop_operation_xyz
  'x, y, z'

loop_
  _atom_site_type_symbol
  _atom_site_label
  _atom_site_symmetry_multiplicity
  _atom_site_fract_x
  _atom_site_fract_y
  _atom_site_fract_z
  _atom_site_occupancy
  Li  Li1       1.0  0.49800  0.50200  0.00000  1.0000
  Li  Li2       1.0  0.98700  0.01320  0.50000  1.0000
  Li  Li3       1.0  0.66600  0.33400  0.50000  1.0000
  Li  Li4       1.0  0.34700  0.65300  0.50000  1.0000
  Nb  Nb1       1.0  0.15900  0.84100  0.00000  1.0000
  Ni  Ni1       1.0  0.83100  0.16900  0.00000  1.0000
  O   O1        1.0  0.59100  0.93700  0.22300  1.0000
  O   O2        1.0  0.93400  0.58000  0.24100  1.0000
  O   O3        1.0  0.23900  0.23600  0.24300  1.0000
  O   O4        1.0  0.76400  0.76100  0.75700  1.0000
  O   O5        1.0  0.42000  0.06560  0.75900  1.0000
  O   O6        1.0  0.06320  0.40900  0.77700  1.0000
