data_image0
_chemical_formula_structural       Li4O6RhTc
_chemical_formula_sum              "Li4 O6 Rh1 Tc1"
_cell_length_a       5.0291
_cell_length_b       5.0291
_cell_length_c       5.12053
_cell_angle_alpha    99.5407
_cell_angle_beta     99.5407
_cell_angle_gamma    119.703

_space_group_name_H-M_alt    "P 1"
_space_group_IT_number       1

loop_
  _space_group_symop_operation_xyz
  'x, y, z'

loop_
  _atom_site_type_symbol
  _atom_site_label
  _atom_site_symmetry_multiplicity
  _atom_site_fract_x
  _atom_site_fract_y
  _atom_site_fract_z
  _atom_site_occupancy
  Li  Li1       1.0  0.50000  0.50000  0.00000  1.0000
  Li  Li2       1.0  0.99600  0.00421  0.50000  1.0000
  Li  Li3       1.0  0.66200  0.33800  0.50000  1.0000
  Li  Li4       1.0  0.34300  0.65700  0.50000  1.0000
  O   O1        1.0  0.92400  0.58700  0.23900  1.0000
  O   O2        1.0  0.57200  0.91700  0.24000  1.0000
  O   O3        1.0  0.24600  0.23800  0.24400  1.0000
  O   O4        1.0  0.76200  0.75400  0.75600  1.0000
  O   O5        1.0  0.08300  0.42800  0.76000  1.0000
  O   O6        1.0  0.41300  0.07550  0.76100  1.0000
  Rh  Rh1       1.0  0.83400  0.16600  0.00000  1.0000
  Tc  Tc1       1.0  0.16500  0.83500  0.00000  1.0000
