data_image0
_chemical_formula_structural       HoLi4NbO6
_chemical_formula_sum              "Ho1 Li4 Nb1 O6"
_cell_length_a       5.41533
_cell_length_b       5.41533
_cell_length_c       5.20791
_cell_angle_alpha    99.8701
_cell_angle_beta     99.8701
_cell_angle_gamma    120.061

_space_group_name_H-M_alt    "P 1"
_space_group_IT_number       1

loop_
  _space_group_symop_operation_xyz
  'x, y, z'

loop_
  _atom_site_type_symbol
  _atom_site_label
  _atom_site_symmetry_multiplicity
  _atom_site_fract_x
  _atom_site_fract_y
  _atom_site_fract_z
  _atom_site_occupancy
  Ho  Ho1       1.0  0.83400  0.16600  0.00000  1.0000
  Li  Li1       1.0  0.50100  0.49900  0.00000  1.0000
  Li  Li2       1.0  0.01750  0.98300  0.50000  1.0000
  Li  Li3       1.0  0.64800  0.35200  0.50000  1.0000
  Li  Li4       1.0  0.34000  0.66000  0.50000  1.0000
  Nb  Nb1       1.0  0.16800  0.83200  0.00000  1.0000
  O   O1        1.0  0.93400  0.60500  0.23300  1.0000
  O   O2        1.0  0.54900  0.91200  0.23900  1.0000
  O   O3        1.0  0.24500  0.22000  0.24200  1.0000
  O   O4        1.0  0.78000  0.75500  0.75800  1.0000
  O   O5        1.0  0.08850  0.45100  0.76100  1.0000
  O   O6        1.0  0.39500  0.06590  0.76700  1.0000
