data_image0
_chemical_formula_structural       Li4NbO6V
_chemical_formula_sum              "Li4 Nb1 O6 V1"
_cell_length_a       5.13288
_cell_length_b       5.13288
_cell_length_c       5.11583
_cell_angle_alpha    99.5866
_cell_angle_beta     99.5866
_cell_angle_gamma    120.092

_space_group_name_H-M_alt    "P 1"
_space_group_IT_number       1

loop_
  _space_group_symop_operation_xyz
  'x, y, z'

loop_
  _atom_site_type_symbol
  _atom_site_label
  _atom_site_symmetry_multiplicity
  _atom_site_fract_x
  _atom_site_fract_y
  _atom_site_fract_z
  _atom_site_occupancy
  Li  Li1       1.0  0.49900  0.50100  0.00000  1.0000
  Li  Li2       1.0  0.00478  0.99500  0.50000  1.0000
  Li  Li3       1.0  0.65600  0.34400  0.50000  1.0000
  Li  Li4       1.0  0.33900  0.66100  0.50000  1.0000
  Nb  Nb1       1.0  0.83400  0.16600  0.00000  1.0000
  O   O1        1.0  0.92700  0.57800  0.23400  1.0000
  O   O2        1.0  0.58400  0.92700  0.23500  1.0000
  O   O3        1.0  0.23100  0.23600  0.24000  1.0000
  O   O4        1.0  0.76400  0.76900  0.76000  1.0000
  O   O5        1.0  0.07270  0.41600  0.76500  1.0000
  O   O6        1.0  0.42200  0.07320  0.76600  1.0000
  V   V1        1.0  0.16500  0.83500  0.00000  1.0000
