data_image0
_chemical_formula_structural       Li4NbO6Ta
_chemical_formula_sum              "Li4 Nb1 O6 Ta1"
_cell_length_a       5.13973
_cell_length_b       5.13973
_cell_length_c       5.20683
_cell_angle_alpha    99.1173
_cell_angle_beta     99.1173
_cell_angle_gamma    119.059

_space_group_name_H-M_alt    "P 1"
_space_group_IT_number       1

loop_
  _space_group_symop_operation_xyz
  'x, y, z'

loop_
  _atom_site_type_symbol
  _atom_site_label
  _atom_site_symmetry_multiplicity
  _atom_site_fract_x
  _atom_site_fract_y
  _atom_site_fract_z
  _atom_site_occupancy
  Li  Li1       1.0  0.50100  0.49900  0.00000  1.0000
  Li  Li2       1.0  0.00216  0.99800  0.50000  1.0000
  Li  Li3       1.0  0.65900  0.34100  0.50000  1.0000
  Li  Li4       1.0  0.34300  0.65700  0.50000  1.0000
  Nb  Nb1       1.0  0.84900  0.15100  0.00000  1.0000
  O   O1        1.0  0.58300  0.93300  0.22900  1.0000
  O   O2        1.0  0.93600  0.59500  0.23200  1.0000
  O   O3        1.0  0.26000  0.25300  0.26600  1.0000
  O   O4        1.0  0.74700  0.74000  0.73400  1.0000
  O   O5        1.0  0.40500  0.06350  0.76800  1.0000
  O   O6        1.0  0.06720  0.41700  0.77100  1.0000
  Ta  Ta1       1.0  0.14900  0.85100  0.00000  1.0000
