data_image0
_chemical_formula_structural       DyLi4O6U
_chemical_formula_sum              "Dy1 Li4 O6 U1"
_cell_length_a       5.58523
_cell_length_b       5.58523
_cell_length_c       5.28549
_cell_angle_alpha    99.9834
_cell_angle_beta     99.9834
_cell_angle_gamma    120.023

_space_group_name_H-M_alt    "P 1"
_space_group_IT_number       1

loop_
  _space_group_symop_operation_xyz
  'x, y, z'

loop_
  _atom_site_type_symbol
  _atom_site_label
  _atom_site_symmetry_multiplicity
  _atom_site_fract_x
  _atom_site_fract_y
  _atom_site_fract_z
  _atom_site_occupancy
  Dy  Dy1       1.0  0.83300  0.16700  0.00000  1.0000
  Li  Li1       1.0  0.50100  0.49900  0.00000  1.0000
  Li  Li2       1.0  0.99900  0.00050  0.50000  1.0000
  Li  Li3       1.0  0.64400  0.35600  0.50000  1.0000
  Li  Li4       1.0  0.35900  0.64100  0.50000  1.0000
  O   O1        1.0  0.92100  0.59100  0.23800  1.0000
  O   O2        1.0  0.57100  0.91300  0.24500  1.0000
  O   O3        1.0  0.24600  0.23800  0.25000  1.0000
  O   O4        1.0  0.76200  0.75400  0.75000  1.0000
  O   O5        1.0  0.08670  0.42900  0.75500  1.0000
  O   O6        1.0  0.40900  0.07920  0.76200  1.0000
  U   U1        1.0  0.16700  0.83300  0.00000  1.0000
