data_image0
_chemical_formula_structural       Li4O6TaV
_chemical_formula_sum              "Li4 O6 Ta1 V1"
_cell_length_a       5.12517
_cell_length_b       5.12517
_cell_length_c       5.11386
_cell_angle_alpha    99.6488
_cell_angle_beta     99.6488
_cell_angle_gamma    119.868

_space_group_name_H-M_alt    "P 1"
_space_group_IT_number       1

loop_
  _space_group_symop_operation_xyz
  'x, y, z'

loop_
  _atom_site_type_symbol
  _atom_site_label
  _atom_site_symmetry_multiplicity
  _atom_site_fract_x
  _atom_site_fract_y
  _atom_site_fract_z
  _atom_site_occupancy
  Li  Li1       1.0  0.50100  0.49900  0.00000  1.0000
  Li  Li2       1.0  0.99400  0.00588  0.50000  1.0000
  Li  Li3       1.0  0.66100  0.33900  0.50000  1.0000
  Li  Li4       1.0  0.34500  0.65500  0.50000  1.0000
  O   O1        1.0  0.57400  0.92400  0.23100  1.0000
  O   O2        1.0  0.93200  0.58600  0.23400  1.0000
  O   O3        1.0  0.23600  0.22900  0.24000  1.0000
  O   O4        1.0  0.77100  0.76400  0.76000  1.0000
  O   O5        1.0  0.41400  0.06830  0.76600  1.0000
  O   O6        1.0  0.07620  0.42600  0.76900  1.0000
  Ta  Ta1       1.0  0.16500  0.83500  0.00000  1.0000
  V   V1        1.0  0.83300  0.16700  0.00000  1.0000
