data_image0
_chemical_formula_structural       HoLi4O6Tc
_chemical_formula_sum              "Ho1 Li4 O6 Tc1"
_cell_length_a       5.32163
_cell_length_b       5.32163
_cell_length_c       5.16807
_cell_angle_alpha    99.9456
_cell_angle_beta     99.9456
_cell_angle_gamma    119.944

_space_group_name_H-M_alt    "P 1"
_space_group_IT_number       1

loop_
  _space_group_symop_operation_xyz
  'x, y, z'

loop_
  _atom_site_type_symbol
  _atom_site_label
  _atom_site_symmetry_multiplicity
  _atom_site_fract_x
  _atom_site_fract_y
  _atom_site_fract_z
  _atom_site_occupancy
  Ho  Ho1       1.0  0.83400  0.16600  0.00000  1.0000
  Li  Li1       1.0  0.49900  0.50100  0.00000  1.0000
  Li  Li2       1.0  0.00891  0.99100  0.50000  1.0000
  Li  Li3       1.0  0.65600  0.34400  0.50000  1.0000
  Li  Li4       1.0  0.33800  0.66200  0.50000  1.0000
  O   O1        1.0  0.93800  0.61200  0.23300  1.0000
  O   O2        1.0  0.55200  0.90900  0.24500  1.0000
  O   O3        1.0  0.25500  0.22600  0.24500  1.0000
  O   O4        1.0  0.77400  0.74500  0.75500  1.0000
  O   O5        1.0  0.09090  0.44800  0.75500  1.0000
  O   O6        1.0  0.38800  0.06250  0.76700  1.0000
  Tc  Tc1       1.0  0.16700  0.83300  0.00000  1.0000
