data_image0
_chemical_formula_structural       HoLi4O6Ta
_chemical_formula_sum              "Ho1 Li4 O6 Ta1"
_cell_length_a       5.41304
_cell_length_b       5.41304
_cell_length_c       5.20631
_cell_angle_alpha    99.8634
_cell_angle_beta     99.8634
_cell_angle_gamma    120.077

_space_group_name_H-M_alt    "P 1"
_space_group_IT_number       1

loop_
  _space_group_symop_operation_xyz
  'x, y, z'

loop_
  _atom_site_type_symbol
  _atom_site_label
  _atom_site_symmetry_multiplicity
  _atom_site_fract_x
  _atom_site_fract_y
  _atom_site_fract_z
  _atom_site_occupancy
  Ho  Ho1       1.0  0.83400  0.16600  0.00000  1.0000
  Li  Li1       1.0  0.50100  0.49900  0.00000  1.0000
  Li  Li2       1.0  0.01870  0.98100  0.50000  1.0000
  Li  Li3       1.0  0.64800  0.35200  0.50000  1.0000
  Li  Li4       1.0  0.34000  0.66000  0.50000  1.0000
  O   O1        1.0  0.93500  0.60600  0.23100  1.0000
  O   O2        1.0  0.54600  0.91100  0.23700  1.0000
  O   O3        1.0  0.24400  0.21700  0.24100  1.0000
  O   O4        1.0  0.78300  0.75600  0.75900  1.0000
  O   O5        1.0  0.08910  0.45400  0.76300  1.0000
  O   O6        1.0  0.39400  0.06460  0.76900  1.0000
  Ta  Ta1       1.0  0.16800  0.83200  0.00000  1.0000
