data_image0
_chemical_formula_structural       Li4MoO6Ta
_chemical_formula_sum              "Li4 Mo1 O6 Ta1"
_cell_length_a       5.14315
_cell_length_b       5.14315
_cell_length_c       5.17707
_cell_angle_alpha    99.5352
_cell_angle_beta     99.5352
_cell_angle_gamma    120.018

_space_group_name_H-M_alt    "P 1"
_space_group_IT_number       1

loop_
  _space_group_symop_operation_xyz
  'x, y, z'

loop_
  _atom_site_type_symbol
  _atom_site_label
  _atom_site_symmetry_multiplicity
  _atom_site_fract_x
  _atom_site_fract_y
  _atom_site_fract_z
  _atom_site_occupancy
  Li  Li1       1.0  0.50000  0.50000  0.00000  1.0000
  Li  Li2       1.0  0.99700  0.00336  0.50000  1.0000
  Li  Li3       1.0  0.65900  0.34100  0.50000  1.0000
  Li  Li4       1.0  0.34600  0.65400  0.50000  1.0000
  Mo  Mo1       1.0  0.83300  0.16700  0.00000  1.0000
  O   O1        1.0  0.92400  0.59400  0.23900  1.0000
  O   O2        1.0  0.24800  0.23500  0.24000  1.0000
  O   O3        1.0  0.56700  0.91200  0.24200  1.0000
  O   O4        1.0  0.08750  0.43300  0.75800  1.0000
  O   O5        1.0  0.76500  0.75200  0.76000  1.0000
  O   O6        1.0  0.40600  0.07570  0.76100  1.0000
  Ta  Ta1       1.0  0.16800  0.83200  0.00000  1.0000
