data_image0
_chemical_formula_structural       BiLi4O6Pa
_chemical_formula_sum              "Bi1 Li4 O6 Pa1"
_cell_length_a       5.70711
_cell_length_b       5.70711
_cell_length_c       5.35044
_cell_angle_alpha    99.5302
_cell_angle_beta     99.5302
_cell_angle_gamma    120.639

_space_group_name_H-M_alt    "P 1"
_space_group_IT_number       1

loop_
  _space_group_symop_operation_xyz
  'x, y, z'

loop_
  _atom_site_type_symbol
  _atom_site_label
  _atom_site_symmetry_multiplicity
  _atom_site_fract_x
  _atom_site_fract_y
  _atom_site_fract_z
  _atom_site_occupancy
  Bi  Bi1       1.0  0.83100  0.16900  0.00000  1.0000
  Li  Li1       1.0  0.50100  0.49900  0.00000  1.0000
  Li  Li2       1.0  0.64600  0.35400  0.50000  1.0000
  Li  Li3       1.0  0.37700  0.62300  0.50000  1.0000
  Li  Li4       1.0  0.99700  0.00311  0.50000  1.0000
  O   O1        1.0  0.90300  0.59700  0.23500  1.0000
  O   O2        1.0  0.55500  0.89900  0.25200  1.0000
  O   O3        1.0  0.25600  0.23600  0.25700  1.0000
  O   O4        1.0  0.76400  0.74400  0.74300  1.0000
  O   O5        1.0  0.10100  0.44500  0.74800  1.0000
  O   O6        1.0  0.40300  0.09680  0.76500  1.0000
  Pa  Pa1       1.0  0.16600  0.83400  0.00000  1.0000
