data_image0
_chemical_formula_structural       BiLi4O6Os
_chemical_formula_sum              "Bi1 Li4 O6 Os1"
_cell_length_a       5.47745
_cell_length_b       5.47745
_cell_length_c       5.23703
_cell_angle_alpha    99.4912
_cell_angle_beta     99.4912
_cell_angle_gamma    120.58

_space_group_name_H-M_alt    "P 1"
_space_group_IT_number       1

loop_
  _space_group_symop_operation_xyz
  'x, y, z'

loop_
  _atom_site_type_symbol
  _atom_site_label
  _atom_site_symmetry_multiplicity
  _atom_site_fract_x
  _atom_site_fract_y
  _atom_site_fract_z
  _atom_site_occupancy
  Bi  Bi1       1.0  0.83600  0.16400  0.00000  1.0000
  Li  Li1       1.0  0.50100  0.49900  0.00000  1.0000
  Li  Li2       1.0  0.02800  0.97200  0.50000  1.0000
  Li  Li3       1.0  0.65000  0.35000  0.50000  1.0000
  Li  Li4       1.0  0.32800  0.67200  0.50000  1.0000
  O   O1        1.0  0.93100  0.61400  0.23300  1.0000
  O   O2        1.0  0.52900  0.89700  0.24400  1.0000
  O   O3        1.0  0.25900  0.21500  0.24600  1.0000
  O   O4        1.0  0.78500  0.74100  0.75400  1.0000
  O   O5        1.0  0.10300  0.47100  0.75600  1.0000
  O   O6        1.0  0.38600  0.06860  0.76700  1.0000
  Os  Os1       1.0  0.16600  0.83400  0.00000  1.0000
