data_image0
_chemical_formula_structural       BLi4O6V
_chemical_formula_sum              "B1 Li4 O6 V1"
_cell_length_a       5.03374
_cell_length_b       5.03374
_cell_length_c       4.88443
_cell_angle_alpha    98.7127
_cell_angle_beta     98.7127
_cell_angle_gamma    124.399

_space_group_name_H-M_alt    "P 1"
_space_group_IT_number       1

loop_
  _space_group_symop_operation_xyz
  'x, y, z'

loop_
  _atom_site_type_symbol
  _atom_site_label
  _atom_site_symmetry_multiplicity
  _atom_site_fract_x
  _atom_site_fract_y
  _atom_site_fract_z
  _atom_site_occupancy
  B   B1        1.0  0.77000  0.23000  0.00000  1.0000
  Li  Li1       1.0  0.48300  0.51700  0.00000  1.0000
  Li  Li2       1.0  0.98400  0.01640  0.50000  1.0000
  Li  Li3       1.0  0.68400  0.31600  0.50000  1.0000
  Li  Li4       1.0  0.34800  0.65200  0.50000  1.0000
  O   O1        1.0  0.63600  0.97800  0.17300  1.0000
  O   O2        1.0  0.92300  0.56100  0.22400  1.0000
  O   O3        1.0  0.27100  0.20800  0.25500  1.0000
  O   O4        1.0  0.79200  0.72900  0.74500  1.0000
  O   O5        1.0  0.43900  0.07750  0.77600  1.0000
  O   O6        1.0  0.02220  0.36400  0.82700  1.0000
  V   V1        1.0  0.15000  0.85000  0.00000  1.0000
