data_image0
_chemical_formula_structural       DyLi4O6Os
_chemical_formula_sum              "Dy1 Li4 O6 Os1"
_cell_length_a       5.34663
_cell_length_b       5.34663
_cell_length_c       5.21637
_cell_angle_alpha    99.5502
_cell_angle_beta     99.5502
_cell_angle_gamma    120.231

_space_group_name_H-M_alt    "P 1"
_space_group_IT_number       1

loop_
  _space_group_symop_operation_xyz
  'x, y, z'

loop_
  _atom_site_type_symbol
  _atom_site_label
  _atom_site_symmetry_multiplicity
  _atom_site_fract_x
  _atom_site_fract_y
  _atom_site_fract_z
  _atom_site_occupancy
  Dy  Dy1       1.0  0.83500  0.16500  0.00000  1.0000
  Li  Li1       1.0  0.50000  0.50000  0.00000  1.0000
  Li  Li2       1.0  0.02290  0.97700  0.50000  1.0000
  Li  Li3       1.0  0.64900  0.35100  0.50000  1.0000
  Li  Li4       1.0  0.33300  0.66700  0.50000  1.0000
  O   O1        1.0  0.93200  0.60800  0.23400  1.0000
  O   O2        1.0  0.54200  0.90400  0.24200  1.0000
  O   O3        1.0  0.25200  0.22000  0.24200  1.0000
  O   O4        1.0  0.78000  0.74800  0.75800  1.0000
  O   O5        1.0  0.09560  0.45800  0.75800  1.0000
  O   O6        1.0  0.39200  0.06780  0.76600  1.0000
  Os  Os1       1.0  0.16700  0.83300  0.00000  1.0000
