data_image0
_chemical_formula_structural       Li4O6PrTa
_chemical_formula_sum              "Li4 O6 Pr1 Ta1"
_cell_length_a       5.61162
_cell_length_b       5.61162
_cell_length_c       5.20279
_cell_angle_alpha    99.0869
_cell_angle_beta     99.0869
_cell_angle_gamma    121.12

_space_group_name_H-M_alt    "P 1"
_space_group_IT_number       1

loop_
  _space_group_symop_operation_xyz
  'x, y, z'

loop_
  _atom_site_type_symbol
  _atom_site_label
  _atom_site_symmetry_multiplicity
  _atom_site_fract_x
  _atom_site_fract_y
  _atom_site_fract_z
  _atom_site_occupancy
  Li  Li1       1.0  0.50400  0.49600  0.00000  1.0000
  Li  Li2       1.0  0.03670  0.96300  0.50000  1.0000
  Li  Li3       1.0  0.63500  0.36500  0.50000  1.0000
  Li  Li4       1.0  0.32800  0.67200  0.50000  1.0000
  O   O1        1.0  0.92900  0.61000  0.23000  1.0000
  O   O2        1.0  0.52000  0.89200  0.23900  1.0000
  O   O3        1.0  0.25000  0.20500  0.24100  1.0000
  O   O4        1.0  0.79500  0.75000  0.75900  1.0000
  O   O5        1.0  0.10800  0.48000  0.76100  1.0000
  O   O6        1.0  0.39000  0.07100  0.77000  1.0000
  Pr  Pr1       1.0  0.83700  0.16300  0.00000  1.0000
  Ta  Ta1       1.0  0.16700  0.83300  0.00000  1.0000
