data_image0
_chemical_formula_structural       CrDyLi4O6
_chemical_formula_sum              "Cr1 Dy1 Li4 O6"
_cell_length_a       5.29883
_cell_length_b       5.29883
_cell_length_c       5.08713
_cell_angle_alpha    99.216
_cell_angle_beta     99.216
_cell_angle_gamma    120.598

_space_group_name_H-M_alt    "P 1"
_space_group_IT_number       1

loop_
  _space_group_symop_operation_xyz
  'x, y, z'

loop_
  _atom_site_type_symbol
  _atom_site_label
  _atom_site_symmetry_multiplicity
  _atom_site_fract_x
  _atom_site_fract_y
  _atom_site_fract_z
  _atom_site_occupancy
  Cr  Cr1       1.0  0.16900  0.83100  0.00000  1.0000
  Dy  Dy1       1.0  0.83900  0.16100  0.00000  1.0000
  Li  Li1       1.0  0.49700  0.50300  0.00000  1.0000
  Li  Li2       1.0  0.02510  0.97500  0.50000  1.0000
  Li  Li3       1.0  0.64800  0.35200  0.50000  1.0000
  Li  Li4       1.0  0.34600  0.65400  0.50000  1.0000
  O   O1        1.0  0.94000  0.62200  0.21600  1.0000
  O   O2        1.0  0.52800  0.90400  0.23700  1.0000
  O   O3        1.0  0.25100  0.21800  0.24700  1.0000
  O   O4        1.0  0.78200  0.74900  0.75300  1.0000
  O   O5        1.0  0.09610  0.47200  0.76300  1.0000
  O   O6        1.0  0.37800  0.06040  0.78400  1.0000
