data_image0
_chemical_formula_structural       Li4NbO6Y
_chemical_formula_sum              "Li4 Nb1 O6 Y1"
_cell_length_a       5.44086
_cell_length_b       5.44086
_cell_length_c       5.2171
_cell_angle_alpha    99.8832
_cell_angle_beta     99.8832
_cell_angle_gamma    120.08

_space_group_name_H-M_alt    "P 1"
_space_group_IT_number       1

loop_
  _space_group_symop_operation_xyz
  'x, y, z'

loop_
  _atom_site_type_symbol
  _atom_site_label
  _atom_site_symmetry_multiplicity
  _atom_site_fract_x
  _atom_site_fract_y
  _atom_site_fract_z
  _atom_site_occupancy
  Li  Li1       1.0  0.50100  0.49900  0.00000  1.0000
  Li  Li2       1.0  0.02110  0.97900  0.50000  1.0000
  Li  Li3       1.0  0.64500  0.35500  0.50000  1.0000
  Li  Li4       1.0  0.34000  0.66000  0.50000  1.0000
  Nb  Nb1       1.0  0.16900  0.83100  0.00000  1.0000
  O   O1        1.0  0.93300  0.60600  0.23200  1.0000
  O   O2        1.0  0.54600  0.91000  0.23900  1.0000
  O   O3        1.0  0.24600  0.22000  0.24200  1.0000
  O   O4        1.0  0.78000  0.75400  0.75800  1.0000
  O   O5        1.0  0.09030  0.45400  0.76100  1.0000
  O   O6        1.0  0.39400  0.06680  0.76800  1.0000
  Y   Y1        1.0  0.83400  0.16600  0.00000  1.0000
