data_image0
_chemical_formula_structural       CuLi4O6Re
_chemical_formula_sum              "Cu1 Li4 O6 Re1"
_cell_length_a       5.08046
_cell_length_b       5.08046
_cell_length_c       5.02753
_cell_angle_alpha    99.7805
_cell_angle_beta     99.7805
_cell_angle_gamma    120.1

_space_group_name_H-M_alt    "P 1"
_space_group_IT_number       1

loop_
  _space_group_symop_operation_xyz
  'x, y, z'

loop_
  _atom_site_type_symbol
  _atom_site_label
  _atom_site_symmetry_multiplicity
  _atom_site_fract_x
  _atom_site_fract_y
  _atom_site_fract_z
  _atom_site_occupancy
  Cu  Cu1       1.0  0.83200  0.16800  0.00000  1.0000
  Li  Li1       1.0  0.49900  0.50100  0.00000  1.0000
  Li  Li2       1.0  0.98900  0.01090  0.50000  1.0000
  Li  Li3       1.0  0.66800  0.33200  0.50000  1.0000
  Li  Li4       1.0  0.34500  0.65500  0.50000  1.0000
  O   O1        1.0  0.93500  0.61100  0.23400  1.0000
  O   O2        1.0  0.25600  0.22500  0.24000  1.0000
  O   O3        1.0  0.55000  0.90500  0.24100  1.0000
  O   O4        1.0  0.09540  0.45000  0.75900  1.0000
  O   O5        1.0  0.77500  0.74400  0.76000  1.0000
  O   O6        1.0  0.38900  0.06460  0.76600  1.0000
  Re  Re1       1.0  0.16600  0.83400  0.00000  1.0000
