data_image0
_chemical_formula_structural       CrLi4O6Tb
_chemical_formula_sum              "Cr1 Li4 O6 Tb1"
_cell_length_a       5.32613
_cell_length_b       5.32613
_cell_length_c       5.08907
_cell_angle_alpha    99.0547
_cell_angle_beta     99.0547
_cell_angle_gamma    120.813

_space_group_name_H-M_alt    "P 1"
_space_group_IT_number       1

loop_
  _space_group_symop_operation_xyz
  'x, y, z'

loop_
  _atom_site_type_symbol
  _atom_site_label
  _atom_site_symmetry_multiplicity
  _atom_site_fract_x
  _atom_site_fract_y
  _atom_site_fract_z
  _atom_site_occupancy
  Cr  Cr1       1.0  0.16900  0.83100  0.00000  1.0000
  Li  Li1       1.0  0.49800  0.50200  0.00000  1.0000
  Li  Li2       1.0  0.03110  0.96900  0.50000  1.0000
  Li  Li3       1.0  0.64800  0.35200  0.50000  1.0000
  Li  Li4       1.0  0.35900  0.64100  0.50000  1.0000
  O   O1        1.0  0.93300  0.62300  0.20900  1.0000
  O   O2        1.0  0.52200  0.90200  0.23600  1.0000
  O   O3        1.0  0.24900  0.22100  0.25100  1.0000
  O   O4        1.0  0.77900  0.75100  0.74900  1.0000
  O   O5        1.0  0.09770  0.47800  0.76400  1.0000
  O   O6        1.0  0.37700  0.06720  0.79100  1.0000
  Tb  Tb1       1.0  0.83900  0.16100  0.00000  1.0000
