data_image0
_chemical_formula_structural       Li4MnNbO6
_chemical_formula_sum              "Li4 Mn1 Nb1 O6"
_cell_length_a       5.13682
_cell_length_b       5.13682
_cell_length_c       5.07526
_cell_angle_alpha    99.1335
_cell_angle_beta     99.1335
_cell_angle_gamma    120.717

_space_group_name_H-M_alt    "P 1"
_space_group_IT_number       1

loop_
  _space_group_symop_operation_xyz
  'x, y, z'

loop_
  _atom_site_type_symbol
  _atom_site_label
  _atom_site_symmetry_multiplicity
  _atom_site_fract_x
  _atom_site_fract_y
  _atom_site_fract_z
  _atom_site_occupancy
  Li  Li1       1.0  0.49800  0.50200  0.00000  1.0000
  Li  Li2       1.0  0.99500  0.00533  0.50000  1.0000
  Li  Li3       1.0  0.66200  0.33800  0.50000  1.0000
  Li  Li4       1.0  0.34600  0.65400  0.50000  1.0000
  Mn  Mn1       1.0  0.83000  0.17000  0.00000  1.0000
  Nb  Nb1       1.0  0.15900  0.84100  0.00000  1.0000
  O   O1        1.0  0.58500  0.93200  0.22500  1.0000
  O   O2        1.0  0.24300  0.23400  0.24300  1.0000
  O   O3        1.0  0.93600  0.58900  0.24300  1.0000
  O   O4        1.0  0.41100  0.06450  0.75700  1.0000
  O   O5        1.0  0.76600  0.75700  0.75700  1.0000
  O   O6        1.0  0.06810  0.41500  0.77500  1.0000
