data_image0
_chemical_formula_structural       BiLi4O6U
_chemical_formula_sum              "Bi1 Li4 O6 U1"
_cell_length_a       5.65571
_cell_length_b       5.65571
_cell_length_c       5.33697
_cell_angle_alpha    99.6023
_cell_angle_beta     99.6023
_cell_angle_gamma    120.57

_space_group_name_H-M_alt    "P 1"
_space_group_IT_number       1

loop_
  _space_group_symop_operation_xyz
  'x, y, z'

loop_
  _atom_site_type_symbol
  _atom_site_label
  _atom_site_symmetry_multiplicity
  _atom_site_fract_x
  _atom_site_fract_y
  _atom_site_fract_z
  _atom_site_occupancy
  Bi  Bi1       1.0  0.83100  0.16900  0.00000  1.0000
  Li  Li1       1.0  0.50000  0.50000  0.00000  1.0000
  Li  Li2       1.0  0.00292  0.99700  0.50000  1.0000
  Li  Li3       1.0  0.64800  0.35200  0.50000  1.0000
  Li  Li4       1.0  0.37300  0.62700  0.50000  1.0000
  O   O1        1.0  0.90800  0.60300  0.23600  1.0000
  O   O2        1.0  0.55300  0.90000  0.25300  1.0000
  O   O3        1.0  0.25700  0.23600  0.25700  1.0000
  O   O4        1.0  0.76400  0.74300  0.74300  1.0000
  O   O5        1.0  0.10000  0.44700  0.74700  1.0000
  O   O6        1.0  0.39700  0.09200  0.76400  1.0000
  U   U1        1.0  0.16500  0.83500  0.00000  1.0000
