data_image0
_chemical_formula_structural       Li4MoO6Pa
_chemical_formula_sum              "Li4 Mo1 O6 Pa1"
_cell_length_a       5.36646
_cell_length_b       5.36646
_cell_length_c       5.26238
_cell_angle_alpha    99.253
_cell_angle_beta     99.253
_cell_angle_gamma    120.3

_space_group_name_H-M_alt    "P 1"
_space_group_IT_number       1

loop_
  _space_group_symop_operation_xyz
  'x, y, z'

loop_
  _atom_site_type_symbol
  _atom_site_label
  _atom_site_symmetry_multiplicity
  _atom_site_fract_x
  _atom_site_fract_y
  _atom_site_fract_z
  _atom_site_occupancy
  Li  Li1       1.0  0.50100  0.49900  0.00000  1.0000
  Li  Li2       1.0  0.97700  0.02280  0.50000  1.0000
  Li  Li3       1.0  0.65900  0.34100  0.50000  1.0000
  Li  Li4       1.0  0.35800  0.64200  0.50000  1.0000
  Mo  Mo1       1.0  0.83300  0.16700  0.00000  1.0000
  O   O1        1.0  0.59300  0.92000  0.24600  1.0000
  O   O2        1.0  0.90700  0.56300  0.24700  1.0000
  O   O3        1.0  0.24000  0.25300  0.24700  1.0000
  O   O4        1.0  0.74700  0.76000  0.75300  1.0000
  O   O5        1.0  0.43700  0.09340  0.75300  1.0000
  O   O6        1.0  0.08010  0.40700  0.75400  1.0000
  Pa  Pa1       1.0  0.16700  0.83300  0.00000  1.0000
