data_image0
_chemical_formula_structural       Li4MoNbO6
_chemical_formula_sum              "Li4 Mo1 Nb1 O6"
_cell_length_a       5.11171
_cell_length_b       5.11171
_cell_length_c       5.19853
_cell_angle_alpha    99.4278
_cell_angle_beta     99.4278
_cell_angle_gamma    120.019

_space_group_name_H-M_alt    "P 1"
_space_group_IT_number       1

loop_
  _space_group_symop_operation_xyz
  'x, y, z'

loop_
  _atom_site_type_symbol
  _atom_site_label
  _atom_site_symmetry_multiplicity
  _atom_site_fract_x
  _atom_site_fract_y
  _atom_site_fract_z
  _atom_site_occupancy
  Li  Li1       1.0  0.50000  0.50000  0.00000  1.0000
  Li  Li2       1.0  0.99800  0.00239  0.50000  1.0000
  Li  Li3       1.0  0.65800  0.34200  0.50000  1.0000
  Li  Li4       1.0  0.34400  0.65600  0.50000  1.0000
  Mo  Mo1       1.0  0.83300  0.16700  0.00000  1.0000
  Nb  Nb1       1.0  0.16800  0.83200  0.00000  1.0000
  O   O1        1.0  0.24800  0.24200  0.24100  1.0000
  O   O2        1.0  0.91900  0.58700  0.24200  1.0000
  O   O3        1.0  0.57500  0.91400  0.24300  1.0000
  O   O4        1.0  0.08590  0.42500  0.75700  1.0000
  O   O5        1.0  0.41300  0.08060  0.75800  1.0000
  O   O6        1.0  0.75800  0.75200  0.75900  1.0000
