data_image0
_chemical_formula_structural       CrLi4MoO6
_chemical_formula_sum              "Cr1 Li4 Mo1 O6"
_cell_length_a       5.07934
_cell_length_b       5.07934
_cell_length_c       5.05998
_cell_angle_alpha    99.6086
_cell_angle_beta     99.6086
_cell_angle_gamma    120.094

_space_group_name_H-M_alt    "P 1"
_space_group_IT_number       1

loop_
  _space_group_symop_operation_xyz
  'x, y, z'

loop_
  _atom_site_type_symbol
  _atom_site_label
  _atom_site_symmetry_multiplicity
  _atom_site_fract_x
  _atom_site_fract_y
  _atom_site_fract_z
  _atom_site_occupancy
  Cr  Cr1       1.0  0.16700  0.83300  0.00000  1.0000
  Li  Li1       1.0  0.50000  0.50000  0.00000  1.0000
  Li  Li2       1.0  0.65500  0.34500  0.50000  1.0000
  Li  Li3       1.0  0.34000  0.66000  0.50000  1.0000
  Li  Li4       1.0  0.00608  0.99400  0.50000  1.0000
  Mo  Mo1       1.0  0.83300  0.16700  0.00000  1.0000
  O   O1        1.0  0.58300  0.93000  0.23300  1.0000
  O   O2        1.0  0.92600  0.57700  0.23600  1.0000
  O   O3        1.0  0.23000  0.23200  0.23600  1.0000
  O   O4        1.0  0.76800  0.77000  0.76400  1.0000
  O   O5        1.0  0.42300  0.07420  0.76400  1.0000
  O   O6        1.0  0.07010  0.41700  0.76700  1.0000
