data_image0
_chemical_formula_structural       Li4NbO6Sc
_chemical_formula_sum              "Li4 Nb1 O6 Sc1"
_cell_length_a       5.24062
_cell_length_b       5.24062
_cell_length_c       5.17209
_cell_angle_alpha    99.9203
_cell_angle_beta     99.9203
_cell_angle_gamma    119.846

_space_group_name_H-M_alt    "P 1"
_space_group_IT_number       1

loop_
  _space_group_symop_operation_xyz
  'x, y, z'

loop_
  _atom_site_type_symbol
  _atom_site_label
  _atom_site_symmetry_multiplicity
  _atom_site_fract_x
  _atom_site_fract_y
  _atom_site_fract_z
  _atom_site_occupancy
  Li  Li1       1.0  0.50000  0.50000  0.00000  1.0000
  Li  Li2       1.0  0.00039  0.00000  0.50000  1.0000
  Li  Li3       1.0  0.65900  0.34100  0.50000  1.0000
  Li  Li4       1.0  0.34100  0.65900  0.50000  1.0000
  Nb  Nb1       1.0  0.16800  0.83200  0.00000  1.0000
  O   O1        1.0  0.93400  0.59000  0.23300  1.0000
  O   O2        1.0  0.56800  0.92300  0.23500  1.0000
  O   O3        1.0  0.23500  0.22500  0.23800  1.0000
  O   O4        1.0  0.77500  0.76500  0.76200  1.0000
  O   O5        1.0  0.07680  0.43200  0.76500  1.0000
  O   O6        1.0  0.41000  0.06640  0.76700  1.0000
  Sc  Sc1       1.0  0.83300  0.16700  0.00000  1.0000
