data_image0
_chemical_formula_structural       BiLi4O6Tc
_chemical_formula_sum              "Bi1 Li4 O6 Tc1"
_cell_length_a       5.4709
_cell_length_b       5.4709
_cell_length_c       5.17423
_cell_angle_alpha    99.5013
_cell_angle_beta     99.5013
_cell_angle_gamma    120.517

_space_group_name_H-M_alt    "P 1"
_space_group_IT_number       1

loop_
  _space_group_symop_operation_xyz
  'x, y, z'

loop_
  _atom_site_type_symbol
  _atom_site_label
  _atom_site_symmetry_multiplicity
  _atom_site_fract_x
  _atom_site_fract_y
  _atom_site_fract_z
  _atom_site_occupancy
  Bi  Bi1       1.0  0.83500  0.16500  0.00000  1.0000
  Li  Li1       1.0  0.50000  0.50000  0.00000  1.0000
  Li  Li2       1.0  0.02650  0.97300  0.50000  1.0000
  Li  Li3       1.0  0.64900  0.35100  0.50000  1.0000
  Li  Li4       1.0  0.33100  0.66900  0.50000  1.0000
  O   O1        1.0  0.93200  0.60800  0.23300  1.0000
  O   O2        1.0  0.53700  0.90200  0.23900  1.0000
  O   O3        1.0  0.25000  0.21700  0.24300  1.0000
  O   O4        1.0  0.78300  0.75000  0.75700  1.0000
  O   O5        1.0  0.09820  0.46300  0.76100  1.0000
  O   O6        1.0  0.39200  0.06780  0.76700  1.0000
  Tc  Tc1       1.0  0.16700  0.83300  0.00000  1.0000
