data_image0
_chemical_formula_structural       BiLi4O6Ta
_chemical_formula_sum              "Bi1 Li4 O6 Ta1"
_cell_length_a       5.53746
_cell_length_b       5.53746
_cell_length_c       5.24126
_cell_angle_alpha    99.6015
_cell_angle_beta     99.6015
_cell_angle_gamma    120.515

_space_group_name_H-M_alt    "P 1"
_space_group_IT_number       1

loop_
  _space_group_symop_operation_xyz
  'x, y, z'

loop_
  _atom_site_type_symbol
  _atom_site_label
  _atom_site_symmetry_multiplicity
  _atom_site_fract_x
  _atom_site_fract_y
  _atom_site_fract_z
  _atom_site_occupancy
  Bi  Bi1       1.0  0.83500  0.16500  0.00000  1.0000
  Li  Li1       1.0  0.50200  0.49800  0.00000  1.0000
  Li  Li2       1.0  0.02470  0.97500  0.50000  1.0000
  Li  Li3       1.0  0.64500  0.35500  0.50000  1.0000
  Li  Li4       1.0  0.33900  0.66100  0.50000  1.0000
  O   O1        1.0  0.93100  0.61700  0.23000  1.0000
  O   O2        1.0  0.52800  0.89500  0.24100  1.0000
  O   O3        1.0  0.25600  0.21500  0.24300  1.0000
  O   O4        1.0  0.78500  0.74400  0.75700  1.0000
  O   O5        1.0  0.10500  0.47200  0.75900  1.0000
  O   O6        1.0  0.38300  0.06930  0.77000  1.0000
  Ta  Ta1       1.0  0.16700  0.83300  0.00000  1.0000
