data_image0
_chemical_formula_structural       DyLi4O6V
_chemical_formula_sum              "Dy1 Li4 O6 V1"
_cell_length_a       5.33076
_cell_length_b       5.33076
_cell_length_c       5.10512
_cell_angle_alpha    99.3598
_cell_angle_beta     99.3598
_cell_angle_gamma    120.549

_space_group_name_H-M_alt    "P 1"
_space_group_IT_number       1

loop_
  _space_group_symop_operation_xyz
  'x, y, z'

loop_
  _atom_site_type_symbol
  _atom_site_label
  _atom_site_symmetry_multiplicity
  _atom_site_fract_x
  _atom_site_fract_y
  _atom_site_fract_z
  _atom_site_occupancy
  Dy  Dy1       1.0  0.83600  0.16400  0.00000  1.0000
  Li  Li1       1.0  0.50200  0.49800  0.00000  1.0000
  Li  Li2       1.0  0.02970  0.97000  0.50000  1.0000
  Li  Li3       1.0  0.64600  0.35400  0.50000  1.0000
  Li  Li4       1.0  0.32600  0.67400  0.50000  1.0000
  O   O1        1.0  0.93900  0.61200  0.22400  1.0000
  O   O2        1.0  0.52600  0.90300  0.23400  1.0000
  O   O3        1.0  0.24600  0.20600  0.23600  1.0000
  O   O4        1.0  0.79400  0.75400  0.76400  1.0000
  O   O5        1.0  0.09720  0.47400  0.76600  1.0000
  O   O6        1.0  0.38800  0.06140  0.77600  1.0000
  V   V1        1.0  0.16900  0.83100  0.00000  1.0000
