data_image0
_chemical_formula_structural       Li4O6RhTa
_chemical_formula_sum              "Li4 O6 Rh1 Ta1"
_cell_length_a       5.07839
_cell_length_b       5.07839
_cell_length_c       5.16284
_cell_angle_alpha    99.3937
_cell_angle_beta     99.3937
_cell_angle_gamma    120.04

_space_group_name_H-M_alt    "P 1"
_space_group_IT_number       1

loop_
  _space_group_symop_operation_xyz
  'x, y, z'

loop_
  _atom_site_type_symbol
  _atom_site_label
  _atom_site_symmetry_multiplicity
  _atom_site_fract_x
  _atom_site_fract_y
  _atom_site_fract_z
  _atom_site_occupancy
  Li  Li1       1.0  0.50100  0.49900  0.00000  1.0000
  Li  Li2       1.0  0.98900  0.01060  0.50000  1.0000
  Li  Li3       1.0  0.66300  0.33700  0.50000  1.0000
  Li  Li4       1.0  0.34700  0.65300  0.50000  1.0000
  O   O1        1.0  0.92400  0.59000  0.24000  1.0000
  O   O2        1.0  0.24500  0.23500  0.24000  1.0000
  O   O3        1.0  0.57000  0.91500  0.24100  1.0000
  O   O4        1.0  0.08520  0.43000  0.75900  1.0000
  O   O5        1.0  0.76500  0.75500  0.76000  1.0000
  O   O6        1.0  0.41000  0.07580  0.76000  1.0000
  Rh  Rh1       1.0  0.83300  0.16700  0.00000  1.0000
  Ta  Ta1       1.0  0.16700  0.83300  0.00000  1.0000
