data_image0
_chemical_formula_structural       BLi4O6Ta
_chemical_formula_sum              "B1 Li4 O6 Ta1"
_cell_length_a       5.13388
_cell_length_b       5.13388
_cell_length_c       4.95501
_cell_angle_alpha    98.2353
_cell_angle_beta     98.2353
_cell_angle_gamma    123.674

_space_group_name_H-M_alt    "P 1"
_space_group_IT_number       1

loop_
  _space_group_symop_operation_xyz
  'x, y, z'

loop_
  _atom_site_type_symbol
  _atom_site_label
  _atom_site_symmetry_multiplicity
  _atom_site_fract_x
  _atom_site_fract_y
  _atom_site_fract_z
  _atom_site_occupancy
  B   B1        1.0  0.77400  0.22600  0.00000  1.0000
  Li  Li1       1.0  0.48400  0.51600  0.00000  1.0000
  Li  Li2       1.0  0.96600  0.03430  0.50000  1.0000
  Li  Li3       1.0  0.67400  0.32600  0.50000  1.0000
  Li  Li4       1.0  0.36400  0.63600  0.50000  1.0000
  O   O1        1.0  0.63500  0.97100  0.16900  1.0000
  O   O2        1.0  0.91200  0.54000  0.22400  1.0000
  O   O3        1.0  0.26800  0.21600  0.27100  1.0000
  O   O4        1.0  0.78400  0.73200  0.72900  1.0000
  O   O5        1.0  0.46000  0.08840  0.77600  1.0000
  O   O6        1.0  0.02880  0.36500  0.83100  1.0000
  Ta  Ta1       1.0  0.15100  0.84900  0.00000  1.0000
