data_image0
_chemical_formula_structural       Li4MoO6Os
_chemical_formula_sum              "Li4 Mo1 O6 Os1"
_cell_length_a       4.88325
_cell_length_b       4.88325
_cell_length_c       5.25367
_cell_angle_alpha    98.8077
_cell_angle_beta     98.8077
_cell_angle_gamma    120.228

_space_group_name_H-M_alt    "P 1"
_space_group_IT_number       1

loop_
  _space_group_symop_operation_xyz
  'x, y, z'

loop_
  _atom_site_type_symbol
  _atom_site_label
  _atom_site_symmetry_multiplicity
  _atom_site_fract_x
  _atom_site_fract_y
  _atom_site_fract_z
  _atom_site_occupancy
  Li  Li1       1.0  0.50000  0.50000  0.00000  1.0000
  Li  Li2       1.0  0.00204  0.99800  0.50000  1.0000
  Li  Li3       1.0  0.65800  0.34200  0.50000  1.0000
  Li  Li4       1.0  0.34000  0.66000  0.50000  1.0000
  Mo  Mo1       1.0  0.83200  0.16800  0.00000  1.0000
  O   O1        1.0  0.25300  0.25800  0.24300  1.0000
  O   O2        1.0  0.90600  0.57700  0.24800  1.0000
  O   O3        1.0  0.58800  0.91100  0.24800  1.0000
  O   O4        1.0  0.08910  0.41200  0.75200  1.0000
  O   O5        1.0  0.42300  0.09390  0.75200  1.0000
  O   O6        1.0  0.74200  0.74700  0.75700  1.0000
  Os  Os1       1.0  0.16800  0.83200  0.00000  1.0000
