data_image0
_chemical_formula_structural       Li4NbO6Pr
_chemical_formula_sum              "Li4 Nb1 O6 Pr1"
_cell_length_a       5.60608
_cell_length_b       5.60608
_cell_length_c       5.20758
_cell_angle_alpha    99.2339
_cell_angle_beta     99.2339
_cell_angle_gamma    120.967

_space_group_name_H-M_alt    "P 1"
_space_group_IT_number       1

loop_
  _space_group_symop_operation_xyz
  'x, y, z'

loop_
  _atom_site_type_symbol
  _atom_site_label
  _atom_site_symmetry_multiplicity
  _atom_site_fract_x
  _atom_site_fract_y
  _atom_site_fract_z
  _atom_site_occupancy
  Li  Li1       1.0  0.50400  0.49600  0.00000  1.0000
  Li  Li2       1.0  0.03380  0.96600  0.50000  1.0000
  Li  Li3       1.0  0.63700  0.36300  0.50000  1.0000
  Li  Li4       1.0  0.33200  0.66800  0.50000  1.0000
  Nb  Nb1       1.0  0.16800  0.83200  0.00000  1.0000
  O   O1        1.0  0.92800  0.61100  0.23100  1.0000
  O   O2        1.0  0.52400  0.89400  0.24100  1.0000
  O   O3        1.0  0.25200  0.21000  0.24300  1.0000
  O   O4        1.0  0.79000  0.74800  0.75700  1.0000
  O   O5        1.0  0.10600  0.47600  0.75900  1.0000
  O   O6        1.0  0.38900  0.07180  0.76900  1.0000
  Pr  Pr1       1.0  0.83600  0.16400  0.00000  1.0000
