data_image0
_chemical_formula_structural       FeLi4NbO6
_chemical_formula_sum              "Fe1 Li4 Nb1 O6"
_cell_length_a       5.11425
_cell_length_b       5.11425
_cell_length_c       5.10463
_cell_angle_alpha    99.729
_cell_angle_beta     99.729
_cell_angle_gamma    119.877

_space_group_name_H-M_alt    "P 1"
_space_group_IT_number       1

loop_
  _space_group_symop_operation_xyz
  'x, y, z'

loop_
  _atom_site_type_symbol
  _atom_site_label
  _atom_site_symmetry_multiplicity
  _atom_site_fract_x
  _atom_site_fract_y
  _atom_site_fract_z
  _atom_site_occupancy
  Fe  Fe1       1.0  0.83300  0.16700  0.00000  1.0000
  Li  Li1       1.0  0.50100  0.49900  0.00000  1.0000
  Li  Li2       1.0  0.99300  0.00673  0.50000  1.0000
  Li  Li3       1.0  0.66100  0.33900  0.50000  1.0000
  Li  Li4       1.0  0.34500  0.65500  0.50000  1.0000
  Nb  Nb1       1.0  0.16800  0.83200  0.00000  1.0000
  O   O1        1.0  0.92800  0.58100  0.23500  1.0000
  O   O2        1.0  0.57700  0.92600  0.23600  1.0000
  O   O3        1.0  0.23200  0.23000  0.23800  1.0000
  O   O4        1.0  0.77000  0.76800  0.76200  1.0000
  O   O5        1.0  0.07390  0.42300  0.76400  1.0000
  O   O6        1.0  0.41900  0.07180  0.76500  1.0000
