data_image0
_chemical_formula_structural       CrLi4O6Pr
_chemical_formula_sum              "Cr1 Li4 O6 Pr1"
_cell_length_a       5.49285
_cell_length_b       5.49285
_cell_length_c       5.10577
_cell_angle_alpha    98.2391
_cell_angle_beta     98.2391
_cell_angle_gamma    122.287

_space_group_name_H-M_alt    "P 1"
_space_group_IT_number       1

loop_
  _space_group_symop_operation_xyz
  'x, y, z'

loop_
  _atom_site_type_symbol
  _atom_site_label
  _atom_site_symmetry_multiplicity
  _atom_site_fract_x
  _atom_site_fract_y
  _atom_site_fract_z
  _atom_site_occupancy
  Cr  Cr1       1.0  0.16700  0.83300  0.00000  1.0000
  Li  Li1       1.0  0.49900  0.50100  0.00000  1.0000
  Li  Li2       1.0  0.04990  0.95000  0.50000  1.0000
  Li  Li3       1.0  0.64400  0.35600  0.50000  1.0000
  Li  Li4       1.0  0.38300  0.61700  0.50000  1.0000
  O   O1        1.0  0.91100  0.62700  0.19000  1.0000
  O   O2        1.0  0.49400  0.89200  0.24000  1.0000
  O   O3        1.0  0.25100  0.22200  0.26600  1.0000
  O   O4        1.0  0.77800  0.74900  0.73400  1.0000
  O   O5        1.0  0.10800  0.50600  0.76000  1.0000
  O   O6        1.0  0.37300  0.08940  0.81000  1.0000
  Pr  Pr1       1.0  0.84300  0.15700  0.00000  1.0000
