data_image0
_chemical_formula_structural       AsLi4MoO6
_chemical_formula_sum              "As1 Li4 Mo1 O6"
_cell_length_a       5.22485
_cell_length_b       5.22485
_cell_length_c       5.09575
_cell_angle_alpha    100.045
_cell_angle_beta     100.045
_cell_angle_gamma    119.864

_space_group_name_H-M_alt    "P 1"
_space_group_IT_number       1

loop_
  _space_group_symop_operation_xyz
  'x, y, z'

loop_
  _atom_site_type_symbol
  _atom_site_label
  _atom_site_symmetry_multiplicity
  _atom_site_fract_x
  _atom_site_fract_y
  _atom_site_fract_z
  _atom_site_occupancy
  As  As1       1.0  0.16800  0.83200  0.00000  1.0000
  Li  Li1       1.0  0.50000  0.50000  0.00000  1.0000
  Li  Li2       1.0  0.00129  0.99900  0.50000  1.0000
  Li  Li3       1.0  0.66000  0.34000  0.50000  1.0000
  Li  Li4       1.0  0.33900  0.66100  0.50000  1.0000
  Mo  Mo1       1.0  0.83300  0.16700  0.00000  1.0000
  O   O1        1.0  0.58300  0.92900  0.23100  1.0000
  O   O2        1.0  0.92400  0.57300  0.23300  1.0000
  O   O3        1.0  0.22800  0.23400  0.23700  1.0000
  O   O4        1.0  0.76600  0.77200  0.76300  1.0000
  O   O5        1.0  0.42700  0.07620  0.76700  1.0000
  O   O6        1.0  0.07130  0.41700  0.76900  1.0000
