data_image0
_chemical_formula_structural       Li4O6PrV
_chemical_formula_sum              "Li4 O6 Pr1 V1"
_cell_length_a       5.53008
_cell_length_b       5.53008
_cell_length_c       5.11788
_cell_angle_alpha    98.8066
_cell_angle_beta     98.8066
_cell_angle_gamma    121.814

_space_group_name_H-M_alt    "P 1"
_space_group_IT_number       1

loop_
  _space_group_symop_operation_xyz
  'x, y, z'

loop_
  _atom_site_type_symbol
  _atom_site_label
  _atom_site_symmetry_multiplicity
  _atom_site_fract_x
  _atom_site_fract_y
  _atom_site_fract_z
  _atom_site_occupancy
  Li  Li1       1.0  0.50900  0.49100  0.00000  1.0000
  Li  Li2       1.0  0.03960  0.96000  0.50000  1.0000
  Li  Li3       1.0  0.63800  0.36200  0.50000  1.0000
  Li  Li4       1.0  0.29900  0.70100  0.50000  1.0000
  O   O1        1.0  0.93500  0.61500  0.22500  1.0000
  O   O2        1.0  0.25400  0.19000  0.23300  1.0000
  O   O3        1.0  0.50700  0.88600  0.23500  1.0000
  O   O4        1.0  0.11400  0.49300  0.76500  1.0000
  O   O5        1.0  0.81000  0.74600  0.76700  1.0000
  O   O6        1.0  0.38500  0.06520  0.77500  1.0000
  Pr  Pr1       1.0  0.84100  0.15900  0.00000  1.0000
  V   V1        1.0  0.16900  0.83100  0.00000  1.0000
