data_image0
_chemical_formula_structural       Li4NbO6Pa
_chemical_formula_sum              "Li4 Nb1 O6 Pa1"
_cell_length_a       5.40667
_cell_length_b       5.40667
_cell_length_c       5.26821
_cell_angle_alpha    99.2953
_cell_angle_beta     99.2953
_cell_angle_gamma    119.824

_space_group_name_H-M_alt    "P 1"
_space_group_IT_number       1

loop_
  _space_group_symop_operation_xyz
  'x, y, z'

loop_
  _atom_site_type_symbol
  _atom_site_label
  _atom_site_symmetry_multiplicity
  _atom_site_fract_x
  _atom_site_fract_y
  _atom_site_fract_z
  _atom_site_occupancy
  Li  Li1       1.0  0.50100  0.49900  0.00000  1.0000
  Li  Li2       1.0  0.97700  0.02250  0.50000  1.0000
  Li  Li3       1.0  0.64700  0.35300  0.50000  1.0000
  Li  Li4       1.0  0.35600  0.64400  0.50000  1.0000
  Nb  Nb1       1.0  0.83900  0.16100  0.00000  1.0000
  O   O1        1.0  0.59300  0.91600  0.23600  1.0000
  O   O2        1.0  0.91400  0.56300  0.24400  1.0000
  O   O3        1.0  0.24600  0.25800  0.25900  1.0000
  O   O4        1.0  0.74200  0.75400  0.74100  1.0000
  O   O5        1.0  0.43700  0.08650  0.75600  1.0000
  O   O6        1.0  0.08410  0.40700  0.76400  1.0000
  Pa  Pa1       1.0  0.16300  0.83700  0.00000  1.0000
