data_image0
_chemical_formula_structural       Li4NbO6Tc
_chemical_formula_sum              "Li4 Nb1 O6 Tc1"
_cell_length_a       5.05123
_cell_length_b       5.05123
_cell_length_c       5.19186
_cell_angle_alpha    99.4064
_cell_angle_beta     99.4064
_cell_angle_gamma    118.646

_space_group_name_H-M_alt    "P 1"
_space_group_IT_number       1

loop_
  _space_group_symop_operation_xyz
  'x, y, z'

loop_
  _atom_site_type_symbol
  _atom_site_label
  _atom_site_symmetry_multiplicity
  _atom_site_fract_x
  _atom_site_fract_y
  _atom_site_fract_z
  _atom_site_occupancy
  Li  Li1       1.0  0.50300  0.49700  0.00000  1.0000
  Li  Li2       1.0  0.00811  0.99200  0.50000  1.0000
  Li  Li3       1.0  0.65800  0.34200  0.50000  1.0000
  Li  Li4       1.0  0.33500  0.66500  0.50000  1.0000
  Nb  Nb1       1.0  0.85100  0.14900  0.00000  1.0000
  O   O1        1.0  0.58400  0.93000  0.23100  1.0000
  O   O2        1.0  0.92300  0.58100  0.23200  1.0000
  O   O3        1.0  0.25400  0.25600  0.26400  1.0000
  O   O4        1.0  0.74400  0.74600  0.73600  1.0000
  O   O5        1.0  0.41900  0.07700  0.76800  1.0000
  O   O6        1.0  0.07020  0.41600  0.76900  1.0000
  Tc  Tc1       1.0  0.15300  0.84700  0.00000  1.0000
