data_image0
_chemical_formula_structural       Li4NbO6Sb
_chemical_formula_sum              "Li4 Nb1 O6 Sb1"
_cell_length_a       5.44387
_cell_length_b       5.44387
_cell_length_c       5.20693
_cell_angle_alpha    100.041
_cell_angle_beta     100.041
_cell_angle_gamma    120.018

_space_group_name_H-M_alt    "P 1"
_space_group_IT_number       1

loop_
  _space_group_symop_operation_xyz
  'x, y, z'

loop_
  _atom_site_type_symbol
  _atom_site_label
  _atom_site_symmetry_multiplicity
  _atom_site_fract_x
  _atom_site_fract_y
  _atom_site_fract_z
  _atom_site_occupancy
  Li  Li1       1.0  0.50000  0.50000  0.00000  1.0000
  Li  Li2       1.0  0.99000  0.00960  0.50000  1.0000
  Li  Li3       1.0  0.65800  0.34200  0.50000  1.0000
  Li  Li4       1.0  0.34600  0.65400  0.50000  1.0000
  Nb  Nb1       1.0  0.83300  0.16700  0.00000  1.0000
  O   O1        1.0  0.60600  0.93100  0.23200  1.0000
  O   O2        1.0  0.90700  0.54900  0.23900  1.0000
  O   O3        1.0  0.22300  0.25100  0.24200  1.0000
  O   O4        1.0  0.74900  0.77700  0.75800  1.0000
  O   O5        1.0  0.45100  0.09330  0.76100  1.0000
  O   O6        1.0  0.06890  0.39400  0.76800  1.0000
  Sb  Sb1       1.0  0.16700  0.83300  0.00000  1.0000
