data_image0
_chemical_formula_structural       CrLi4MnO6
_chemical_formula_sum              "Cr1 Li4 Mn1 O6"
_cell_length_a       4.93757
_cell_length_b       4.93757
_cell_length_c       5.00628
_cell_angle_alpha    99.8607
_cell_angle_beta     99.8607
_cell_angle_gamma    119.568

_space_group_name_H-M_alt    "P 1"
_space_group_IT_number       1

loop_
  _space_group_symop_operation_xyz
  'x, y, z'

loop_
  _atom_site_type_symbol
  _atom_site_label
  _atom_site_symmetry_multiplicity
  _atom_site_fract_x
  _atom_site_fract_y
  _atom_site_fract_z
  _atom_site_occupancy
  Cr  Cr1       1.0  0.17000  0.83000  0.00000  1.0000
  Li  Li1       1.0  0.50200  0.49800  0.00000  1.0000
  Li  Li2       1.0  0.00130  0.99900  0.50000  1.0000
  Li  Li3       1.0  0.65800  0.34200  0.50000  1.0000
  Li  Li4       1.0  0.33900  0.66100  0.50000  1.0000
  Mn  Mn1       1.0  0.83200  0.16800  0.00000  1.0000
  O   O1        1.0  0.57600  0.93400  0.22600  1.0000
  O   O2        1.0  0.92800  0.57200  0.23100  1.0000
  O   O3        1.0  0.22100  0.22200  0.23100  1.0000
  O   O4        1.0  0.77800  0.77900  0.76900  1.0000
  O   O5        1.0  0.42800  0.07240  0.76900  1.0000
  O   O6        1.0  0.06590  0.42400  0.77400  1.0000
