data_image0
_chemical_formula_structural       Li4O6PrTc
_chemical_formula_sum              "Li4 O6 Pr1 Tc1"
_cell_length_a       5.51625
_cell_length_b       5.51625
_cell_length_c       5.19857
_cell_angle_alpha    99.0015
_cell_angle_beta     99.0015
_cell_angle_gamma    121.038

_space_group_name_H-M_alt    "P 1"
_space_group_IT_number       1

loop_
  _space_group_symop_operation_xyz
  'x, y, z'

loop_
  _atom_site_type_symbol
  _atom_site_label
  _atom_site_symmetry_multiplicity
  _atom_site_fract_x
  _atom_site_fract_y
  _atom_site_fract_z
  _atom_site_occupancy
  Li  Li1       1.0  0.50200  0.49800  0.00000  1.0000
  Li  Li2       1.0  0.03500  0.96500  0.50000  1.0000
  Li  Li3       1.0  0.64200  0.35800  0.50000  1.0000
  Li  Li4       1.0  0.33600  0.66400  0.50000  1.0000
  O   O1        1.0  0.92700  0.61600  0.22700  1.0000
  O   O2        1.0  0.52000  0.89300  0.24400  1.0000
  O   O3        1.0  0.25800  0.21500  0.24900  1.0000
  O   O4        1.0  0.78500  0.74200  0.75100  1.0000
  O   O5        1.0  0.10700  0.48000  0.75600  1.0000
  O   O6        1.0  0.38400  0.07280  0.77300  1.0000
  Pr  Pr1       1.0  0.83800  0.16200  0.00000  1.0000
  Tc  Tc1       1.0  0.16600  0.83400  0.00000  1.0000
