data_image0
_chemical_formula_structural       AsLi4NbO6
_chemical_formula_sum              "As1 Li4 Nb1 O6"
_cell_length_a       5.27855
_cell_length_b       5.27855
_cell_length_c       5.15535
_cell_angle_alpha    99.924
_cell_angle_beta     99.924
_cell_angle_gamma    120.258

_space_group_name_H-M_alt    "P 1"
_space_group_IT_number       1

loop_
  _space_group_symop_operation_xyz
  'x, y, z'

loop_
  _atom_site_type_symbol
  _atom_site_label
  _atom_site_symmetry_multiplicity
  _atom_site_fract_x
  _atom_site_fract_y
  _atom_site_fract_z
  _atom_site_occupancy
  As  As1       1.0  0.17500  0.82500  0.00000  1.0000
  Li  Li1       1.0  0.50300  0.49700  0.00000  1.0000
  Li  Li2       1.0  0.65000  0.35000  0.50000  1.0000
  Li  Li3       1.0  0.33900  0.66100  0.50000  1.0000
  Li  Li4       1.0  0.01070  0.98900  0.50000  1.0000
  Nb  Nb1       1.0  0.83600  0.16400  0.00000  1.0000
  O   O1        1.0  0.58000  0.92400  0.22900  1.0000
  O   O2        1.0  0.91800  0.56600  0.23700  1.0000
  O   O3        1.0  0.22400  0.24700  0.24400  1.0000
  O   O4        1.0  0.75300  0.77600  0.75600  1.0000
  O   O5        1.0  0.43400  0.08170  0.76300  1.0000
  O   O6        1.0  0.07570  0.42000  0.77100  1.0000
