data_image0
_chemical_formula_structural       DyLi4O6Pa
_chemical_formula_sum              "Dy1 Li4 O6 Pa1"
_cell_length_a       5.63685
_cell_length_b       5.63685
_cell_length_c       5.29088
_cell_angle_alpha    99.9028
_cell_angle_beta     99.9028
_cell_angle_gamma    120.127

_space_group_name_H-M_alt    "P 1"
_space_group_IT_number       1

loop_
  _space_group_symop_operation_xyz
  'x, y, z'

loop_
  _atom_site_type_symbol
  _atom_site_label
  _atom_site_symmetry_multiplicity
  _atom_site_fract_x
  _atom_site_fract_y
  _atom_site_fract_z
  _atom_site_occupancy
  Dy  Dy1       1.0  0.83300  0.16700  0.00000  1.0000
  Li  Li1       1.0  0.50200  0.49800  0.00000  1.0000
  Li  Li2       1.0  0.99200  0.00825  0.50000  1.0000
  Li  Li3       1.0  0.64300  0.35700  0.50000  1.0000
  Li  Li4       1.0  0.36600  0.63400  0.50000  1.0000
  O   O1        1.0  0.91500  0.58500  0.23600  1.0000
  O   O2        1.0  0.57400  0.91200  0.24400  1.0000
  O   O3        1.0  0.24300  0.23800  0.25200  1.0000
  O   O4        1.0  0.76200  0.75700  0.74800  1.0000
  O   O5        1.0  0.08760  0.42600  0.75600  1.0000
  O   O6        1.0  0.41500  0.08510  0.76400  1.0000
  Pa  Pa1       1.0  0.16800  0.83200  0.00000  1.0000
