data_image0
_chemical_formula_structural       Li4NiO6Ta
_chemical_formula_sum              "Li4 Ni1 O6 Ta1"
_cell_length_a       5.06525
_cell_length_b       5.06525
_cell_length_c       5.06493
_cell_angle_alpha    99.1288
_cell_angle_beta     99.1288
_cell_angle_gamma    120.563

_space_group_name_H-M_alt    "P 1"
_space_group_IT_number       1

loop_
  _space_group_symop_operation_xyz
  'x, y, z'

loop_
  _atom_site_type_symbol
  _atom_site_label
  _atom_site_symmetry_multiplicity
  _atom_site_fract_x
  _atom_site_fract_y
  _atom_site_fract_z
  _atom_site_occupancy
  Li  Li1       1.0  0.49900  0.50100  0.00000  1.0000
  Li  Li2       1.0  0.98700  0.01260  0.50000  1.0000
  Li  Li3       1.0  0.66400  0.33600  0.50000  1.0000
  Li  Li4       1.0  0.34800  0.65200  0.50000  1.0000
  Ni  Ni1       1.0  0.83100  0.16900  0.00000  1.0000
  O   O1        1.0  0.58800  0.93600  0.22300  1.0000
  O   O2        1.0  0.93500  0.58100  0.24000  1.0000
  O   O3        1.0  0.23700  0.23300  0.24100  1.0000
  O   O4        1.0  0.76700  0.76300  0.75900  1.0000
  O   O5        1.0  0.41900  0.06490  0.76000  1.0000
  O   O6        1.0  0.06400  0.41200  0.77700  1.0000
  Ta  Ta1       1.0  0.16000  0.84000  0.00000  1.0000
