data_image0
_chemical_formula_structural       Li4NbO6Os
_chemical_formula_sum              "Li4 Nb1 O6 Os1"
_cell_length_a       5.00173
_cell_length_b       5.00173
_cell_length_c       5.22154
_cell_angle_alpha    99.4907
_cell_angle_beta     99.4907
_cell_angle_gamma    118.043

_space_group_name_H-M_alt    "P 1"
_space_group_IT_number       1

loop_
  _space_group_symop_operation_xyz
  'x, y, z'

loop_
  _atom_site_type_symbol
  _atom_site_label
  _atom_site_symmetry_multiplicity
  _atom_site_fract_x
  _atom_site_fract_y
  _atom_site_fract_z
  _atom_site_occupancy
  Li  Li1       1.0  0.50300  0.49700  0.00000  1.0000
  Li  Li2       1.0  0.00984  0.99000  0.50000  1.0000
  Li  Li3       1.0  0.65900  0.34100  0.50000  1.0000
  Li  Li4       1.0  0.33300  0.66700  0.50000  1.0000
  Nb  Nb1       1.0  0.85300  0.14700  0.00000  1.0000
  O   O1        1.0  0.57700  0.92700  0.23100  1.0000
  O   O2        1.0  0.91900  0.58000  0.23300  1.0000
  O   O3        1.0  0.26000  0.26000  0.26700  1.0000
  O   O4        1.0  0.74000  0.74000  0.73300  1.0000
  O   O5        1.0  0.42000  0.08090  0.76700  1.0000
  O   O6        1.0  0.07270  0.42300  0.76900  1.0000
  Os  Os1       1.0  0.15200  0.84800  0.00000  1.0000
