data_image0
_chemical_formula_structural       Li4MnO6V
_chemical_formula_sum              "Li4 Mn1 O6 V1"
_cell_length_a       4.97434
_cell_length_b       4.97434
_cell_length_c       5.00849
_cell_angle_alpha    99.7763
_cell_angle_beta     99.7763
_cell_angle_gamma    119.838

_space_group_name_H-M_alt    "P 1"
_space_group_IT_number       1

loop_
  _space_group_symop_operation_xyz
  'x, y, z'

loop_
  _atom_site_type_symbol
  _atom_site_label
  _atom_site_symmetry_multiplicity
  _atom_site_fract_x
  _atom_site_fract_y
  _atom_site_fract_z
  _atom_site_occupancy
  Li  Li1       1.0  0.50100  0.49900  0.00000  1.0000
  Li  Li2       1.0  0.99900  0.00108  0.50000  1.0000
  Li  Li3       1.0  0.66000  0.34000  0.50000  1.0000
  Li  Li4       1.0  0.34000  0.66000  0.50000  1.0000
  Mn  Mn1       1.0  0.83200  0.16800  0.00000  1.0000
  O   O1        1.0  0.57900  0.93300  0.22600  1.0000
  O   O2        1.0  0.22000  0.22400  0.23100  1.0000
  O   O3        1.0  0.92900  0.57200  0.23100  1.0000
  O   O4        1.0  0.42800  0.07070  0.76900  1.0000
  O   O5        1.0  0.77600  0.78000  0.76900  1.0000
  O   O6        1.0  0.06710  0.42100  0.77400  1.0000
  V   V1        1.0  0.16800  0.83200  0.00000  1.0000
