data_image0
_chemical_formula_structural       BLi4O6Tc
_chemical_formula_sum              "B1 Li4 O6 Tc1"
_cell_length_a       5.0567
_cell_length_b       5.0567
_cell_length_c       4.94484
_cell_angle_alpha    99.3492
_cell_angle_beta     99.3492
_cell_angle_gamma    122.518

_space_group_name_H-M_alt    "P 1"
_space_group_IT_number       1

loop_
  _space_group_symop_operation_xyz
  'x, y, z'

loop_
  _atom_site_type_symbol
  _atom_site_label
  _atom_site_symmetry_multiplicity
  _atom_site_fract_x
  _atom_site_fract_y
  _atom_site_fract_z
  _atom_site_occupancy
  B   B1        1.0  0.76700  0.23300  0.00000  1.0000
  Li  Li1       1.0  0.48800  0.51200  0.00000  1.0000
  Li  Li2       1.0  0.98700  0.01330  0.50000  1.0000
  Li  Li3       1.0  0.68100  0.31900  0.50000  1.0000
  Li  Li4       1.0  0.35000  0.65000  0.50000  1.0000
  O   O1        1.0  0.63600  0.97500  0.16500  1.0000
  O   O2        1.0  0.90500  0.54800  0.22900  1.0000
  O   O3        1.0  0.27200  0.22000  0.26400  1.0000
  O   O4        1.0  0.78000  0.72800  0.73600  1.0000
  O   O5        1.0  0.45200  0.09540  0.77100  1.0000
  O   O6        1.0  0.02530  0.36400  0.83500  1.0000
  Tc  Tc1       1.0  0.15600  0.84400  0.00000  1.0000
