data_image0
_chemical_formula_structural       Li4O6TbV
_chemical_formula_sum              "Li4 O6 Tb1 V1"
_cell_length_a       5.34719
_cell_length_b       5.34719
_cell_length_c       5.11375
_cell_angle_alpha    99.3852
_cell_angle_beta     99.3852
_cell_angle_gamma    120.53

_space_group_name_H-M_alt    "P 1"
_space_group_IT_number       1

loop_
  _space_group_symop_operation_xyz
  'x, y, z'

loop_
  _atom_site_type_symbol
  _atom_site_label
  _atom_site_symmetry_multiplicity
  _atom_site_fract_x
  _atom_site_fract_y
  _atom_site_fract_z
  _atom_site_occupancy
  Li  Li1       1.0  0.50200  0.49800  0.00000  1.0000
  Li  Li2       1.0  0.03090  0.96900  0.50000  1.0000
  Li  Li3       1.0  0.64600  0.35400  0.50000  1.0000
  Li  Li4       1.0  0.32600  0.67400  0.50000  1.0000
  O   O1        1.0  0.93900  0.61400  0.22400  1.0000
  O   O2        1.0  0.52500  0.90200  0.23500  1.0000
  O   O3        1.0  0.24700  0.20500  0.23700  1.0000
  O   O4        1.0  0.79500  0.75300  0.76300  1.0000
  O   O5        1.0  0.09800  0.47500  0.76500  1.0000
  O   O6        1.0  0.38600  0.06110  0.77600  1.0000
  Tb  Tb1       1.0  0.83700  0.16300  0.00000  1.0000
  V   V1        1.0  0.16900  0.83100  0.00000  1.0000
