data_image0
_chemical_formula_structural       GaLi4NbO6
_chemical_formula_sum              "Ga1 Li4 Nb1 O6"
_cell_length_a       5.13454
_cell_length_b       5.13454
_cell_length_c       5.13673
_cell_angle_alpha    99.7039
_cell_angle_beta     99.7039
_cell_angle_gamma    119.905

_space_group_name_H-M_alt    "P 1"
_space_group_IT_number       1

loop_
  _space_group_symop_operation_xyz
  'x, y, z'

loop_
  _atom_site_type_symbol
  _atom_site_label
  _atom_site_symmetry_multiplicity
  _atom_site_fract_x
  _atom_site_fract_y
  _atom_site_fract_z
  _atom_site_occupancy
  Ga  Ga1       1.0  0.83300  0.16700  0.00000  1.0000
  Li  Li1       1.0  0.50100  0.49900  0.00000  1.0000
  Li  Li2       1.0  0.99200  0.00750  0.50000  1.0000
  Li  Li3       1.0  0.66100  0.33900  0.50000  1.0000
  Li  Li4       1.0  0.34500  0.65500  0.50000  1.0000
  Nb  Nb1       1.0  0.16800  0.83200  0.00000  1.0000
  O   O1        1.0  0.93000  0.57800  0.23300  1.0000
  O   O2        1.0  0.57900  0.93000  0.23300  1.0000
  O   O3        1.0  0.22600  0.22700  0.23600  1.0000
  O   O4        1.0  0.77300  0.77400  0.76400  1.0000
  O   O5        1.0  0.06990  0.42100  0.76700  1.0000
  O   O6        1.0  0.42200  0.07020  0.76700  1.0000
