data_image0
_chemical_formula_structural       CeLi4O6Ta
_chemical_formula_sum              "Ce1 Li4 O6 Ta1"
_cell_length_a       5.66287
_cell_length_b       5.66287
_cell_length_c       5.21775
_cell_angle_alpha    98.9944
_cell_angle_beta     98.9944
_cell_angle_gamma    121.515

_space_group_name_H-M_alt    "P 1"
_space_group_IT_number       1

loop_
  _space_group_symop_operation_xyz
  'x, y, z'

loop_
  _atom_site_type_symbol
  _atom_site_label
  _atom_site_symmetry_multiplicity
  _atom_site_fract_x
  _atom_site_fract_y
  _atom_site_fract_z
  _atom_site_occupancy
  Ce  Ce1       1.0  0.84000  0.16000  0.00000  1.0000
  Li  Li1       1.0  0.50700  0.49300  0.00000  1.0000
  Li  Li2       1.0  0.03700  0.96300  0.50000  1.0000
  Li  Li3       1.0  0.63200  0.36800  0.50000  1.0000
  Li  Li4       1.0  0.30700  0.69300  0.50000  1.0000
  O   O1        1.0  0.93300  0.61100  0.23200  1.0000
  O   O2        1.0  0.25400  0.20000  0.23700  1.0000
  O   O3        1.0  0.51900  0.88900  0.24000  1.0000
  O   O4        1.0  0.11100  0.48100  0.76000  1.0000
  O   O5        1.0  0.80000  0.74600  0.76300  1.0000
  O   O6        1.0  0.38900  0.06720  0.76800  1.0000
  Ta  Ta1       1.0  0.16900  0.83100  0.00000  1.0000
