data_image0
_chemical_formula_structural       CeLi4O6V
_chemical_formula_sum              "Ce1 Li4 O6 V1"
_cell_length_a       5.5719
_cell_length_b       5.5719
_cell_length_c       5.12149
_cell_angle_alpha    98.7061
_cell_angle_beta     98.7061
_cell_angle_gamma    122.091

_space_group_name_H-M_alt    "P 1"
_space_group_IT_number       1

loop_
  _space_group_symop_operation_xyz
  'x, y, z'

loop_
  _atom_site_type_symbol
  _atom_site_label
  _atom_site_symmetry_multiplicity
  _atom_site_fract_x
  _atom_site_fract_y
  _atom_site_fract_z
  _atom_site_occupancy
  Ce  Ce1       1.0  0.84200  0.15800  0.00000  1.0000
  Li  Li1       1.0  0.51100  0.48900  0.00000  1.0000
  Li  Li2       1.0  0.04120  0.95900  0.50000  1.0000
  Li  Li3       1.0  0.63600  0.36400  0.50000  1.0000
  Li  Li4       1.0  0.29400  0.70600  0.50000  1.0000
  O   O1        1.0  0.93400  0.61500  0.22500  1.0000
  O   O2        1.0  0.25600  0.18800  0.23300  1.0000
  O   O3        1.0  0.50300  0.88300  0.23500  1.0000
  O   O4        1.0  0.11700  0.49700  0.76500  1.0000
  O   O5        1.0  0.81200  0.74400  0.76700  1.0000
  O   O6        1.0  0.38500  0.06620  0.77500  1.0000
  V   V1        1.0  0.16900  0.83100  0.00000  1.0000
