data_image0
_chemical_formula_structural       CuLi4NbO6
_chemical_formula_sum              "Cu1 Li4 Nb1 O6"
_cell_length_a       5.07538
_cell_length_b       5.07538
_cell_length_c       5.1009
_cell_angle_alpha    99.4908
_cell_angle_beta     99.4908
_cell_angle_gamma    120.018

_space_group_name_H-M_alt    "P 1"
_space_group_IT_number       1

loop_
  _space_group_symop_operation_xyz
  'x, y, z'

loop_
  _atom_site_type_symbol
  _atom_site_label
  _atom_site_symmetry_multiplicity
  _atom_site_fract_x
  _atom_site_fract_y
  _atom_site_fract_z
  _atom_site_occupancy
  Cu  Cu1       1.0  0.83300  0.16700  0.00000  1.0000
  Li  Li1       1.0  0.50100  0.49900  0.00000  1.0000
  Li  Li2       1.0  0.98500  0.01450  0.50000  1.0000
  Li  Li3       1.0  0.66500  0.33500  0.50000  1.0000
  Li  Li4       1.0  0.34600  0.65400  0.50000  1.0000
  Nb  Nb1       1.0  0.16700  0.83300  0.00000  1.0000
  O   O1        1.0  0.58000  0.92700  0.23500  1.0000
  O   O2        1.0  0.92800  0.57700  0.23600  1.0000
  O   O3        1.0  0.23100  0.23100  0.23900  1.0000
  O   O4        1.0  0.76900  0.76900  0.76100  1.0000
  O   O5        1.0  0.42300  0.07240  0.76400  1.0000
  O   O6        1.0  0.07290  0.42000  0.76500  1.0000
