data_image0
_chemical_formula_structural       Li4NiO6Pd
_chemical_formula_sum              "Li4 Ni1 O6 Pd1"
_cell_length_a       4.9802
_cell_length_b       4.9802
_cell_length_c       4.99704
_cell_angle_alpha    99.6786
_cell_angle_beta     99.6786
_cell_angle_gamma    119.941

_space_group_name_H-M_alt    "P 1"
_space_group_IT_number       1

loop_
  _space_group_symop_operation_xyz
  'x, y, z'

loop_
  _atom_site_type_symbol
  _atom_site_label
  _atom_site_symmetry_multiplicity
  _atom_site_fract_x
  _atom_site_fract_y
  _atom_site_fract_z
  _atom_site_occupancy
  Li  Li1       1.0  0.50000  0.50000  0.00000  1.0000
  Li  Li2       1.0  0.99700  0.00337  0.50000  1.0000
  Li  Li3       1.0  0.66400  0.33600  0.50000  1.0000
  Li  Li4       1.0  0.33900  0.66100  0.50000  1.0000
  Ni  Ni1       1.0  0.83300  0.16700  0.00000  1.0000
  O   O1        1.0  0.59700  0.93700  0.22800  1.0000
  O   O2        1.0  0.91800  0.55700  0.23100  1.0000
  O   O3        1.0  0.21800  0.23800  0.23300  1.0000
  O   O4        1.0  0.76200  0.78200  0.76700  1.0000
  O   O5        1.0  0.44300  0.08200  0.76900  1.0000
  O   O6        1.0  0.06270  0.40300  0.77200  1.0000
  Pd  Pd1       1.0  0.16700  0.83300  0.00000  1.0000
