data_image0
_chemical_formula_structural       GaLi4O6U
_chemical_formula_sum              "Ga1 Li4 O6 U1"
_cell_length_a       5.30861
_cell_length_b       5.30861
_cell_length_c       5.20272
_cell_angle_alpha    99.2384
_cell_angle_beta     99.2384
_cell_angle_gamma    120.42

_space_group_name_H-M_alt    "P 1"
_space_group_IT_number       1

loop_
  _space_group_symop_operation_xyz
  'x, y, z'

loop_
  _atom_site_type_symbol
  _atom_site_label
  _atom_site_symmetry_multiplicity
  _atom_site_fract_x
  _atom_site_fract_y
  _atom_site_fract_z
  _atom_site_occupancy
  Ga  Ga1       1.0  0.83300  0.16700  0.00000  1.0000
  Li  Li1       1.0  0.50000  0.50000  0.00000  1.0000
  Li  Li2       1.0  0.97400  0.02560  0.50000  1.0000
  Li  Li3       1.0  0.66500  0.33500  0.50000  1.0000
  Li  Li4       1.0  0.35600  0.64400  0.50000  1.0000
  O   O1        1.0  0.59700  0.92900  0.23700  1.0000
  O   O2        1.0  0.91100  0.55600  0.23900  1.0000
  O   O3        1.0  0.22700  0.24500  0.24100  1.0000
  O   O4        1.0  0.75500  0.77300  0.75900  1.0000
  O   O5        1.0  0.44400  0.08880  0.76100  1.0000
  O   O6        1.0  0.07080  0.40300  0.76300  1.0000
  U   U1        1.0  0.16700  0.83300  0.00000  1.0000
