data_image0
_chemical_formula_structural       ErLi4O6Pa
_chemical_formula_sum              "Er1 Li4 O6 Pa1"
_cell_length_a       5.60854
_cell_length_b       5.60854
_cell_length_c       5.29713
_cell_angle_alpha    100.014
_cell_angle_beta     100.014
_cell_angle_gamma    119.964

_space_group_name_H-M_alt    "P 1"
_space_group_IT_number       1

loop_
  _space_group_symop_operation_xyz
  'x, y, z'

loop_
  _atom_site_type_symbol
  _atom_site_label
  _atom_site_symmetry_multiplicity
  _atom_site_fract_x
  _atom_site_fract_y
  _atom_site_fract_z
  _atom_site_occupancy
  Er  Er1       1.0  0.83300  0.16700  0.00000  1.0000
  Li  Li1       1.0  0.50100  0.49900  0.00000  1.0000
  Li  Li2       1.0  0.99000  0.01050  0.50000  1.0000
  Li  Li3       1.0  0.64600  0.35400  0.50000  1.0000
  Li  Li4       1.0  0.36400  0.63600  0.50000  1.0000
  O   O1        1.0  0.91800  0.58300  0.23700  1.0000
  O   O2        1.0  0.57800  0.91700  0.24300  1.0000
  O   O3        1.0  0.24300  0.24000  0.24800  1.0000
  O   O4        1.0  0.76000  0.75700  0.75200  1.0000
  O   O5        1.0  0.08350  0.42200  0.75700  1.0000
  O   O6        1.0  0.41700  0.08180  0.76300  1.0000
  Pa  Pa1       1.0  0.16800  0.83200  0.00000  1.0000
