data_image0
_chemical_formula_structural       Li4O6ScU
_chemical_formula_sum              "Li4 O6 Sc1 U1"
_cell_length_a       5.43405
_cell_length_b       5.43405
_cell_length_c       5.21716
_cell_angle_alpha    99.8021
_cell_angle_beta     99.8021
_cell_angle_gamma    120.056

_space_group_name_H-M_alt    "P 1"
_space_group_IT_number       1

loop_
  _space_group_symop_operation_xyz
  'x, y, z'

loop_
  _atom_site_type_symbol
  _atom_site_label
  _atom_site_symmetry_multiplicity
  _atom_site_fract_x
  _atom_site_fract_y
  _atom_site_fract_z
  _atom_site_occupancy
  Li  Li1       1.0  0.50000  0.50000  0.00000  1.0000
  Li  Li2       1.0  0.98200  0.01770  0.50000  1.0000
  Li  Li3       1.0  0.65800  0.34200  0.50000  1.0000
  Li  Li4       1.0  0.35600  0.64400  0.50000  1.0000
  O   O1        1.0  0.91900  0.57100  0.23800  1.0000
  O   O2        1.0  0.58800  0.92600  0.23900  1.0000
  O   O3        1.0  0.23300  0.24000  0.24400  1.0000
  O   O4        1.0  0.76000  0.76700  0.75600  1.0000
  O   O5        1.0  0.07430  0.41200  0.76100  1.0000
  O   O6        1.0  0.42900  0.08100  0.76200  1.0000
  Sc  Sc1       1.0  0.83300  0.16700  0.00000  1.0000
  U   U1        1.0  0.16700  0.83300  0.00000  1.0000
