data_image0
_chemical_formula_structural       ErLi4NbO6
_chemical_formula_sum              "Er1 Li4 Nb1 O6"
_cell_length_a       5.39787
_cell_length_b       5.39787
_cell_length_c       5.20868
_cell_angle_alpha    99.9883
_cell_angle_beta     99.9883
_cell_angle_gamma    119.934

_space_group_name_H-M_alt    "P 1"
_space_group_IT_number       1

loop_
  _space_group_symop_operation_xyz
  'x, y, z'

loop_
  _atom_site_type_symbol
  _atom_site_label
  _atom_site_symmetry_multiplicity
  _atom_site_fract_x
  _atom_site_fract_y
  _atom_site_fract_z
  _atom_site_occupancy
  Er  Er1       1.0  0.83400  0.16600  0.00000  1.0000
  Li  Li1       1.0  0.50100  0.49900  0.00000  1.0000
  Li  Li2       1.0  0.01440  0.98600  0.50000  1.0000
  Li  Li3       1.0  0.65000  0.35000  0.50000  1.0000
  Li  Li4       1.0  0.34000  0.66000  0.50000  1.0000
  Nb  Nb1       1.0  0.16800  0.83200  0.00000  1.0000
  O   O1        1.0  0.93500  0.60400  0.23200  1.0000
  O   O2        1.0  0.55200  0.91300  0.23900  1.0000
  O   O3        1.0  0.24500  0.22100  0.24200  1.0000
  O   O4        1.0  0.77900  0.75500  0.75800  1.0000
  O   O5        1.0  0.08660  0.44800  0.76100  1.0000
  O   O6        1.0  0.39600  0.06530  0.76800  1.0000
