data_image0
_chemical_formula_structural       ErLi4O6V
_chemical_formula_sum              "Er1 Li4 O6 V1"
_cell_length_a       5.29783
_cell_length_b       5.29783
_cell_length_c       5.11423
_cell_angle_alpha    99.6082
_cell_angle_beta     99.6082
_cell_angle_gamma    120.326

_space_group_name_H-M_alt    "P 1"
_space_group_IT_number       1

loop_
  _space_group_symop_operation_xyz
  'x, y, z'

loop_
  _atom_site_type_symbol
  _atom_site_label
  _atom_site_symmetry_multiplicity
  _atom_site_fract_x
  _atom_site_fract_y
  _atom_site_fract_z
  _atom_site_occupancy
  Er  Er1       1.0  0.83600  0.16400  0.00000  1.0000
  Li  Li1       1.0  0.50100  0.49900  0.00000  1.0000
  Li  Li2       1.0  0.02750  0.97200  0.50000  1.0000
  Li  Li3       1.0  0.64800  0.35200  0.50000  1.0000
  Li  Li4       1.0  0.32900  0.67100  0.50000  1.0000
  O   O1        1.0  0.94100  0.61300  0.22400  1.0000
  O   O2        1.0  0.53200  0.90700  0.23400  1.0000
  O   O3        1.0  0.24500  0.20900  0.23700  1.0000
  O   O4        1.0  0.79100  0.75500  0.76300  1.0000
  O   O5        1.0  0.09310  0.46800  0.76600  1.0000
  O   O6        1.0  0.38700  0.05900  0.77600  1.0000
  V   V1        1.0  0.16900  0.83100  0.00000  1.0000
