data_image0
_chemical_formula_structural       CuLi4O6V
_chemical_formula_sum              "Cu1 Li4 O6 V1"
_cell_length_a       4.9584
_cell_length_b       4.9584
_cell_length_c       5.00243
_cell_angle_alpha    99.6762
_cell_angle_beta     99.6762
_cell_angle_gamma    119.903

_space_group_name_H-M_alt    "P 1"
_space_group_IT_number       1

loop_
  _space_group_symop_operation_xyz
  'x, y, z'

loop_
  _atom_site_type_symbol
  _atom_site_label
  _atom_site_symmetry_multiplicity
  _atom_site_fract_x
  _atom_site_fract_y
  _atom_site_fract_z
  _atom_site_occupancy
  Cu  Cu1       1.0  0.83300  0.16700  0.00000  1.0000
  Li  Li1       1.0  0.50000  0.50000  0.00000  1.0000
  Li  Li2       1.0  0.99700  0.00307  0.50000  1.0000
  Li  Li3       1.0  0.66200  0.33800  0.50000  1.0000
  Li  Li4       1.0  0.34100  0.65900  0.50000  1.0000
  O   O1        1.0  0.93800  0.59100  0.22800  1.0000
  O   O2        1.0  0.56400  0.92500  0.23100  1.0000
  O   O3        1.0  0.23000  0.21800  0.23300  1.0000
  O   O4        1.0  0.78200  0.77000  0.76700  1.0000
  O   O5        1.0  0.07540  0.43600  0.76900  1.0000
  O   O6        1.0  0.40900  0.06190  0.77200  1.0000
  V   V1        1.0  0.16800  0.83200  0.00000  1.0000
