data_image0
_chemical_formula_structural       AlLi4NbO6
_chemical_formula_sum              "Al1 Li4 Nb1 O6"
_cell_length_a       5.07361
_cell_length_b       5.07361
_cell_length_c       5.09678
_cell_angle_alpha    99.6378
_cell_angle_beta     99.6378
_cell_angle_gamma    119.947

_space_group_name_H-M_alt    "P 1"
_space_group_IT_number       1

loop_
  _space_group_symop_operation_xyz
  'x, y, z'

loop_
  _atom_site_type_symbol
  _atom_site_label
  _atom_site_symmetry_multiplicity
  _atom_site_fract_x
  _atom_site_fract_y
  _atom_site_fract_z
  _atom_site_occupancy
  Al  Al1       1.0  0.83300  0.16700  0.00000  1.0000
  Li  Li1       1.0  0.50100  0.49900  0.00000  1.0000
  Li  Li2       1.0  0.98900  0.01130  0.50000  1.0000
  Li  Li3       1.0  0.66200  0.33800  0.50000  1.0000
  Li  Li4       1.0  0.34600  0.65400  0.50000  1.0000
  Nb  Nb1       1.0  0.16700  0.83300  0.00000  1.0000
  O   O1        1.0  0.58900  0.93800  0.22600  1.0000
  O   O2        1.0  0.92700  0.56500  0.22900  1.0000
  O   O3        1.0  0.21600  0.22700  0.23100  1.0000
  O   O4        1.0  0.77300  0.78400  0.76900  1.0000
  O   O5        1.0  0.43500  0.07270  0.77100  1.0000
  O   O6        1.0  0.06210  0.41100  0.77400  1.0000
