data_image0
_chemical_formula_structural       AuLi4NbO6
_chemical_formula_sum              "Au1 Li4 Nb1 O6"
_cell_length_a       5.23304
_cell_length_b       5.23304
_cell_length_c       5.21335
_cell_angle_alpha    99.7851
_cell_angle_beta     99.7851
_cell_angle_gamma    119.939

_space_group_name_H-M_alt    "P 1"
_space_group_IT_number       1

loop_
  _space_group_symop_operation_xyz
  'x, y, z'

loop_
  _atom_site_type_symbol
  _atom_site_label
  _atom_site_symmetry_multiplicity
  _atom_site_fract_x
  _atom_site_fract_y
  _atom_site_fract_z
  _atom_site_occupancy
  Au  Au1       1.0  0.83300  0.16700  0.00000  1.0000
  Li  Li1       1.0  0.50100  0.49900  0.00000  1.0000
  Li  Li2       1.0  0.99200  0.00773  0.50000  1.0000
  Li  Li3       1.0  0.66400  0.33600  0.50000  1.0000
  Li  Li4       1.0  0.34900  0.65100  0.50000  1.0000
  Nb  Nb1       1.0  0.16700  0.83300  0.00000  1.0000
  O   O1        1.0  0.92900  0.61200  0.24300  1.0000
  O   O2        1.0  0.26200  0.23400  0.24700  1.0000
  O   O3        1.0  0.55300  0.90300  0.25100  1.0000
  O   O4        1.0  0.09680  0.44700  0.74900  1.0000
  O   O5        1.0  0.76600  0.73800  0.75300  1.0000
  O   O6        1.0  0.38800  0.07150  0.75700  1.0000
