data_image0
_chemical_formula_structural       Li4O6ScTa
_chemical_formula_sum              "Li4 O6 Sc1 Ta1"
_cell_length_a       5.24037
_cell_length_b       5.24037
_cell_length_c       5.155
_cell_angle_alpha    99.9462
_cell_angle_beta     99.9462
_cell_angle_gamma    119.821

_space_group_name_H-M_alt    "P 1"
_space_group_IT_number       1

loop_
  _space_group_symop_operation_xyz
  'x, y, z'

loop_
  _atom_site_type_symbol
  _atom_site_label
  _atom_site_symmetry_multiplicity
  _atom_site_fract_x
  _atom_site_fract_y
  _atom_site_fract_z
  _atom_site_occupancy
  Li  Li1       1.0  0.50000  0.50000  0.00000  1.0000
  Li  Li2       1.0  0.00061  0.99900  0.50000  1.0000
  Li  Li3       1.0  0.65800  0.34200  0.50000  1.0000
  Li  Li4       1.0  0.34200  0.65800  0.50000  1.0000
  O   O1        1.0  0.93400  0.59200  0.23200  1.0000
  O   O2        1.0  0.56600  0.92200  0.23500  1.0000
  O   O3        1.0  0.23500  0.22200  0.23800  1.0000
  O   O4        1.0  0.77800  0.76500  0.76200  1.0000
  O   O5        1.0  0.07760  0.43400  0.76500  1.0000
  O   O6        1.0  0.40800  0.06550  0.76800  1.0000
  Sc  Sc1       1.0  0.83300  0.16700  0.00000  1.0000
  Ta  Ta1       1.0  0.16800  0.83200  0.00000  1.0000
