data_image0
_chemical_formula_structural       CrInLi4O6
_chemical_formula_sum              "Cr1 In1 Li4 O6"
_cell_length_a       5.19596
_cell_length_b       5.19596
_cell_length_c       5.10946
_cell_angle_alpha    99.8669
_cell_angle_beta     99.8669
_cell_angle_gamma    119.984

_space_group_name_H-M_alt    "P 1"
_space_group_IT_number       1

loop_
  _space_group_symop_operation_xyz
  'x, y, z'

loop_
  _atom_site_type_symbol
  _atom_site_label
  _atom_site_symmetry_multiplicity
  _atom_site_fract_x
  _atom_site_fract_y
  _atom_site_fract_z
  _atom_site_occupancy
  Cr  Cr1       1.0  0.17100  0.82900  0.00000  1.0000
  In  In1       1.0  0.83600  0.16400  0.00000  1.0000
  Li  Li1       1.0  0.50400  0.49600  0.00000  1.0000
  Li  Li2       1.0  0.02040  0.98000  0.50000  1.0000
  Li  Li3       1.0  0.65200  0.34800  0.50000  1.0000
  Li  Li4       1.0  0.33200  0.66800  0.50000  1.0000
  O   O1        1.0  0.93800  0.60700  0.22600  1.0000
  O   O2        1.0  0.24300  0.21100  0.23700  1.0000
  O   O3        1.0  0.53500  0.91300  0.23800  1.0000
  O   O4        1.0  0.08680  0.46500  0.76200  1.0000
  O   O5        1.0  0.78900  0.75700  0.76300  1.0000
  O   O6        1.0  0.39300  0.06220  0.77400  1.0000
