data_image0
_chemical_formula_structural       GdLi4O6Tc
_chemical_formula_sum              "Gd1 Li4 O6 Tc1"
_cell_length_a       5.39115
_cell_length_b       5.39115
_cell_length_c       5.18473
_cell_angle_alpha    99.4723
_cell_angle_beta     99.4723
_cell_angle_gamma    120.387

_space_group_name_H-M_alt    "P 1"
_space_group_IT_number       1

loop_
  _space_group_symop_operation_xyz
  'x, y, z'

loop_
  _atom_site_type_symbol
  _atom_site_label
  _atom_site_symmetry_multiplicity
  _atom_site_fract_x
  _atom_site_fract_y
  _atom_site_fract_z
  _atom_site_occupancy
  Gd  Gd1       1.0  0.83600  0.16400  0.00000  1.0000
  Li  Li1       1.0  0.49900  0.50100  0.00000  1.0000
  Li  Li2       1.0  0.02460  0.97500  0.50000  1.0000
  Li  Li3       1.0  0.64800  0.35200  0.50000  1.0000
  Li  Li4       1.0  0.33900  0.66100  0.50000  1.0000
  O   O1        1.0  0.93400  0.61300  0.23200  1.0000
  O   O2        1.0  0.53700  0.90400  0.24200  1.0000
  O   O3        1.0  0.25300  0.22100  0.24600  1.0000
  O   O4        1.0  0.77900  0.74700  0.75400  1.0000
  O   O5        1.0  0.09650  0.46300  0.75800  1.0000
  O   O6        1.0  0.38700  0.06630  0.76800  1.0000
  Tc  Tc1       1.0  0.16600  0.83400  0.00000  1.0000
