data_image0
_chemical_formula_structural       InLi4O6U
_chemical_formula_sum              "In1 Li4 O6 U1"
_cell_length_a       5.43455
_cell_length_b       5.43455
_cell_length_c       5.29242
_cell_angle_alpha    99.476
_cell_angle_beta     99.476
_cell_angle_gamma    120.271

_space_group_name_H-M_alt    "P 1"
_space_group_IT_number       1

loop_
  _space_group_symop_operation_xyz
  'x, y, z'

loop_
  _atom_site_type_symbol
  _atom_site_label
  _atom_site_symmetry_multiplicity
  _atom_site_fract_x
  _atom_site_fract_y
  _atom_site_fract_z
  _atom_site_occupancy
  In  In1       1.0  0.83300  0.16700  0.00000  1.0000
  Li  Li1       1.0  0.50100  0.49900  0.00000  1.0000
  Li  Li2       1.0  0.98600  0.01420  0.50000  1.0000
  Li  Li3       1.0  0.65500  0.34500  0.50000  1.0000
  Li  Li4       1.0  0.35900  0.64100  0.50000  1.0000
  O   O1        1.0  0.91600  0.58300  0.24400  1.0000
  O   O2        1.0  0.24700  0.24500  0.24900  1.0000
  O   O3        1.0  0.58100  0.91600  0.24900  1.0000
  O   O4        1.0  0.08370  0.41900  0.75100  1.0000
  O   O5        1.0  0.75500  0.75300  0.75100  1.0000
  O   O6        1.0  0.41700  0.08380  0.75600  1.0000
  U   U1        1.0  0.16800  0.83200  0.00000  1.0000
