data_image0
_chemical_formula_structural       GdLi4NbO6
_chemical_formula_sum              "Gd1 Li4 Nb1 O6"
_cell_length_a       5.47018
_cell_length_b       5.47018
_cell_length_c       5.21139
_cell_angle_alpha    99.7156
_cell_angle_beta     99.7156
_cell_angle_gamma    120.27

_space_group_name_H-M_alt    "P 1"
_space_group_IT_number       1

loop_
  _space_group_symop_operation_xyz
  'x, y, z'

loop_
  _atom_site_type_symbol
  _atom_site_label
  _atom_site_symmetry_multiplicity
  _atom_site_fract_x
  _atom_site_fract_y
  _atom_site_fract_z
  _atom_site_occupancy
  Gd  Gd1       1.0  0.83400  0.16600  0.00000  1.0000
  Li  Li1       1.0  0.50100  0.49900  0.00000  1.0000
  Li  Li2       1.0  0.02310  0.97700  0.50000  1.0000
  Li  Li3       1.0  0.64500  0.35500  0.50000  1.0000
  Li  Li4       1.0  0.33900  0.66100  0.50000  1.0000
  Nb  Nb1       1.0  0.16800  0.83200  0.00000  1.0000
  O   O1        1.0  0.93300  0.60800  0.23200  1.0000
  O   O2        1.0  0.54200  0.90700  0.24000  1.0000
  O   O3        1.0  0.24700  0.21800  0.24300  1.0000
  O   O4        1.0  0.78200  0.75300  0.75700  1.0000
  O   O5        1.0  0.09310  0.45800  0.76000  1.0000
  O   O6        1.0  0.39200  0.06660  0.76800  1.0000
