data_image0
_chemical_formula_structural       Li4O6SmU
_chemical_formula_sum              "Li4 O6 Sm1 U1"
_cell_length_a       5.66209
_cell_length_b       5.66209
_cell_length_c       5.29169
_cell_angle_alpha    99.7638
_cell_angle_beta     99.7638
_cell_angle_gamma    120.344

_space_group_name_H-M_alt    "P 1"
_space_group_IT_number       1

loop_
  _space_group_symop_operation_xyz
  'x, y, z'

loop_
  _atom_site_type_symbol
  _atom_site_label
  _atom_site_symmetry_multiplicity
  _atom_site_fract_x
  _atom_site_fract_y
  _atom_site_fract_z
  _atom_site_occupancy
  Li  Li1       1.0  0.50000  0.50000  0.00000  1.0000
  Li  Li2       1.0  0.00867  0.99100  0.50000  1.0000
  Li  Li3       1.0  0.63900  0.36100  0.50000  1.0000
  Li  Li4       1.0  0.36600  0.63400  0.50000  1.0000
  O   O1        1.0  0.91500  0.59800  0.23700  1.0000
  O   O2        1.0  0.55900  0.90400  0.24700  1.0000
  O   O3        1.0  0.24800  0.23400  0.25300  1.0000
  O   O4        1.0  0.76600  0.75200  0.74700  1.0000
  O   O5        1.0  0.09570  0.44100  0.75300  1.0000
  O   O6        1.0  0.40200  0.08450  0.76300  1.0000
  Sm  Sm1       1.0  0.83300  0.16700  0.00000  1.0000
  U   U1        1.0  0.16700  0.83300  0.00000  1.0000
