data_image0
_chemical_formula_structural       AuLi4O6Sb
_chemical_formula_sum              "Au1 Li4 O6 Sb1"
_cell_length_a       5.26362
_cell_length_b       5.26362
_cell_length_c       5.39596
_cell_angle_alpha    102.634
_cell_angle_beta     102.634
_cell_angle_gamma    116.303

_space_group_name_H-M_alt    "P 1"
_space_group_IT_number       1

loop_
  _space_group_symop_operation_xyz
  'x, y, z'

loop_
  _atom_site_type_symbol
  _atom_site_label
  _atom_site_symmetry_multiplicity
  _atom_site_fract_x
  _atom_site_fract_y
  _atom_site_fract_z
  _atom_site_occupancy
  Au  Au1       1.0  0.83600  0.16400  0.00000  1.0000
  Li  Li1       1.0  0.49900  0.50100  0.00000  1.0000
  Li  Li2       1.0  0.98000  0.02020  0.50000  1.0000
  Li  Li3       1.0  0.67300  0.32700  0.50000  1.0000
  Li  Li4       1.0  0.33600  0.66400  0.50000  1.0000
  O   O1        1.0  0.92400  0.59000  0.20500  1.0000
  O   O2        1.0  0.23000  0.21300  0.23800  1.0000
  O   O3        1.0  0.53300  0.88600  0.27800  1.0000
  O   O4        1.0  0.11400  0.46700  0.72200  1.0000
  O   O5        1.0  0.78700  0.77000  0.76200  1.0000
  O   O6        1.0  0.41000  0.07550  0.79500  1.0000
  Sb  Sb1       1.0  0.17900  0.82100  0.00000  1.0000
