data_image0
_chemical_formula_structural       AuBiLi4O6
_chemical_formula_sum              "Au1 Bi1 Li4 O6"
_cell_length_a       5.44888
_cell_length_b       5.44888
_cell_length_c       5.23896
_cell_angle_alpha    98.7484
_cell_angle_beta     98.7484
_cell_angle_gamma    121.063

_space_group_name_H-M_alt    "P 1"
_space_group_IT_number       1

loop_
  _space_group_symop_operation_xyz
  'x, y, z'

loop_
  _atom_site_type_symbol
  _atom_site_label
  _atom_site_symmetry_multiplicity
  _atom_site_fract_x
  _atom_site_fract_y
  _atom_site_fract_z
  _atom_site_occupancy
  Au  Au1       1.0  0.82900  0.17100  0.00000  1.0000
  Bi  Bi1       1.0  0.15800  0.84200  0.00000  1.0000
  Li  Li1       1.0  0.49900  0.50100  0.00000  1.0000
  Li  Li2       1.0  0.99600  0.00355  0.50000  1.0000
  Li  Li3       1.0  0.66000  0.34000  0.50000  1.0000
  Li  Li4       1.0  0.35000  0.65000  0.50000  1.0000
  O   O1        1.0  0.58400  0.92800  0.22800  1.0000
  O   O2        1.0  0.27200  0.24700  0.25700  1.0000
  O   O3        1.0  0.94100  0.61300  0.26400  1.0000
  O   O4        1.0  0.38700  0.05950  0.73600  1.0000
  O   O5        1.0  0.75300  0.72800  0.74300  1.0000
  O   O6        1.0  0.07160  0.41600  0.77200  1.0000
