data_image0
_chemical_formula_structural       Li4O6SmTc
_chemical_formula_sum              "Li4 O6 Sm1 Tc1"
_cell_length_a       5.43647
_cell_length_b       5.43647
_cell_length_c       5.18622
_cell_angle_alpha    99.2987
_cell_angle_beta     99.2987
_cell_angle_gamma    120.594

_space_group_name_H-M_alt    "P 1"
_space_group_IT_number       1

loop_
  _space_group_symop_operation_xyz
  'x, y, z'

loop_
  _atom_site_type_symbol
  _atom_site_label
  _atom_site_symmetry_multiplicity
  _atom_site_fract_x
  _atom_site_fract_y
  _atom_site_fract_z
  _atom_site_occupancy
  Li  Li1       1.0  0.50000  0.50000  0.00000  1.0000
  Li  Li2       1.0  0.02850  0.97200  0.50000  1.0000
  Li  Li3       1.0  0.64600  0.35400  0.50000  1.0000
  Li  Li4       1.0  0.33800  0.66200  0.50000  1.0000
  O   O1        1.0  0.93200  0.61400  0.23100  1.0000
  O   O2        1.0  0.53100  0.90000  0.24200  1.0000
  O   O3        1.0  0.25500  0.21900  0.24700  1.0000
  O   O4        1.0  0.78100  0.74500  0.75300  1.0000
  O   O5        1.0  0.10000  0.46900  0.75800  1.0000
  O   O6        1.0  0.38600  0.06830  0.76900  1.0000
  Sm  Sm1       1.0  0.83600  0.16400  0.00000  1.0000
  Tc  Tc1       1.0  0.16600  0.83400  0.00000  1.0000
