data_image0
_chemical_formula_structural       BLi4O6Pa
_chemical_formula_sum              "B1 Li4 O6 Pa1"
_cell_length_a       5.13324
_cell_length_b       5.13324
_cell_length_c       5.15782
_cell_angle_alpha    96.8216
_cell_angle_beta     96.8216
_cell_angle_gamma    119.768

_space_group_name_H-M_alt    "P 1"
_space_group_IT_number       1

loop_
  _space_group_symop_operation_xyz
  'x, y, z'

loop_
  _atom_site_type_symbol
  _atom_site_label
  _atom_site_symmetry_multiplicity
  _atom_site_fract_x
  _atom_site_fract_y
  _atom_site_fract_z
  _atom_site_occupancy
  B   B1        1.0  0.77900  0.22100  0.00000  1.0000
  Li  Li1       1.0  0.48600  0.51400  0.00000  1.0000
  Li  Li2       1.0  0.93700  0.06270  0.50000  1.0000
  Li  Li3       1.0  0.66400  0.33600  0.50000  1.0000
  Li  Li4       1.0  0.37400  0.62600  0.50000  1.0000
  O   O1        1.0  0.67400  0.95400  0.14200  1.0000
  O   O2        1.0  0.86900  0.50000  0.20600  1.0000
  O   O3        1.0  0.27900  0.22800  0.32500  1.0000
  O   O4        1.0  0.77200  0.72100  0.67500  1.0000
  O   O5        1.0  0.50000  0.13100  0.79400  1.0000
  O   O6        1.0  0.04640  0.32600  0.85800  1.0000
  Pa  Pa1       1.0  0.11900  0.88100  0.00000  1.0000
