data_image0
_chemical_formula_structural       GdLi4O6Pa
_chemical_formula_sum              "Gd1 Li4 O6 Pa1"
_cell_length_a       5.66784
_cell_length_b       5.66784
_cell_length_c       5.30849
_cell_angle_alpha    99.9707
_cell_angle_beta     99.9707
_cell_angle_gamma    120.092

_space_group_name_H-M_alt    "P 1"
_space_group_IT_number       1

loop_
  _space_group_symop_operation_xyz
  'x, y, z'

loop_
  _atom_site_type_symbol
  _atom_site_label
  _atom_site_symmetry_multiplicity
  _atom_site_fract_x
  _atom_site_fract_y
  _atom_site_fract_z
  _atom_site_occupancy
  Gd  Gd1       1.0  0.83200  0.16800  0.00000  1.0000
  Li  Li1       1.0  0.50100  0.49900  0.00000  1.0000
  Li  Li2       1.0  0.99700  0.00315  0.50000  1.0000
  Li  Li3       1.0  0.64100  0.35900  0.50000  1.0000
  Li  Li4       1.0  0.36600  0.63400  0.50000  1.0000
  O   O1        1.0  0.91700  0.59100  0.23700  1.0000
  O   O2        1.0  0.57100  0.91000  0.24500  1.0000
  O   O3        1.0  0.24700  0.23800  0.25100  1.0000
  O   O4        1.0  0.76200  0.75300  0.74900  1.0000
  O   O5        1.0  0.08950  0.42900  0.75500  1.0000
  O   O6        1.0  0.40900  0.08310  0.76300  1.0000
  Pa  Pa1       1.0  0.16800  0.83200  0.00000  1.0000
