data_image0
_chemical_formula_structural       CeLi4O6Tc
_chemical_formula_sum              "Ce1 Li4 O6 Tc1"
_cell_length_a       5.55227
_cell_length_b       5.55227
_cell_length_c       5.20389
_cell_angle_alpha    98.9314
_cell_angle_beta     98.9314
_cell_angle_gamma    121.147

_space_group_name_H-M_alt    "P 1"
_space_group_IT_number       1

loop_
  _space_group_symop_operation_xyz
  'x, y, z'

loop_
  _atom_site_type_symbol
  _atom_site_label
  _atom_site_symmetry_multiplicity
  _atom_site_fract_x
  _atom_site_fract_y
  _atom_site_fract_z
  _atom_site_occupancy
  Ce  Ce1       1.0  0.83900  0.16100  0.00000  1.0000
  Li  Li1       1.0  0.50300  0.49700  0.00000  1.0000
  Li  Li2       1.0  0.03790  0.96200  0.50000  1.0000
  Li  Li3       1.0  0.64000  0.36000  0.50000  1.0000
  Li  Li4       1.0  0.33500  0.66500  0.50000  1.0000
  O   O1        1.0  0.92600  0.61700  0.22600  1.0000
  O   O2        1.0  0.51600  0.89000  0.24400  1.0000
  O   O3        1.0  0.25900  0.21300  0.24900  1.0000
  O   O4        1.0  0.78700  0.74100  0.75100  1.0000
  O   O5        1.0  0.11000  0.48400  0.75600  1.0000
  O   O6        1.0  0.38300  0.07450  0.77400  1.0000
  Tc  Tc1       1.0  0.16600  0.83400  0.00000  1.0000
