data_image0
_chemical_formula_structural       ErLi4O6Os
_chemical_formula_sum              "Er1 Li4 O6 Os1"
_cell_length_a       5.32118
_cell_length_b       5.32118
_cell_length_c       5.20112
_cell_angle_alpha    99.4761
_cell_angle_beta     99.4761
_cell_angle_gamma    120.268

_space_group_name_H-M_alt    "P 1"
_space_group_IT_number       1

loop_
  _space_group_symop_operation_xyz
  'x, y, z'

loop_
  _atom_site_type_symbol
  _atom_site_label
  _atom_site_symmetry_multiplicity
  _atom_site_fract_x
  _atom_site_fract_y
  _atom_site_fract_z
  _atom_site_occupancy
  Er  Er1       1.0  0.83500  0.16500  0.00000  1.0000
  Li  Li1       1.0  0.50000  0.50000  0.00000  1.0000
  Li  Li2       1.0  0.02110  0.97900  0.50000  1.0000
  Li  Li3       1.0  0.65000  0.35000  0.50000  1.0000
  Li  Li4       1.0  0.33500  0.66500  0.50000  1.0000
  O   O1        1.0  0.93300  0.60700  0.23500  1.0000
  O   O2        1.0  0.54400  0.90600  0.24100  1.0000
  O   O3        1.0  0.24900  0.22100  0.24200  1.0000
  O   O4        1.0  0.77900  0.75100  0.75800  1.0000
  O   O5        1.0  0.09360  0.45600  0.75900  1.0000
  O   O6        1.0  0.39300  0.06740  0.76500  1.0000
  Os  Os1       1.0  0.16700  0.83300  0.00000  1.0000
