data_image0
_chemical_formula_structural       AuLi4O6Tc
_chemical_formula_sum              "Au1 Li4 O6 Tc1"
_cell_length_a       5.37118
_cell_length_b       5.37118
_cell_length_c       4.98806
_cell_angle_alpha    98.6803
_cell_angle_beta     98.6803
_cell_angle_gamma    122.623

_space_group_name_H-M_alt    "P 1"
_space_group_IT_number       1

loop_
  _space_group_symop_operation_xyz
  'x, y, z'

loop_
  _atom_site_type_symbol
  _atom_site_label
  _atom_site_symmetry_multiplicity
  _atom_site_fract_x
  _atom_site_fract_y
  _atom_site_fract_z
  _atom_site_occupancy
  Au  Au1       1.0  0.82500  0.17500  0.00000  1.0000
  Li  Li1       1.0  0.48400  0.51600  0.00000  1.0000
  Li  Li2       1.0  0.98400  0.01570  0.50000  1.0000
  Li  Li3       1.0  0.67500  0.32500  0.50000  1.0000
  Li  Li4       1.0  0.35300  0.64700  0.50000  1.0000
  O   O1        1.0  0.27400  0.22600  0.23200  1.0000
  O   O2        1.0  0.56500  0.91000  0.24600  1.0000
  O   O3        1.0  0.96500  0.64600  0.25500  1.0000
  O   O4        1.0  0.35400  0.03480  0.74500  1.0000
  O   O5        1.0  0.08970  0.43500  0.75400  1.0000
  O   O6        1.0  0.77400  0.72700  0.76800  1.0000
  Tc  Tc1       1.0  0.15800  0.84200  0.00000  1.0000
