data_image0
_chemical_formula_structural       InLi4NbO6
_chemical_formula_sum              "In1 Li4 Nb1 O6"
_cell_length_a       5.29589
_cell_length_b       5.29589
_cell_length_c       5.22122
_cell_angle_alpha    99.8733
_cell_angle_beta     99.8733
_cell_angle_gamma    119.868

_space_group_name_H-M_alt    "P 1"
_space_group_IT_number       1

loop_
  _space_group_symop_operation_xyz
  'x, y, z'

loop_
  _atom_site_type_symbol
  _atom_site_label
  _atom_site_symmetry_multiplicity
  _atom_site_fract_x
  _atom_site_fract_y
  _atom_site_fract_z
  _atom_site_occupancy
  In  In1       1.0  0.83400  0.16600  0.00000  1.0000
  Li  Li1       1.0  0.50100  0.49900  0.00000  1.0000
  Li  Li2       1.0  0.65500  0.34500  0.50000  1.0000
  Li  Li3       1.0  0.34400  0.65600  0.50000  1.0000
  Li  Li4       1.0  0.00419  0.99600  0.50000  1.0000
  Nb  Nb1       1.0  0.16900  0.83100  0.00000  1.0000
  O   O1        1.0  0.93200  0.60100  0.23500  1.0000
  O   O2        1.0  0.24500  0.22600  0.24200  1.0000
  O   O3        1.0  0.55800  0.91400  0.24300  1.0000
  O   O4        1.0  0.08560  0.44200  0.75700  1.0000
  O   O5        1.0  0.77400  0.75500  0.75800  1.0000
  O   O6        1.0  0.39900  0.06850  0.76500  1.0000
