data_image0
_chemical_formula_structural       Li4O6PaSc
_chemical_formula_sum              "Li4 O6 Pa1 Sc1"
_cell_length_a       5.48712
_cell_length_b       5.48712
_cell_length_c       5.23075
_cell_angle_alpha    99.6157
_cell_angle_beta     99.6157
_cell_angle_gamma    120.249

_space_group_name_H-M_alt    "P 1"
_space_group_IT_number       1

loop_
  _space_group_symop_operation_xyz
  'x, y, z'

loop_
  _atom_site_type_symbol
  _atom_site_label
  _atom_site_symmetry_multiplicity
  _atom_site_fract_x
  _atom_site_fract_y
  _atom_site_fract_z
  _atom_site_occupancy
  Li  Li1       1.0  0.50100  0.49900  0.00000  1.0000
  Li  Li2       1.0  0.97500  0.02530  0.50000  1.0000
  Li  Li3       1.0  0.65900  0.34100  0.50000  1.0000
  Li  Li4       1.0  0.36100  0.63900  0.50000  1.0000
  O   O1        1.0  0.91500  0.56400  0.23700  1.0000
  O   O2        1.0  0.59000  0.92600  0.23900  1.0000
  O   O3        1.0  0.23100  0.24100  0.24400  1.0000
  O   O4        1.0  0.75900  0.76900  0.75600  1.0000
  O   O5        1.0  0.07390  0.41000  0.76100  1.0000
  O   O6        1.0  0.43600  0.08450  0.76300  1.0000
  Pa  Pa1       1.0  0.16700  0.83300  0.00000  1.0000
  Sc  Sc1       1.0  0.83200  0.16800  0.00000  1.0000
