data_image0
_chemical_formula_structural       AuLi4O6Ta
_chemical_formula_sum              "Au1 Li4 O6 Ta1"
_cell_length_a       5.23442
_cell_length_b       5.23442
_cell_length_c       5.19905
_cell_angle_alpha    99.8012
_cell_angle_beta     99.8012
_cell_angle_gamma    119.95

_space_group_name_H-M_alt    "P 1"
_space_group_IT_number       1

loop_
  _space_group_symop_operation_xyz
  'x, y, z'

loop_
  _atom_site_type_symbol
  _atom_site_label
  _atom_site_symmetry_multiplicity
  _atom_site_fract_x
  _atom_site_fract_y
  _atom_site_fract_z
  _atom_site_occupancy
  Au  Au1       1.0  0.83200  0.16800  0.00000  1.0000
  Li  Li1       1.0  0.50100  0.49900  0.00000  1.0000
  Li  Li2       1.0  0.99100  0.00895  0.50000  1.0000
  Li  Li3       1.0  0.66500  0.33500  0.50000  1.0000
  Li  Li4       1.0  0.35100  0.64900  0.50000  1.0000
  O   O1        1.0  0.92900  0.61300  0.24000  1.0000
  O   O2        1.0  0.26100  0.23100  0.24600  1.0000
  O   O3        1.0  0.55000  0.90300  0.25000  1.0000
  O   O4        1.0  0.09720  0.45000  0.75000  1.0000
  O   O5        1.0  0.76900  0.73900  0.75400  1.0000
  O   O6        1.0  0.38700  0.07070  0.76000  1.0000
  Ta  Ta1       1.0  0.16700  0.83300  0.00000  1.0000
