data_image0
_chemical_formula_structural       Li4O6OsSc
_chemical_formula_sum              "Li4 O6 Os1 Sc1"
_cell_length_a       5.16889
_cell_length_b       5.16889
_cell_length_c       5.15312
_cell_angle_alpha    99.7015
_cell_angle_beta     99.7015
_cell_angle_gamma    119.912

_space_group_name_H-M_alt    "P 1"
_space_group_IT_number       1

loop_
  _space_group_symop_operation_xyz
  'x, y, z'

loop_
  _atom_site_type_symbol
  _atom_site_label
  _atom_site_symmetry_multiplicity
  _atom_site_fract_x
  _atom_site_fract_y
  _atom_site_fract_z
  _atom_site_occupancy
  Li  Li1       1.0  0.50000  0.50000  0.00000  1.0000
  Li  Li2       1.0  0.00582  0.99400  0.50000  1.0000
  Li  Li3       1.0  0.65700  0.34300  0.50000  1.0000
  Li  Li4       1.0  0.34000  0.66000  0.50000  1.0000
  O   O1        1.0  0.93100  0.59400  0.23400  1.0000
  O   O2        1.0  0.56400  0.91800  0.23800  1.0000
  O   O3        1.0  0.24100  0.22700  0.23900  1.0000
  O   O4        1.0  0.77300  0.75900  0.76100  1.0000
  O   O5        1.0  0.08220  0.43600  0.76200  1.0000
  O   O6        1.0  0.40600  0.06890  0.76600  1.0000
  Os  Os1       1.0  0.16700  0.83300  0.00000  1.0000
  Sc  Sc1       1.0  0.83300  0.16700  0.00000  1.0000
