data_image0
_chemical_formula_structural       Li4NiO6Pb
_chemical_formula_sum              "Li4 Ni1 O6 Pb1"
_cell_length_a       5.21952
_cell_length_b       5.21952
_cell_length_c       5.12404
_cell_angle_alpha    99.3122
_cell_angle_beta     99.3122
_cell_angle_gamma    120.437

_space_group_name_H-M_alt    "P 1"
_space_group_IT_number       1

loop_
  _space_group_symop_operation_xyz
  'x, y, z'

loop_
  _atom_site_type_symbol
  _atom_site_label
  _atom_site_symmetry_multiplicity
  _atom_site_fract_x
  _atom_site_fract_y
  _atom_site_fract_z
  _atom_site_occupancy
  Li  Li1       1.0  0.50000  0.50000  0.00000  1.0000
  Li  Li2       1.0  0.97200  0.02750  0.50000  1.0000
  Li  Li3       1.0  0.68100  0.31900  0.50000  1.0000
  Li  Li4       1.0  0.34600  0.65400  0.50000  1.0000
  Ni  Ni1       1.0  0.83300  0.16700  0.00000  1.0000
  O   O1        1.0  0.61100  0.94000  0.22500  1.0000
  O   O2        1.0  0.90600  0.53200  0.23600  1.0000
  O   O3        1.0  0.20400  0.24500  0.23700  1.0000
  O   O4        1.0  0.75500  0.79600  0.76300  1.0000
  O   O5        1.0  0.46800  0.09390  0.76400  1.0000
  O   O6        1.0  0.05960  0.38900  0.77500  1.0000
  Pb  Pb1       1.0  0.16400  0.83600  0.00000  1.0000
