data_image0
_chemical_formula_structural       CrLi4O6Sc
_chemical_formula_sum              "Cr1 Li4 O6 Sc1"
_cell_length_a       5.10347
_cell_length_b       5.10347
_cell_length_c       5.05301
_cell_angle_alpha    99.5079
_cell_angle_beta     99.5079
_cell_angle_gamma    120.272

_space_group_name_H-M_alt    "P 1"
_space_group_IT_number       1

loop_
  _space_group_symop_operation_xyz
  'x, y, z'

loop_
  _atom_site_type_symbol
  _atom_site_label
  _atom_site_symmetry_multiplicity
  _atom_site_fract_x
  _atom_site_fract_y
  _atom_site_fract_z
  _atom_site_occupancy
  Cr  Cr1       1.0  0.16800  0.83200  0.00000  1.0000
  Li  Li1       1.0  0.49700  0.50300  0.00000  1.0000
  Li  Li2       1.0  0.00702  0.99300  0.50000  1.0000
  Li  Li3       1.0  0.65600  0.34400  0.50000  1.0000
  Li  Li4       1.0  0.34100  0.65900  0.50000  1.0000
  O   O1        1.0  0.94500  0.60900  0.22100  1.0000
  O   O2        1.0  0.55400  0.91800  0.23500  1.0000
  O   O3        1.0  0.24100  0.22000  0.23800  1.0000
  O   O4        1.0  0.78000  0.75900  0.76200  1.0000
  O   O5        1.0  0.08190  0.44600  0.76500  1.0000
  O   O6        1.0  0.39100  0.05520  0.77900  1.0000
  Sc  Sc1       1.0  0.83800  0.16200  0.00000  1.0000
