data_image0
_chemical_formula_structural       CrLi4NbO6
_chemical_formula_sum              "Cr1 Li4 Nb1 O6"
_cell_length_a       5.10238
_cell_length_b       5.10238
_cell_length_c       5.10049
_cell_angle_alpha    99.6177
_cell_angle_beta     99.6177
_cell_angle_gamma    119.967

_space_group_name_H-M_alt    "P 1"
_space_group_IT_number       1

loop_
  _space_group_symop_operation_xyz
  'x, y, z'

loop_
  _atom_site_type_symbol
  _atom_site_label
  _atom_site_symmetry_multiplicity
  _atom_site_fract_x
  _atom_site_fract_y
  _atom_site_fract_z
  _atom_site_occupancy
  Cr  Cr1       1.0  0.16700  0.83300  0.00000  1.0000
  Li  Li1       1.0  0.49900  0.50100  0.00000  1.0000
  Li  Li2       1.0  0.00867  0.99100  0.50000  1.0000
  Li  Li3       1.0  0.65400  0.34600  0.50000  1.0000
  Li  Li4       1.0  0.33900  0.66100  0.50000  1.0000
  Nb  Nb1       1.0  0.83300  0.16700  0.00000  1.0000
  O   O1        1.0  0.57900  0.92700  0.23500  1.0000
  O   O2        1.0  0.92700  0.57900  0.23500  1.0000
  O   O3        1.0  0.23100  0.23100  0.23800  1.0000
  O   O4        1.0  0.76900  0.76900  0.76200  1.0000
  O   O5        1.0  0.42100  0.07330  0.76500  1.0000
  O   O6        1.0  0.07280  0.42100  0.76500  1.0000
