data_image0
_chemical_formula_structural       CrGdLi4O6
_chemical_formula_sum              "Cr1 Gd1 Li4 O6"
_cell_length_a       5.34373
_cell_length_b       5.34373
_cell_length_c       5.09988
_cell_angle_alpha    99.0318
_cell_angle_beta     99.0318
_cell_angle_gamma    120.817

_space_group_name_H-M_alt    "P 1"
_space_group_IT_number       1

loop_
  _space_group_symop_operation_xyz
  'x, y, z'

loop_
  _atom_site_type_symbol
  _atom_site_label
  _atom_site_symmetry_multiplicity
  _atom_site_fract_x
  _atom_site_fract_y
  _atom_site_fract_z
  _atom_site_occupancy
  Cr  Cr1       1.0  0.16900  0.83100  0.00000  1.0000
  Gd  Gd1       1.0  0.83900  0.16100  0.00000  1.0000
  Li  Li1       1.0  0.49800  0.50200  0.00000  1.0000
  Li  Li2       1.0  0.03180  0.96800  0.50000  1.0000
  Li  Li3       1.0  0.64600  0.35400  0.50000  1.0000
  Li  Li4       1.0  0.35800  0.64200  0.50000  1.0000
  O   O1        1.0  0.93300  0.62400  0.20800  1.0000
  O   O2        1.0  0.52000  0.90100  0.23700  1.0000
  O   O3        1.0  0.25000  0.22100  0.25200  1.0000
  O   O4        1.0  0.77900  0.75000  0.74800  1.0000
  O   O5        1.0  0.09900  0.48000  0.76300  1.0000
  O   O6        1.0  0.37600  0.06660  0.79200  1.0000
