data_image0
_chemical_formula_structural       CuLi4O6Tc
_chemical_formula_sum              "Cu1 Li4 O6 Tc1"
_cell_length_a       5.09936
_cell_length_b       5.09936
_cell_length_c       4.96989
_cell_angle_alpha    98.8702
_cell_angle_beta     98.8702
_cell_angle_gamma    121.383

_space_group_name_H-M_alt    "P 1"
_space_group_IT_number       1

loop_
  _space_group_symop_operation_xyz
  'x, y, z'

loop_
  _atom_site_type_symbol
  _atom_site_label
  _atom_site_symmetry_multiplicity
  _atom_site_fract_x
  _atom_site_fract_y
  _atom_site_fract_z
  _atom_site_occupancy
  Cu  Cu1       1.0  0.83200  0.16800  0.00000  1.0000
  Li  Li1       1.0  0.49200  0.50800  0.00000  1.0000
  Li  Li2       1.0  0.98500  0.01480  0.50000  1.0000
  Li  Li3       1.0  0.67000  0.33000  0.50000  1.0000
  Li  Li4       1.0  0.34900  0.65100  0.50000  1.0000
  O   O1        1.0  0.57400  0.92300  0.23300  1.0000
  O   O2        1.0  0.25100  0.22900  0.23900  1.0000
  O   O3        1.0  0.94600  0.60700  0.24000  1.0000
  O   O4        1.0  0.39300  0.05420  0.76000  1.0000
  O   O5        1.0  0.77100  0.74900  0.76100  1.0000
  O   O6        1.0  0.07650  0.42600  0.76700  1.0000
  Tc  Tc1       1.0  0.16000  0.84000  0.00000  1.0000
