data_image0
_chemical_formula_structural       CeLi4O6Sb
_chemical_formula_sum              "Ce1 Li4 O6 Sb1"
_cell_length_a       5.72223
_cell_length_b       5.72223
_cell_length_c       5.28448
_cell_angle_alpha    98.3079
_cell_angle_beta     98.3079
_cell_angle_gamma    122.321

_space_group_name_H-M_alt    "P 1"
_space_group_IT_number       1

loop_
  _space_group_symop_operation_xyz
  'x, y, z'

loop_
  _atom_site_type_symbol
  _atom_site_label
  _atom_site_symmetry_multiplicity
  _atom_site_fract_x
  _atom_site_fract_y
  _atom_site_fract_z
  _atom_site_occupancy
  Ce  Ce1       1.0  0.84100  0.15900  0.00000  1.0000
  Li  Li1       1.0  0.50900  0.49100  0.00000  1.0000
  Li  Li2       1.0  0.04270  0.95700  0.50000  1.0000
  Li  Li3       1.0  0.62700  0.37300  0.50000  1.0000
  Li  Li4       1.0  0.29700  0.70300  0.50000  1.0000
  O   O1        1.0  0.92800  0.60600  0.23300  1.0000
  O   O2        1.0  0.25200  0.19300  0.23600  1.0000
  O   O3        1.0  0.51300  0.88100  0.23800  1.0000
  O   O4        1.0  0.11900  0.48700  0.76200  1.0000
  O   O5        1.0  0.80700  0.74800  0.76400  1.0000
  O   O6        1.0  0.39400  0.07210  0.76700  1.0000
  Sb  Sb1       1.0  0.17000  0.83000  0.00000  1.0000
