data_image0
_chemical_formula_structural       Li4MoNiO6
_chemical_formula_sum              "Li4 Mo1 Ni1 O6"
_cell_length_a       5.04202
_cell_length_b       5.04202
_cell_length_c       5.05298
_cell_angle_alpha    99.6772
_cell_angle_beta     99.6772
_cell_angle_gamma    119.937

_space_group_name_H-M_alt    "P 1"
_space_group_IT_number       1

loop_
  _space_group_symop_operation_xyz
  'x, y, z'

loop_
  _atom_site_type_symbol
  _atom_site_label
  _atom_site_symmetry_multiplicity
  _atom_site_fract_x
  _atom_site_fract_y
  _atom_site_fract_z
  _atom_site_occupancy
  Li  Li1       1.0  0.50100  0.49900  0.00000  1.0000
  Li  Li2       1.0  0.99400  0.00618  0.50000  1.0000
  Li  Li3       1.0  0.66300  0.33700  0.50000  1.0000
  Li  Li4       1.0  0.34400  0.65600  0.50000  1.0000
  Mo  Mo1       1.0  0.16800  0.83200  0.00000  1.0000
  Ni  Ni1       1.0  0.83400  0.16600  0.00000  1.0000
  O   O1        1.0  0.93300  0.59500  0.23300  1.0000
  O   O2        1.0  0.24000  0.22500  0.23700  1.0000
  O   O3        1.0  0.56300  0.91700  0.23800  1.0000
  O   O4        1.0  0.08270  0.43700  0.76200  1.0000
  O   O5        1.0  0.77500  0.76000  0.76300  1.0000
  O   O6        1.0  0.40500  0.06720  0.76700  1.0000
