data_image0
_chemical_formula_structural       Li4O6ScTc
_chemical_formula_sum              "Li4 O6 Sc1 Tc1"
_cell_length_a       5.16998
_cell_length_b       5.16998
_cell_length_c       5.13577
_cell_angle_alpha    99.8
_cell_angle_beta     99.8
_cell_angle_gamma    119.916

_space_group_name_H-M_alt    "P 1"
_space_group_IT_number       1

loop_
  _space_group_symop_operation_xyz
  'x, y, z'

loop_
  _atom_site_type_symbol
  _atom_site_label
  _atom_site_symmetry_multiplicity
  _atom_site_fract_x
  _atom_site_fract_y
  _atom_site_fract_z
  _atom_site_occupancy
  Li  Li1       1.0  0.50000  0.50000  0.00000  1.0000
  Li  Li2       1.0  0.00336  0.99700  0.50000  1.0000
  Li  Li3       1.0  0.65800  0.34200  0.50000  1.0000
  Li  Li4       1.0  0.34000  0.66000  0.50000  1.0000
  O   O1        1.0  0.93300  0.59500  0.23300  1.0000
  O   O2        1.0  0.56500  0.91900  0.23800  1.0000
  O   O3        1.0  0.24000  0.22700  0.23900  1.0000
  O   O4        1.0  0.77300  0.76000  0.76100  1.0000
  O   O5        1.0  0.08070  0.43500  0.76200  1.0000
  O   O6        1.0  0.40500  0.06700  0.76700  1.0000
  Sc  Sc1       1.0  0.83400  0.16600  0.00000  1.0000
  Tc  Tc1       1.0  0.16700  0.83300  0.00000  1.0000
