data_image0
_chemical_formula_structural       BiCeLi4O6
_chemical_formula_sum              "Bi1 Ce1 Li4 O6"
_cell_length_a       5.74389
_cell_length_b       5.74389
_cell_length_c       5.36678
_cell_angle_alpha    98.533
_cell_angle_beta     98.533
_cell_angle_gamma    121.51

_space_group_name_H-M_alt    "P 1"
_space_group_IT_number       1

loop_
  _space_group_symop_operation_xyz
  'x, y, z'

loop_
  _atom_site_type_symbol
  _atom_site_label
  _atom_site_symmetry_multiplicity
  _atom_site_fract_x
  _atom_site_fract_y
  _atom_site_fract_z
  _atom_site_occupancy
  Bi  Bi1       1.0  0.16900  0.83100  0.00000  1.0000
  Ce  Ce1       1.0  0.83700  0.16300  0.00000  1.0000
  Li  Li1       1.0  0.50200  0.49800  0.00000  1.0000
  Li  Li2       1.0  0.03880  0.96100  0.50000  1.0000
  Li  Li3       1.0  0.62500  0.37500  0.50000  1.0000
  Li  Li4       1.0  0.31900  0.68100  0.50000  1.0000
  O   O1        1.0  0.92000  0.60100  0.24200  1.0000
  O   O2        1.0  0.52900  0.87900  0.24400  1.0000
  O   O3        1.0  0.25200  0.21200  0.24700  1.0000
  O   O4        1.0  0.78800  0.74800  0.75300  1.0000
  O   O5        1.0  0.12100  0.47100  0.75600  1.0000
  O   O6        1.0  0.39900  0.08030  0.75800  1.0000
