data_image0
_chemical_formula_structural       CeLi4O6Pa
_chemical_formula_sum              "Ce1 Li4 O6 Pa1"
_cell_length_a       5.81537
_cell_length_b       5.81537
_cell_length_c       5.31036
_cell_angle_alpha    99.5022
_cell_angle_beta     99.5022
_cell_angle_gamma    120.966

_space_group_name_H-M_alt    "P 1"
_space_group_IT_number       1

loop_
  _space_group_symop_operation_xyz
  'x, y, z'

loop_
  _atom_site_type_symbol
  _atom_site_label
  _atom_site_symmetry_multiplicity
  _atom_site_fract_x
  _atom_site_fract_y
  _atom_site_fract_z
  _atom_site_occupancy
  Ce  Ce1       1.0  0.83200  0.16800  0.00000  1.0000
  Li  Li1       1.0  0.50100  0.49900  0.00000  1.0000
  Li  Li2       1.0  0.01600  0.98400  0.50000  1.0000
  Li  Li3       1.0  0.63300  0.36700  0.50000  1.0000
  Li  Li4       1.0  0.37700  0.62300  0.50000  1.0000
  O   O1        1.0  0.90500  0.60100  0.23400  1.0000
  O   O2        1.0  0.54700  0.89600  0.24900  1.0000
  O   O3        1.0  0.25200  0.23300  0.25700  1.0000
  O   O4        1.0  0.76700  0.74800  0.74300  1.0000
  O   O5        1.0  0.10400  0.45300  0.75100  1.0000
  O   O6        1.0  0.39900  0.09510  0.76600  1.0000
  Pa  Pa1       1.0  0.16600  0.83400  0.00000  1.0000
