data_image0
_chemical_formula_structural       InLi4O6Os
_chemical_formula_sum              "In1 Li4 O6 Os1"
_cell_length_a       5.27094
_cell_length_b       5.27094
_cell_length_c       5.17918
_cell_angle_alpha    99.8583
_cell_angle_beta     99.8583
_cell_angle_gamma    119.936

_space_group_name_H-M_alt    "P 1"
_space_group_IT_number       1

loop_
  _space_group_symop_operation_xyz
  'x, y, z'

loop_
  _atom_site_type_symbol
  _atom_site_label
  _atom_site_symmetry_multiplicity
  _atom_site_fract_x
  _atom_site_fract_y
  _atom_site_fract_z
  _atom_site_occupancy
  In  In1       1.0  0.83400  0.16600  0.00000  1.0000
  Li  Li1       1.0  0.50000  0.50000  0.00000  1.0000
  Li  Li2       1.0  0.01090  0.98900  0.50000  1.0000
  Li  Li3       1.0  0.65600  0.34400  0.50000  1.0000
  Li  Li4       1.0  0.33800  0.66200  0.50000  1.0000
  O   O1        1.0  0.93500  0.60400  0.23400  1.0000
  O   O2        1.0  0.55300  0.91300  0.24100  1.0000
  O   O3        1.0  0.24600  0.22200  0.24200  1.0000
  O   O4        1.0  0.77800  0.75400  0.75800  1.0000
  O   O5        1.0  0.08660  0.44700  0.75900  1.0000
  O   O6        1.0  0.39600  0.06530  0.76600  1.0000
  Os  Os1       1.0  0.16700  0.83300  0.00000  1.0000
