data_image0
_chemical_formula_structural       InLi4O6V
_chemical_formula_sum              "In1 Li4 O6 V1"
_cell_length_a       5.20724
_cell_length_b       5.20724
_cell_length_c       5.12254
_cell_angle_alpha    99.7732
_cell_angle_beta     99.7732
_cell_angle_gamma    120.061

_space_group_name_H-M_alt    "P 1"
_space_group_IT_number       1

loop_
  _space_group_symop_operation_xyz
  'x, y, z'

loop_
  _atom_site_type_symbol
  _atom_site_label
  _atom_site_symmetry_multiplicity
  _atom_site_fract_x
  _atom_site_fract_y
  _atom_site_fract_z
  _atom_site_occupancy
  In  In1       1.0  0.83500  0.16500  0.00000  1.0000
  Li  Li1       1.0  0.50100  0.49900  0.00000  1.0000
  Li  Li2       1.0  0.01680  0.98300  0.50000  1.0000
  Li  Li3       1.0  0.65400  0.34600  0.50000  1.0000
  Li  Li4       1.0  0.33500  0.66500  0.50000  1.0000
  O   O1        1.0  0.94100  0.61100  0.22600  1.0000
  O   O2        1.0  0.53900  0.91100  0.23700  1.0000
  O   O3        1.0  0.24300  0.21200  0.23800  1.0000
  O   O4        1.0  0.78800  0.75700  0.76200  1.0000
  O   O5        1.0  0.08880  0.46100  0.76300  1.0000
  O   O6        1.0  0.38900  0.05890  0.77400  1.0000
  V   V1        1.0  0.17000  0.83000  0.00000  1.0000
