data_image0
_chemical_formula_structural       CrErLi4O6
_chemical_formula_sum              "Cr1 Er1 Li4 O6"
_cell_length_a       5.26813
_cell_length_b       5.26813
_cell_length_c       5.08345
_cell_angle_alpha    99.3725
_cell_angle_beta     99.3725
_cell_angle_gamma    120.414

_space_group_name_H-M_alt    "P 1"
_space_group_IT_number       1

loop_
  _space_group_symop_operation_xyz
  'x, y, z'

loop_
  _atom_site_type_symbol
  _atom_site_label
  _atom_site_symmetry_multiplicity
  _atom_site_fract_x
  _atom_site_fract_y
  _atom_site_fract_z
  _atom_site_occupancy
  Cr  Cr1       1.0  0.16900  0.83100  0.00000  1.0000
  Er  Er1       1.0  0.83900  0.16100  0.00000  1.0000
  Li  Li1       1.0  0.49700  0.50300  0.00000  1.0000
  Li  Li2       1.0  0.02190  0.97800  0.50000  1.0000
  Li  Li3       1.0  0.65000  0.35000  0.50000  1.0000
  Li  Li4       1.0  0.34100  0.65900  0.50000  1.0000
  O   O1        1.0  0.94400  0.62100  0.21600  1.0000
  O   O2        1.0  0.53400  0.90400  0.23400  1.0000
  O   O3        1.0  0.24700  0.21800  0.24300  1.0000
  O   O4        1.0  0.78200  0.75300  0.75700  1.0000
  O   O5        1.0  0.09550  0.46600  0.76600  1.0000
  O   O6        1.0  0.37900  0.05560  0.78400  1.0000
