data_image0
_chemical_formula_structural       Li4O6SmV
_chemical_formula_sum              "Li4 O6 Sm1 V1"
_cell_length_a       5.4228
_cell_length_b       5.4228
_cell_length_c       5.11289
_cell_angle_alpha    99.2235
_cell_angle_beta     99.2235
_cell_angle_gamma    120.882

_space_group_name_H-M_alt    "P 1"
_space_group_IT_number       1

loop_
  _space_group_symop_operation_xyz
  'x, y, z'

loop_
  _atom_site_type_symbol
  _atom_site_label
  _atom_site_symmetry_multiplicity
  _atom_site_fract_x
  _atom_site_fract_y
  _atom_site_fract_z
  _atom_site_occupancy
  Li  Li1       1.0  0.50300  0.49700  0.00000  1.0000
  Li  Li2       1.0  0.03590  0.96400  0.50000  1.0000
  Li  Li3       1.0  0.64200  0.35800  0.50000  1.0000
  Li  Li4       1.0  0.32000  0.68000  0.50000  1.0000
  O   O1        1.0  0.93700  0.61600  0.22300  1.0000
  O   O2        1.0  0.51700  0.89600  0.23500  1.0000
  O   O3        1.0  0.25000  0.20100  0.23700  1.0000
  O   O4        1.0  0.79900  0.75000  0.76300  1.0000
  O   O5        1.0  0.10400  0.48300  0.76500  1.0000
  O   O6        1.0  0.38400  0.06250  0.77700  1.0000
  Sm  Sm1       1.0  0.83800  0.16200  0.00000  1.0000
  V   V1        1.0  0.16900  0.83100  0.00000  1.0000
