data_image0
_chemical_formula_structural       AuLi4O6V
_chemical_formula_sum              "Au1 Li4 O6 V1"
_cell_length_a       5.11408
_cell_length_b       5.11408
_cell_length_c       5.12599
_cell_angle_alpha    100.022
_cell_angle_beta     100.022
_cell_angle_gamma    119.296

_space_group_name_H-M_alt    "P 1"
_space_group_IT_number       1

loop_
  _space_group_symop_operation_xyz
  'x, y, z'

loop_
  _atom_site_type_symbol
  _atom_site_label
  _atom_site_symmetry_multiplicity
  _atom_site_fract_x
  _atom_site_fract_y
  _atom_site_fract_z
  _atom_site_occupancy
  Au  Au1       1.0  0.83300  0.16700  0.00000  1.0000
  Li  Li1       1.0  0.50200  0.49800  0.00000  1.0000
  Li  Li2       1.0  0.99900  0.00114  0.50000  1.0000
  Li  Li3       1.0  0.66000  0.34000  0.50000  1.0000
  Li  Li4       1.0  0.34000  0.66000  0.50000  1.0000
  O   O1        1.0  0.57100  0.92500  0.23400  1.0000
  O   O2        1.0  0.92400  0.58000  0.24100  1.0000
  O   O3        1.0  0.23900  0.23300  0.24300  1.0000
  O   O4        1.0  0.76700  0.76100  0.75700  1.0000
  O   O5        1.0  0.42000  0.07640  0.75900  1.0000
  O   O6        1.0  0.07530  0.42900  0.76600  1.0000
  V   V1        1.0  0.17000  0.83000  0.00000  1.0000
