data_image0
_chemical_formula_structural       ErLi4O6U
_chemical_formula_sum              "Er1 Li4 O6 U1"
_cell_length_a       5.55753
_cell_length_b       5.55753
_cell_length_c       5.2768
_cell_angle_alpha    100.04
_cell_angle_beta     100.04
_cell_angle_gamma    119.942

_space_group_name_H-M_alt    "P 1"
_space_group_IT_number       1

loop_
  _space_group_symop_operation_xyz
  'x, y, z'

loop_
  _atom_site_type_symbol
  _atom_site_label
  _atom_site_symmetry_multiplicity
  _atom_site_fract_x
  _atom_site_fract_y
  _atom_site_fract_z
  _atom_site_occupancy
  Er  Er1       1.0  0.83300  0.16700  0.00000  1.0000
  Li  Li1       1.0  0.50100  0.49900  0.00000  1.0000
  Li  Li2       1.0  0.99600  0.00388  0.50000  1.0000
  Li  Li3       1.0  0.64600  0.35400  0.50000  1.0000
  Li  Li4       1.0  0.36000  0.64000  0.50000  1.0000
  O   O1        1.0  0.92000  0.58800  0.23700  1.0000
  O   O2        1.0  0.57400  0.91500  0.24300  1.0000
  O   O3        1.0  0.24500  0.24000  0.24900  1.0000
  O   O4        1.0  0.76000  0.75500  0.75100  1.0000
  O   O5        1.0  0.08550  0.42600  0.75700  1.0000
  O   O6        1.0  0.41200  0.08040  0.76300  1.0000
  U   U1        1.0  0.16900  0.83100  0.00000  1.0000
