data_image0
_chemical_formula_structural       CeLi4O6Os
_chemical_formula_sum              "Ce1 Li4 O6 Os1"
_cell_length_a       5.56791
_cell_length_b       5.56791
_cell_length_c       5.2324
_cell_angle_alpha    98.7021
_cell_angle_beta     98.7021
_cell_angle_gamma    121.696

_space_group_name_H-M_alt    "P 1"
_space_group_IT_number       1

loop_
  _space_group_symop_operation_xyz
  'x, y, z'

loop_
  _atom_site_type_symbol
  _atom_site_label
  _atom_site_symmetry_multiplicity
  _atom_site_fract_x
  _atom_site_fract_y
  _atom_site_fract_z
  _atom_site_occupancy
  Ce  Ce1       1.0  0.84000  0.16000  0.00000  1.0000
  Li  Li1       1.0  0.50800  0.49200  0.00000  1.0000
  Li  Li2       1.0  0.03550  0.96400  0.50000  1.0000
  Li  Li3       1.0  0.63600  0.36400  0.50000  1.0000
  Li  Li4       1.0  0.30100  0.69900  0.50000  1.0000
  O   O1        1.0  0.92800  0.61200  0.23400  1.0000
  O   O2        1.0  0.26000  0.20100  0.24100  1.0000
  O   O3        1.0  0.51700  0.88100  0.24300  1.0000
  O   O4        1.0  0.11900  0.48300  0.75700  1.0000
  O   O5        1.0  0.79900  0.74000  0.75900  1.0000
  O   O6        1.0  0.38800  0.07190  0.76600  1.0000
  Os  Os1       1.0  0.17000  0.83000  0.00000  1.0000
