data_image0
_chemical_formula_structural       Li4NiO6Zr
_chemical_formula_sum              "Li4 Ni1 O6 Zr1"
_cell_length_a       5.10994
_cell_length_b       5.10994
_cell_length_c       5.09469
_cell_angle_alpha    99.3965
_cell_angle_beta     99.3965
_cell_angle_gamma    120.167

_space_group_name_H-M_alt    "P 1"
_space_group_IT_number       1

loop_
  _space_group_symop_operation_xyz
  'x, y, z'

loop_
  _atom_site_type_symbol
  _atom_site_label
  _atom_site_symmetry_multiplicity
  _atom_site_fract_x
  _atom_site_fract_y
  _atom_site_fract_z
  _atom_site_occupancy
  Li  Li1       1.0  0.50000  0.50000  0.00000  1.0000
  Li  Li2       1.0  0.97500  0.02500  0.50000  1.0000
  Li  Li3       1.0  0.67300  0.32700  0.50000  1.0000
  Li  Li4       1.0  0.34700  0.65300  0.50000  1.0000
  Ni  Ni1       1.0  0.83400  0.16600  0.00000  1.0000
  O   O1        1.0  0.60300  0.93900  0.22600  1.0000
  O   O2        1.0  0.91400  0.54500  0.23400  1.0000
  O   O3        1.0  0.21300  0.24000  0.23700  1.0000
  O   O4        1.0  0.76000  0.78700  0.76300  1.0000
  O   O5        1.0  0.45500  0.08570  0.76600  1.0000
  O   O6        1.0  0.06080  0.39700  0.77400  1.0000
  Zr  Zr1       1.0  0.16500  0.83500  0.00000  1.0000
