data_image0
_chemical_formula_structural       CeCrLi4O6
_chemical_formula_sum              "Ce1 Cr1 Li4 O6"
_cell_length_a       5.52613
_cell_length_b       5.52613
_cell_length_c       5.10602
_cell_angle_alpha    98.0687
_cell_angle_beta     98.0687
_cell_angle_gamma    122.449

_space_group_name_H-M_alt    "P 1"
_space_group_IT_number       1

loop_
  _space_group_symop_operation_xyz
  'x, y, z'

loop_
  _atom_site_type_symbol
  _atom_site_label
  _atom_site_symmetry_multiplicity
  _atom_site_fract_x
  _atom_site_fract_y
  _atom_site_fract_z
  _atom_site_occupancy
  Ce  Ce1       1.0  0.84400  0.15600  0.00000  1.0000
  Cr  Cr1       1.0  0.16700  0.83300  0.00000  1.0000
  Li  Li1       1.0  0.50000  0.50000  0.00000  1.0000
  Li  Li2       1.0  0.05390  0.94600  0.50000  1.0000
  Li  Li3       1.0  0.64200  0.35800  0.50000  1.0000
  Li  Li4       1.0  0.38400  0.61600  0.50000  1.0000
  O   O1        1.0  0.90800  0.62800  0.18700  1.0000
  O   O2        1.0  0.48800  0.88900  0.24100  1.0000
  O   O3        1.0  0.25300  0.22300  0.27000  1.0000
  O   O4        1.0  0.77700  0.74700  0.73000  1.0000
  O   O5        1.0  0.11100  0.51200  0.75900  1.0000
  O   O6        1.0  0.37200  0.09210  0.81300  1.0000
