data_image0
_chemical_formula_structural       GaLi4O6Pa
_chemical_formula_sum              "Ga1 Li4 O6 Pa1"
_cell_length_a       5.36595
_cell_length_b       5.36595
_cell_length_c       5.20808
_cell_angle_alpha    98.9328
_cell_angle_beta     98.9328
_cell_angle_gamma    120.707

_space_group_name_H-M_alt    "P 1"
_space_group_IT_number       1

loop_
  _space_group_symop_operation_xyz
  'x, y, z'

loop_
  _atom_site_type_symbol
  _atom_site_label
  _atom_site_symmetry_multiplicity
  _atom_site_fract_x
  _atom_site_fract_y
  _atom_site_fract_z
  _atom_site_occupancy
  Ga  Ga1       1.0  0.83300  0.16700  0.00000  1.0000
  Li  Li1       1.0  0.50000  0.50000  0.00000  1.0000
  Li  Li2       1.0  0.96700  0.03290  0.50000  1.0000
  Li  Li3       1.0  0.66700  0.33300  0.50000  1.0000
  Li  Li4       1.0  0.36000  0.64000  0.50000  1.0000
  O   O1        1.0  0.59700  0.92800  0.23600  1.0000
  O   O2        1.0  0.90700  0.54900  0.23800  1.0000
  O   O3        1.0  0.22300  0.24400  0.24100  1.0000
  O   O4        1.0  0.75600  0.77700  0.75900  1.0000
  O   O5        1.0  0.45100  0.09310  0.76200  1.0000
  O   O6        1.0  0.07240  0.40300  0.76400  1.0000
  Pa  Pa1       1.0  0.16600  0.83400  0.00000  1.0000
