data_image0
_chemical_formula_structural       CeLi4NbO6
_chemical_formula_sum              "Ce1 Li4 Nb1 O6"
_cell_length_a       5.64816
_cell_length_b       5.64816
_cell_length_c       5.20748
_cell_angle_alpha    98.9638
_cell_angle_beta     98.9638
_cell_angle_gamma    121.288

_space_group_name_H-M_alt    "P 1"
_space_group_IT_number       1

loop_
  _space_group_symop_operation_xyz
  'x, y, z'

loop_
  _atom_site_type_symbol
  _atom_site_label
  _atom_site_symmetry_multiplicity
  _atom_site_fract_x
  _atom_site_fract_y
  _atom_site_fract_z
  _atom_site_occupancy
  Ce  Ce1       1.0  0.83700  0.16300  0.00000  1.0000
  Li  Li1       1.0  0.50500  0.49500  0.00000  1.0000
  Li  Li2       1.0  0.03870  0.96100  0.50000  1.0000
  Li  Li3       1.0  0.63300  0.36700  0.50000  1.0000
  Li  Li4       1.0  0.32900  0.67100  0.50000  1.0000
  Nb  Nb1       1.0  0.16800  0.83200  0.00000  1.0000
  O   O1        1.0  0.92600  0.61000  0.23100  1.0000
  O   O2        1.0  0.51800  0.88900  0.24200  1.0000
  O   O3        1.0  0.25200  0.20700  0.24300  1.0000
  O   O4        1.0  0.79300  0.74800  0.75700  1.0000
  O   O5        1.0  0.11100  0.48200  0.75800  1.0000
  O   O6        1.0  0.39000  0.07450  0.76900  1.0000
