data_image0
_chemical_formula_structural       ErLi4O6Tc
_chemical_formula_sum              "Er1 Li4 O6 Tc1"
_cell_length_a       5.31736
_cell_length_b       5.31736
_cell_length_c       5.18456
_cell_angle_alpha    99.7435
_cell_angle_beta     99.7435
_cell_angle_gamma    120.068

_space_group_name_H-M_alt    "P 1"
_space_group_IT_number       1

loop_
  _space_group_symop_operation_xyz
  'x, y, z'

loop_
  _atom_site_type_symbol
  _atom_site_label
  _atom_site_symmetry_multiplicity
  _atom_site_fract_x
  _atom_site_fract_y
  _atom_site_fract_z
  _atom_site_occupancy
  Er  Er1       1.0  0.83500  0.16500  0.00000  1.0000
  Li  Li1       1.0  0.49900  0.50100  0.00000  1.0000
  Li  Li2       1.0  0.01530  0.98500  0.50000  1.0000
  Li  Li3       1.0  0.65200  0.34800  0.50000  1.0000
  Li  Li4       1.0  0.33900  0.66100  0.50000  1.0000
  O   O1        1.0  0.93600  0.60900  0.23200  1.0000
  O   O2        1.0  0.54900  0.91000  0.24100  1.0000
  O   O3        1.0  0.25000  0.22300  0.24300  1.0000
  O   O4        1.0  0.77700  0.75000  0.75700  1.0000
  O   O5        1.0  0.09010  0.45100  0.75900  1.0000
  O   O6        1.0  0.39100  0.06420  0.76800  1.0000
  Tc  Tc1       1.0  0.16700  0.83300  0.00000  1.0000
