data_image0
_chemical_formula_structural       InLi4O6Ta
_chemical_formula_sum              "In1 Li4 O6 Ta1"
_cell_length_a       5.29472
_cell_length_b       5.29472
_cell_length_c       5.21652
_cell_angle_alpha    99.8936
_cell_angle_beta     99.8936
_cell_angle_gamma    119.872

_space_group_name_H-M_alt    "P 1"
_space_group_IT_number       1

loop_
  _space_group_symop_operation_xyz
  'x, y, z'

loop_
  _atom_site_type_symbol
  _atom_site_label
  _atom_site_symmetry_multiplicity
  _atom_site_fract_x
  _atom_site_fract_y
  _atom_site_fract_z
  _atom_site_occupancy
  In  In1       1.0  0.83300  0.16700  0.00000  1.0000
  Li  Li1       1.0  0.50100  0.49900  0.00000  1.0000
  Li  Li2       1.0  0.00415  0.99600  0.50000  1.0000
  Li  Li3       1.0  0.65500  0.34500  0.50000  1.0000
  Li  Li4       1.0  0.34400  0.65600  0.50000  1.0000
  O   O1        1.0  0.93400  0.60200  0.23300  1.0000
  O   O2        1.0  0.55500  0.91400  0.24100  1.0000
  O   O3        1.0  0.24400  0.22300  0.24100  1.0000
  O   O4        1.0  0.77700  0.75600  0.75900  1.0000
  O   O5        1.0  0.08580  0.44500  0.75900  1.0000
  O   O6        1.0  0.39800  0.06630  0.76700  1.0000
  Ta  Ta1       1.0  0.16800  0.83200  0.00000  1.0000
