data_image0
_chemical_formula_structural       GdLi4O6V
_chemical_formula_sum              "Gd1 Li4 O6 V1"
_cell_length_a       5.37089
_cell_length_b       5.37089
_cell_length_c       5.10663
_cell_angle_alpha    99.2136
_cell_angle_beta     99.2136
_cell_angle_gamma    120.76

_space_group_name_H-M_alt    "P 1"
_space_group_IT_number       1

loop_
  _space_group_symop_operation_xyz
  'x, y, z'

loop_
  _atom_site_type_symbol
  _atom_site_label
  _atom_site_symmetry_multiplicity
  _atom_site_fract_x
  _atom_site_fract_y
  _atom_site_fract_z
  _atom_site_occupancy
  Gd  Gd1       1.0  0.83700  0.16300  0.00000  1.0000
  Li  Li1       1.0  0.50300  0.49700  0.00000  1.0000
  Li  Li2       1.0  0.03220  0.96800  0.50000  1.0000
  Li  Li3       1.0  0.64500  0.35500  0.50000  1.0000
  Li  Li4       1.0  0.32300  0.67700  0.50000  1.0000
  O   O1        1.0  0.93800  0.61400  0.22400  1.0000
  O   O2        1.0  0.52200  0.89900  0.23500  1.0000
  O   O3        1.0  0.24800  0.20300  0.23600  1.0000
  O   O4        1.0  0.79700  0.75200  0.76400  1.0000
  O   O5        1.0  0.10100  0.47800  0.76500  1.0000
  O   O6        1.0  0.38600  0.06240  0.77600  1.0000
  V   V1        1.0  0.16900  0.83100  0.00000  1.0000
