data_image0
_chemical_formula_structural       AsAuLi4O6
_chemical_formula_sum              "As1 Au1 Li4 O6"
_cell_length_a       5.15401
_cell_length_b       5.15401
_cell_length_c       5.25281
_cell_angle_alpha    102.887
_cell_angle_beta     102.887
_cell_angle_gamma    115.907

_space_group_name_H-M_alt    "P 1"
_space_group_IT_number       1

loop_
  _space_group_symop_operation_xyz
  'x, y, z'

loop_
  _atom_site_type_symbol
  _atom_site_label
  _atom_site_symmetry_multiplicity
  _atom_site_fract_x
  _atom_site_fract_y
  _atom_site_fract_z
  _atom_site_occupancy
  As  As1       1.0  0.18000  0.82000  0.00000  1.0000
  Au  Au1       1.0  0.83800  0.16200  0.00000  1.0000
  Li  Li1       1.0  0.49500  0.50500  0.00000  1.0000
  Li  Li2       1.0  0.99400  0.00573  0.50000  1.0000
  Li  Li3       1.0  0.67000  0.33000  0.50000  1.0000
  Li  Li4       1.0  0.32400  0.67600  0.50000  1.0000
  O   O1        1.0  0.93400  0.60300  0.19600  1.0000
  O   O2        1.0  0.23200  0.19600  0.23700  1.0000
  O   O3        1.0  0.51500  0.88300  0.26400  1.0000
  O   O4        1.0  0.11700  0.48500  0.73600  1.0000
  O   O5        1.0  0.80400  0.76800  0.76300  1.0000
  O   O6        1.0  0.39700  0.06560  0.80400  1.0000
