data_image0
_chemical_formula_structural       BiLi4MoO6
_chemical_formula_sum              "Bi1 Li4 Mo1 O6"
_cell_length_a       5.5094
_cell_length_b       5.5094
_cell_length_c       5.18213
_cell_angle_alpha    98.9447
_cell_angle_beta     98.9447
_cell_angle_gamma    120.982

_space_group_name_H-M_alt    "P 1"
_space_group_IT_number       1

loop_
  _space_group_symop_operation_xyz
  'x, y, z'

loop_
  _atom_site_type_symbol
  _atom_site_label
  _atom_site_symmetry_multiplicity
  _atom_site_fract_x
  _atom_site_fract_y
  _atom_site_fract_z
  _atom_site_occupancy
  Bi  Bi1       1.0  0.15600  0.84400  0.00000  1.0000
  Li  Li1       1.0  0.50000  0.50000  0.00000  1.0000
  Li  Li2       1.0  0.97500  0.02500  0.50000  1.0000
  Li  Li3       1.0  0.62600  0.37400  0.50000  1.0000
  Li  Li4       1.0  0.35000  0.65000  0.50000  1.0000
  Mo  Mo1       1.0  0.83300  0.16700  0.00000  1.0000
  O   O1        1.0  0.62500  0.91700  0.21200  1.0000
  O   O2        1.0  0.90000  0.52500  0.24500  1.0000
  O   O3        1.0  0.23200  0.25400  0.26000  1.0000
  O   O4        1.0  0.74600  0.76800  0.74000  1.0000
  O   O5        1.0  0.47500  0.10000  0.75500  1.0000
  O   O6        1.0  0.08260  0.37500  0.78800  1.0000
