data_image0
_chemical_formula_structural       AlLi4O6U
_chemical_formula_sum              "Al1 Li4 O6 U1"
_cell_length_a       5.2787
_cell_length_b       5.2787
_cell_length_c       5.13523
_cell_angle_alpha    99.1007
_cell_angle_beta     99.1007
_cell_angle_gamma    120.593

_space_group_name_H-M_alt    "P 1"
_space_group_IT_number       1

loop_
  _space_group_symop_operation_xyz
  'x, y, z'

loop_
  _atom_site_type_symbol
  _atom_site_label
  _atom_site_symmetry_multiplicity
  _atom_site_fract_x
  _atom_site_fract_y
  _atom_site_fract_z
  _atom_site_occupancy
  Al  Al1       1.0  0.83400  0.16600  0.00000  1.0000
  Li  Li1       1.0  0.50000  0.50000  0.00000  1.0000
  Li  Li2       1.0  0.97000  0.03000  0.50000  1.0000
  Li  Li3       1.0  0.66800  0.33200  0.50000  1.0000
  Li  Li4       1.0  0.35500  0.64500  0.50000  1.0000
  O   O1        1.0  0.60400  0.93500  0.22900  1.0000
  O   O2        1.0  0.90800  0.54100  0.23400  1.0000
  O   O3        1.0  0.21200  0.24200  0.23500  1.0000
  O   O4        1.0  0.75800  0.78800  0.76500  1.0000
  O   O5        1.0  0.45900  0.09180  0.76600  1.0000
  O   O6        1.0  0.06480  0.39600  0.77100  1.0000
  U   U1        1.0  0.16600  0.83400  0.00000  1.0000
