data_image0
_chemical_formula_structural       InLi4O6Tc
_chemical_formula_sum              "In1 Li4 O6 Tc1"
_cell_length_a       5.25905
_cell_length_b       5.25905
_cell_length_c       5.16585
_cell_angle_alpha    99.9302
_cell_angle_beta     99.9302
_cell_angle_gamma    119.927

_space_group_name_H-M_alt    "P 1"
_space_group_IT_number       1

loop_
  _space_group_symop_operation_xyz
  'x, y, z'

loop_
  _atom_site_type_symbol
  _atom_site_label
  _atom_site_symmetry_multiplicity
  _atom_site_fract_x
  _atom_site_fract_y
  _atom_site_fract_z
  _atom_site_occupancy
  In  In1       1.0  0.83400  0.16600  0.00000  1.0000
  Li  Li1       1.0  0.50000  0.50000  0.00000  1.0000
  Li  Li2       1.0  0.00523  0.99500  0.50000  1.0000
  Li  Li3       1.0  0.65800  0.34200  0.50000  1.0000
  Li  Li4       1.0  0.33900  0.66100  0.50000  1.0000
  O   O1        1.0  0.93700  0.60600  0.23400  1.0000
  O   O2        1.0  0.24800  0.22400  0.24200  1.0000
  O   O3        1.0  0.55500  0.91300  0.24200  1.0000
  O   O4        1.0  0.08660  0.44500  0.75800  1.0000
  O   O5        1.0  0.77600  0.75200  0.75800  1.0000
  O   O6        1.0  0.39400  0.06340  0.76600  1.0000
  Tc  Tc1       1.0  0.16700  0.83300  0.00000  1.0000
