data_image0
_chemical_formula_structural       AuCrLi4O6
_chemical_formula_sum              "Au1 Cr1 Li4 O6"
_cell_length_a       5.09913
_cell_length_b       5.09913
_cell_length_c       5.09802
_cell_angle_alpha    99.6947
_cell_angle_beta     99.6947
_cell_angle_gamma    119.888

_space_group_name_H-M_alt    "P 1"
_space_group_IT_number       1

loop_
  _space_group_symop_operation_xyz
  'x, y, z'

loop_
  _atom_site_type_symbol
  _atom_site_label
  _atom_site_symmetry_multiplicity
  _atom_site_fract_x
  _atom_site_fract_y
  _atom_site_fract_z
  _atom_site_occupancy
  Au  Au1       1.0  0.83300  0.16700  0.00000  1.0000
  Cr  Cr1       1.0  0.16700  0.83300  0.00000  1.0000
  Li  Li1       1.0  0.50000  0.50000  0.00000  1.0000
  Li  Li2       1.0  0.99700  0.00342  0.50000  1.0000
  Li  Li3       1.0  0.66200  0.33800  0.50000  1.0000
  Li  Li4       1.0  0.34100  0.65900  0.50000  1.0000
  O   O1        1.0  0.57600  0.92400  0.23700  1.0000
  O   O2        1.0  0.92700  0.58300  0.23800  1.0000
  O   O3        1.0  0.23500  0.23200  0.24000  1.0000
  O   O4        1.0  0.76800  0.76500  0.76000  1.0000
  O   O5        1.0  0.41700  0.07260  0.76200  1.0000
  O   O6        1.0  0.07610  0.42400  0.76300  1.0000
