data_image0
_chemical_formula_structural       GdLi4O6Ta
_chemical_formula_sum              "Gd1 Li4 O6 Ta1"
_cell_length_a       5.47196
_cell_length_b       5.47196
_cell_length_c       5.20954
_cell_angle_alpha    99.7186
_cell_angle_beta     99.7186
_cell_angle_gamma    120.309

_space_group_name_H-M_alt    "P 1"
_space_group_IT_number       1

loop_
  _space_group_symop_operation_xyz
  'x, y, z'

loop_
  _atom_site_type_symbol
  _atom_site_label
  _atom_site_symmetry_multiplicity
  _atom_site_fract_x
  _atom_site_fract_y
  _atom_site_fract_z
  _atom_site_occupancy
  Gd  Gd1       1.0  0.83400  0.16600  0.00000  1.0000
  Li  Li1       1.0  0.50100  0.49900  0.00000  1.0000
  Li  Li2       1.0  0.02420  0.97600  0.50000  1.0000
  Li  Li3       1.0  0.64500  0.35600  0.50000  1.0000
  Li  Li4       1.0  0.33800  0.66200  0.50000  1.0000
  O   O1        1.0  0.93500  0.60900  0.23100  1.0000
  O   O2        1.0  0.53900  0.90600  0.23800  1.0000
  O   O3        1.0  0.24600  0.21400  0.24100  1.0000
  O   O4        1.0  0.78600  0.75400  0.75900  1.0000
  O   O5        1.0  0.09380  0.46100  0.76200  1.0000
  O   O6        1.0  0.39100  0.06500  0.76900  1.0000
  Ta  Ta1       1.0  0.16800  0.83200  0.00000  1.0000
