data_image0
_chemical_formula_structural       CrLi4O6Sm
_chemical_formula_sum              "Cr1 Li4 O6 Sm1"
_cell_length_a       5.39688
_cell_length_b       5.39688
_cell_length_c       5.10308
_cell_angle_alpha    98.8287
_cell_angle_beta     98.8287
_cell_angle_gamma    121.278

_space_group_name_H-M_alt    "P 1"
_space_group_IT_number       1

loop_
  _space_group_symop_operation_xyz
  'x, y, z'

loop_
  _atom_site_type_symbol
  _atom_site_label
  _atom_site_symmetry_multiplicity
  _atom_site_fract_x
  _atom_site_fract_y
  _atom_site_fract_z
  _atom_site_occupancy
  Cr  Cr1       1.0  0.16900  0.83100  0.00000  1.0000
  Li  Li1       1.0  0.49900  0.50100  0.00000  1.0000
  Li  Li2       1.0  0.03630  0.96400  0.50000  1.0000
  Li  Li3       1.0  0.64600  0.35400  0.50000  1.0000
  Li  Li4       1.0  0.37000  0.63000  0.50000  1.0000
  O   O1        1.0  0.92500  0.62700  0.20100  1.0000
  O   O2        1.0  0.51100  0.89800  0.23900  1.0000
  O   O3        1.0  0.25200  0.22400  0.25800  1.0000
  O   O4        1.0  0.77600  0.74800  0.74200  1.0000
  O   O5        1.0  0.10200  0.48900  0.76100  1.0000
  O   O6        1.0  0.37300  0.07490  0.79900  1.0000
  Sm  Sm1       1.0  0.84100  0.15900  0.00000  1.0000
