data_image0
_chemical_formula_structural       FeLi4O6Pb
_chemical_formula_sum              "Fe1 Li4 O6 Pb1"
_cell_length_a       5.27708
_cell_length_b       5.27708
_cell_length_c       5.16118
_cell_angle_alpha    99.2922
_cell_angle_beta     99.2922
_cell_angle_gamma    120.765

_space_group_name_H-M_alt    "P 1"
_space_group_IT_number       1

loop_
  _space_group_symop_operation_xyz
  'x, y, z'

loop_
  _atom_site_type_symbol
  _atom_site_label
  _atom_site_symmetry_multiplicity
  _atom_site_fract_x
  _atom_site_fract_y
  _atom_site_fract_z
  _atom_site_occupancy
  Fe  Fe1       1.0  0.16700  0.83300  0.00000  1.0000
  Li  Li1       1.0  0.49900  0.50100  0.00000  1.0000
  Li  Li2       1.0  0.01250  0.98800  0.50000  1.0000
  Li  Li3       1.0  0.65500  0.34500  0.50000  1.0000
  Li  Li4       1.0  0.33900  0.66100  0.50000  1.0000
  O   O1        1.0  0.94700  0.61700  0.22400  1.0000
  O   O2        1.0  0.55500  0.91900  0.24600  1.0000
  O   O3        1.0  0.25100  0.22800  0.24700  1.0000
  O   O4        1.0  0.77200  0.74900  0.75300  1.0000
  O   O5        1.0  0.08060  0.44500  0.75400  1.0000
  O   O6        1.0  0.38300  0.05340  0.77600  1.0000
  Pb  Pb1       1.0  0.83900  0.16100  0.00000  1.0000
