data_image0
_chemical_formula_structural       Li4O6PdTc
_chemical_formula_sum              "Li4 O6 Pd1 Tc1"
_cell_length_a       5.12246
_cell_length_b       5.12246
_cell_length_c       5.09037
_cell_angle_alpha    99.7077
_cell_angle_beta     99.7077
_cell_angle_gamma    119.94

_space_group_name_H-M_alt    "P 1"
_space_group_IT_number       1

loop_
  _space_group_symop_operation_xyz
  'x, y, z'

loop_
  _atom_site_type_symbol
  _atom_site_label
  _atom_site_symmetry_multiplicity
  _atom_site_fract_x
  _atom_site_fract_y
  _atom_site_fract_z
  _atom_site_occupancy
  Li  Li1       1.0  0.50000  0.50000  0.00000  1.0000
  Li  Li2       1.0  0.99400  0.00636  0.50000  1.0000
  Li  Li3       1.0  0.66300  0.33700  0.50000  1.0000
  Li  Li4       1.0  0.34200  0.65800  0.50000  1.0000
  O   O1        1.0  0.57500  0.92200  0.23800  1.0000
  O   O2        1.0  0.92700  0.58500  0.23900  1.0000
  O   O3        1.0  0.23900  0.23400  0.24100  1.0000
  O   O4        1.0  0.76600  0.76100  0.75900  1.0000
  O   O5        1.0  0.41500  0.07340  0.76100  1.0000
  O   O6        1.0  0.07830  0.42500  0.76200  1.0000
  Pd  Pd1       1.0  0.83300  0.16700  0.00000  1.0000
  Tc  Tc1       1.0  0.16700  0.83300  0.00000  1.0000
