data_image0
_chemical_formula_structural       Li4O6RhRu
_chemical_formula_sum              "Li4 O6 Rh1 Ru1"
_cell_length_a       5.05055
_cell_length_b       5.05055
_cell_length_c       5.09451
_cell_angle_alpha    99.5652
_cell_angle_beta     99.5652
_cell_angle_gamma    119.925

_space_group_name_H-M_alt    "P 1"
_space_group_IT_number       1

loop_
  _space_group_symop_operation_xyz
  'x, y, z'

loop_
  _atom_site_type_symbol
  _atom_site_label
  _atom_site_symmetry_multiplicity
  _atom_site_fract_x
  _atom_site_fract_y
  _atom_site_fract_z
  _atom_site_occupancy
  Li  Li1       1.0  0.50000  0.50000  0.00000  1.0000
  Li  Li2       1.0  0.00238  0.99800  0.50000  1.0000
  Li  Li3       1.0  0.65900  0.34100  0.50000  1.0000
  Li  Li4       1.0  0.33800  0.66200  0.50000  1.0000
  O   O1        1.0  0.58800  0.92600  0.23900  1.0000
  O   O2        1.0  0.91900  0.57300  0.24000  1.0000
  O   O3        1.0  0.23500  0.24300  0.24100  1.0000
  O   O4        1.0  0.75700  0.76500  0.75900  1.0000
  O   O5        1.0  0.42700  0.08100  0.76000  1.0000
  O   O6        1.0  0.07410  0.41200  0.76100  1.0000
  Rh  Rh1       1.0  0.16700  0.83300  0.00000  1.0000
  Ru  Ru1       1.0  0.83300  0.16700  0.00000  1.0000
