data_image0
_chemical_formula_structural       Li4O6PbPt
_chemical_formula_sum              "Li4 O6 Pb1 Pt1"
_cell_length_a       5.36383
_cell_length_b       5.36383
_cell_length_c       5.21014
_cell_angle_alpha    99.6654
_cell_angle_beta     99.6654
_cell_angle_gamma    120.173

_space_group_name_H-M_alt    "P 1"
_space_group_IT_number       1

loop_
  _space_group_symop_operation_xyz
  'x, y, z'

loop_
  _atom_site_type_symbol
  _atom_site_label
  _atom_site_symmetry_multiplicity
  _atom_site_fract_x
  _atom_site_fract_y
  _atom_site_fract_z
  _atom_site_occupancy
  Li  Li1       1.0  0.50100  0.49900  0.00000  1.0000
  Li  Li2       1.0  0.98000  0.01980  0.50000  1.0000
  Li  Li3       1.0  0.67100  0.32900  0.50000  1.0000
  Li  Li4       1.0  0.34500  0.65500  0.50000  1.0000
  O   O1        1.0  0.59900  0.93100  0.23700  1.0000
  O   O2        1.0  0.91200  0.55500  0.24300  1.0000
  O   O3        1.0  0.22600  0.24700  0.24500  1.0000
  O   O4        1.0  0.75300  0.77400  0.75500  1.0000
  O   O5        1.0  0.44500  0.08780  0.75700  1.0000
  O   O6        1.0  0.06880  0.40100  0.76300  1.0000
  Pb  Pb1       1.0  0.16500  0.83500  0.00000  1.0000
  Pt  Pt1       1.0  0.83400  0.16600  0.00000  1.0000
