data_image0
_chemical_formula_structural       CrLi4O6Pd
_chemical_formula_sum              "Cr1 Li4 O6 Pd1"
_cell_length_a       5.02856
_cell_length_b       5.02856
_cell_length_c       5.06012
_cell_angle_alpha    99.7699
_cell_angle_beta     99.7699
_cell_angle_gamma    119.812

_space_group_name_H-M_alt    "P 1"
_space_group_IT_number       1

loop_
  _space_group_symop_operation_xyz
  'x, y, z'

loop_
  _atom_site_type_symbol
  _atom_site_label
  _atom_site_symmetry_multiplicity
  _atom_site_fract_x
  _atom_site_fract_y
  _atom_site_fract_z
  _atom_site_occupancy
  Cr  Cr1       1.0  0.16800  0.83200  0.00000  1.0000
  Li  Li1       1.0  0.50100  0.49900  0.00000  1.0000
  Li  Li2       1.0  0.00000  0.00023  0.50000  1.0000
  Li  Li3       1.0  0.66100  0.33900  0.50000  1.0000
  Li  Li4       1.0  0.34000  0.66000  0.50000  1.0000
  O   O1        1.0  0.93100  0.58800  0.23300  1.0000
  O   O2        1.0  0.56600  0.92500  0.23300  1.0000
  O   O3        1.0  0.23600  0.22300  0.23800  1.0000
  O   O4        1.0  0.77700  0.76400  0.76200  1.0000
  O   O5        1.0  0.07530  0.43400  0.76700  1.0000
  O   O6        1.0  0.41200  0.06880  0.76700  1.0000
  Pd  Pd1       1.0  0.83400  0.16600  0.00000  1.0000
