data_image0
_chemical_formula_structural       Li4O6PtTi
_chemical_formula_sum              "Li4 O6 Pt1 Ti1"
_cell_length_a       5.06704
_cell_length_b       5.06704
_cell_length_c       5.11873
_cell_angle_alpha    99.609
_cell_angle_beta     99.609
_cell_angle_gamma    119.897

_space_group_name_H-M_alt    "P 1"
_space_group_IT_number       1

loop_
  _space_group_symop_operation_xyz
  'x, y, z'

loop_
  _atom_site_type_symbol
  _atom_site_label
  _atom_site_symmetry_multiplicity
  _atom_site_fract_x
  _atom_site_fract_y
  _atom_site_fract_z
  _atom_site_occupancy
  Li  Li1       1.0  0.50000  0.50000  0.00000  1.0000
  Li  Li2       1.0  0.99800  0.00211  0.50000  1.0000
  Li  Li3       1.0  0.66100  0.33900  0.50000  1.0000
  Li  Li4       1.0  0.34100  0.65900  0.50000  1.0000
  O   O1        1.0  0.92900  0.58800  0.23600  1.0000
  O   O2        1.0  0.57100  0.92100  0.23700  1.0000
  O   O3        1.0  0.23900  0.23100  0.24000  1.0000
  O   O4        1.0  0.76900  0.76100  0.76000  1.0000
  O   O5        1.0  0.07900  0.42900  0.76300  1.0000
  O   O6        1.0  0.41200  0.07070  0.76400  1.0000
  Pt  Pt1       1.0  0.83300  0.16700  0.00000  1.0000
  Ti  Ti1       1.0  0.16700  0.83300  0.00000  1.0000
