data_image0
_chemical_formula_structural       Li4O6RuTi
_chemical_formula_sum              "Li4 O6 Ru1 Ti1"
_cell_length_a       5.01687
_cell_length_b       5.01687
_cell_length_c       5.10089
_cell_angle_alpha    99.3311
_cell_angle_beta     99.3311
_cell_angle_gamma    119.498

_space_group_name_H-M_alt    "P 1"
_space_group_IT_number       1

loop_
  _space_group_symop_operation_xyz
  'x, y, z'

loop_
  _atom_site_type_symbol
  _atom_site_label
  _atom_site_symmetry_multiplicity
  _atom_site_fract_x
  _atom_site_fract_y
  _atom_site_fract_z
  _atom_site_occupancy
  Li  Li1       1.0  0.50100  0.49900  0.00000  1.0000
  Li  Li2       1.0  0.99900  0.00105  0.50000  1.0000
  Li  Li3       1.0  0.66200  0.33800  0.50000  1.0000
  Li  Li4       1.0  0.34000  0.66000  0.50000  1.0000
  O   O1        1.0  0.58000  0.92500  0.22800  1.0000
  O   O2        1.0  0.93000  0.58500  0.23100  1.0000
  O   O3        1.0  0.24600  0.23900  0.25200  1.0000
  O   O4        1.0  0.76100  0.75400  0.74800  1.0000
  O   O5        1.0  0.41500  0.07050  0.76900  1.0000
  O   O6        1.0  0.07490  0.42000  0.77200  1.0000
  Ru  Ru1       1.0  0.83900  0.16100  0.00000  1.0000
  Ti  Ti1       1.0  0.15300  0.84700  0.00000  1.0000
