data_image0
_chemical_formula_structural       CrLi4O6Rh
_chemical_formula_sum              "Cr1 Li4 O6 Rh1"
_cell_length_a       5.01873
_cell_length_b       5.01873
_cell_length_c       5.04308
_cell_angle_alpha    99.6831
_cell_angle_beta     99.6831
_cell_angle_gamma    119.902

_space_group_name_H-M_alt    "P 1"
_space_group_IT_number       1

loop_
  _space_group_symop_operation_xyz
  'x, y, z'

loop_
  _atom_site_type_symbol
  _atom_site_label
  _atom_site_symmetry_multiplicity
  _atom_site_fract_x
  _atom_site_fract_y
  _atom_site_fract_z
  _atom_site_occupancy
  Cr  Cr1       1.0  0.16700  0.83300  0.00000  1.0000
  Li  Li1       1.0  0.50000  0.50000  0.00000  1.0000
  Li  Li2       1.0  0.99900  0.00083  0.50000  1.0000
  Li  Li3       1.0  0.66000  0.34000  0.50000  1.0000
  Li  Li4       1.0  0.34100  0.65900  0.50000  1.0000
  O   O1        1.0  0.57800  0.92700  0.23600  1.0000
  O   O2        1.0  0.92900  0.58200  0.23700  1.0000
  O   O3        1.0  0.23400  0.23200  0.23900  1.0000
  O   O4        1.0  0.76800  0.76600  0.76100  1.0000
  O   O5        1.0  0.41800  0.07140  0.76300  1.0000
  O   O6        1.0  0.07340  0.42200  0.76400  1.0000
  Rh  Rh1       1.0  0.83300  0.16700  0.00000  1.0000
