data_image0
_chemical_formula_structural       Li4O6PdRu
_chemical_formula_sum              "Li4 O6 Pd1 Ru1"
_cell_length_a       5.11013
_cell_length_b       5.11013
_cell_length_c       5.06445
_cell_angle_alpha    99.757
_cell_angle_beta     99.757
_cell_angle_gamma    119.884

_space_group_name_H-M_alt    "P 1"
_space_group_IT_number       1

loop_
  _space_group_symop_operation_xyz
  'x, y, z'

loop_
  _atom_site_type_symbol
  _atom_site_label
  _atom_site_symmetry_multiplicity
  _atom_site_fract_x
  _atom_site_fract_y
  _atom_site_fract_z
  _atom_site_occupancy
  Li  Li1       1.0  0.50000  0.50000  0.00000  1.0000
  Li  Li2       1.0  0.00263  0.99700  0.50000  1.0000
  Li  Li3       1.0  0.65900  0.34100  0.50000  1.0000
  Li  Li4       1.0  0.33800  0.66200  0.50000  1.0000
  O   O1        1.0  0.92200  0.57400  0.23800  1.0000
  O   O2        1.0  0.58500  0.92700  0.23800  1.0000
  O   O3        1.0  0.23400  0.24000  0.24100  1.0000
  O   O4        1.0  0.76000  0.76600  0.75900  1.0000
  O   O5        1.0  0.07280  0.41500  0.76200  1.0000
  O   O6        1.0  0.42600  0.07760  0.76200  1.0000
  Pd  Pd1       1.0  0.16700  0.83300  0.00000  1.0000
  Ru  Ru1       1.0  0.83300  0.16700  0.00000  1.0000
