data_image0
_chemical_formula_structural       FeIrLi4O6
_chemical_formula_sum              "Fe1 Ir1 Li4 O6"
_cell_length_a       5.06189
_cell_length_b       5.06189
_cell_length_c       5.06328
_cell_angle_alpha    99.713
_cell_angle_beta     99.713
_cell_angle_gamma    119.934

_space_group_name_H-M_alt    "P 1"
_space_group_IT_number       1

loop_
  _space_group_symop_operation_xyz
  'x, y, z'

loop_
  _atom_site_type_symbol
  _atom_site_label
  _atom_site_symmetry_multiplicity
  _atom_site_fract_x
  _atom_site_fract_y
  _atom_site_fract_z
  _atom_site_occupancy
  Fe  Fe1       1.0  0.83300  0.16700  0.00000  1.0000
  Ir  Ir1       1.0  0.16700  0.83300  0.00000  1.0000
  Li  Li1       1.0  0.50000  0.50000  0.00000  1.0000
  Li  Li2       1.0  0.00010  0.00000  0.50000  1.0000
  Li  Li3       1.0  0.66000  0.34000  0.50000  1.0000
  Li  Li4       1.0  0.34100  0.65900  0.50000  1.0000
  O   O1        1.0  0.92800  0.58500  0.23600  1.0000
  O   O2        1.0  0.57500  0.92300  0.23800  1.0000
  O   O3        1.0  0.23700  0.23300  0.24000  1.0000
  O   O4        1.0  0.76700  0.76300  0.76000  1.0000
  O   O5        1.0  0.07700  0.42500  0.76200  1.0000
  O   O6        1.0  0.41500  0.07230  0.76400  1.0000
