data_image0
_chemical_formula_structural       Li4MnO6Tc
_chemical_formula_sum              "Li4 Mn1 O6 Tc1"
_cell_length_a       5.06023
_cell_length_b       5.06023
_cell_length_c       5.01935
_cell_angle_alpha    99.7563
_cell_angle_beta     99.7563
_cell_angle_gamma    119.973

_space_group_name_H-M_alt    "P 1"
_space_group_IT_number       1

loop_
  _space_group_symop_operation_xyz
  'x, y, z'

loop_
  _atom_site_type_symbol
  _atom_site_label
  _atom_site_symmetry_multiplicity
  _atom_site_fract_x
  _atom_site_fract_y
  _atom_site_fract_z
  _atom_site_occupancy
  Li  Li1       1.0  0.50000  0.50000  0.00000  1.0000
  Li  Li2       1.0  0.99800  0.00193  0.50000  1.0000
  Li  Li3       1.0  0.66100  0.33900  0.50000  1.0000
  Li  Li4       1.0  0.34100  0.65900  0.50000  1.0000
  Mn  Mn1       1.0  0.83300  0.16700  0.00000  1.0000
  O   O1        1.0  0.58300  0.92900  0.23200  1.0000
  O   O2        1.0  0.92500  0.57500  0.23300  1.0000
  O   O3        1.0  0.22900  0.23300  0.23600  1.0000
  O   O4        1.0  0.76700  0.77100  0.76400  1.0000
  O   O5        1.0  0.42500  0.07510  0.76700  1.0000
  O   O6        1.0  0.07080  0.41700  0.76800  1.0000
  Tc  Tc1       1.0  0.16700  0.83300  0.00000  1.0000
