data_image0
_chemical_formula_structural       Li4O6PbRu
_chemical_formula_sum              "Li4 O6 Pb1 Ru1"
_cell_length_a       5.38421
_cell_length_b       5.38421
_cell_length_c       5.15994
_cell_angle_alpha    99.7675
_cell_angle_beta     99.7675
_cell_angle_gamma    120.191

_space_group_name_H-M_alt    "P 1"
_space_group_IT_number       1

loop_
  _space_group_symop_operation_xyz
  'x, y, z'

loop_
  _atom_site_type_symbol
  _atom_site_label
  _atom_site_symmetry_multiplicity
  _atom_site_fract_x
  _atom_site_fract_y
  _atom_site_fract_z
  _atom_site_occupancy
  Li  Li1       1.0  0.50000  0.50000  0.00000  1.0000
  Li  Li2       1.0  0.98000  0.02040  0.50000  1.0000
  Li  Li3       1.0  0.66900  0.33100  0.50000  1.0000
  Li  Li4       1.0  0.34600  0.65400  0.50000  1.0000
  O   O1        1.0  0.60700  0.93300  0.23300  1.0000
  O   O2        1.0  0.90600  0.54400  0.24100  1.0000
  O   O3        1.0  0.22000  0.25100  0.24300  1.0000
  O   O4        1.0  0.74900  0.78000  0.75700  1.0000
  O   O5        1.0  0.45600  0.09390  0.75900  1.0000
  O   O6        1.0  0.06700  0.39300  0.76700  1.0000
  Pb  Pb1       1.0  0.16600  0.83400  0.00000  1.0000
  Ru  Ru1       1.0  0.83300  0.16700  0.00000  1.0000
