data_image0
_chemical_formula_structural       Li4O6PtTe
_chemical_formula_sum              "Li4 O6 Pt1 Te1"
_cell_length_a       5.33102
_cell_length_b       5.33102
_cell_length_c       5.26893
_cell_angle_alpha    99.5073
_cell_angle_beta     99.5073
_cell_angle_gamma    120.121

_space_group_name_H-M_alt    "P 1"
_space_group_IT_number       1

loop_
  _space_group_symop_operation_xyz
  'x, y, z'

loop_
  _atom_site_type_symbol
  _atom_site_label
  _atom_site_symmetry_multiplicity
  _atom_site_fract_x
  _atom_site_fract_y
  _atom_site_fract_z
  _atom_site_occupancy
  Li  Li1       1.0  0.50100  0.49900  0.00000  1.0000
  Li  Li2       1.0  0.98000  0.02040  0.50000  1.0000
  Li  Li3       1.0  0.66500  0.33500  0.50000  1.0000
  Li  Li4       1.0  0.34600  0.65400  0.50000  1.0000
  O   O1        1.0  0.59100  0.92500  0.23400  1.0000
  O   O2        1.0  0.91900  0.55800  0.24500  1.0000
  O   O3        1.0  0.23200  0.25200  0.25300  1.0000
  O   O4        1.0  0.74800  0.76800  0.74700  1.0000
  O   O5        1.0  0.44200  0.08130  0.75500  1.0000
  O   O6        1.0  0.07480  0.40900  0.76600  1.0000
  Pt  Pt1       1.0  0.83500  0.16500  0.00000  1.0000
  Te  Te1       1.0  0.16600  0.83400  0.00000  1.0000
