data_image0
_chemical_formula_structural       AlLi4O6Rh
_chemical_formula_sum              "Al1 Li4 O6 Rh1"
_cell_length_a       5.00544
_cell_length_b       5.00544
_cell_length_c       5.03118
_cell_angle_alpha    99.6924
_cell_angle_beta     99.6924
_cell_angle_gamma    119.927

_space_group_name_H-M_alt    "P 1"
_space_group_IT_number       1

loop_
  _space_group_symop_operation_xyz
  'x, y, z'

loop_
  _atom_site_type_symbol
  _atom_site_label
  _atom_site_symmetry_multiplicity
  _atom_site_fract_x
  _atom_site_fract_y
  _atom_site_fract_z
  _atom_site_occupancy
  Al  Al1       1.0  0.16700  0.83300  0.00000  1.0000
  Li  Li1       1.0  0.50000  0.50000  0.00000  1.0000
  Li  Li2       1.0  0.99800  0.00181  0.50000  1.0000
  Li  Li3       1.0  0.66000  0.34000  0.50000  1.0000
  Li  Li4       1.0  0.34200  0.65800  0.50000  1.0000
  O   O1        1.0  0.93400  0.58700  0.22800  1.0000
  O   O2        1.0  0.56700  0.92400  0.22900  1.0000
  O   O3        1.0  0.23000  0.22000  0.23000  1.0000
  O   O4        1.0  0.78000  0.77000  0.77000  1.0000
  O   O5        1.0  0.07600  0.43300  0.77100  1.0000
  O   O6        1.0  0.41300  0.06560  0.77200  1.0000
  Rh  Rh1       1.0  0.83300  0.16700  0.00000  1.0000
