data_image0
_chemical_formula_structural       Li4O6OsPd
_chemical_formula_sum              "Li4 O6 Os1 Pd1"
_cell_length_a       5.16587
_cell_length_b       5.16587
_cell_length_c       5.05316
_cell_angle_alpha    99.5163
_cell_angle_beta     99.5163
_cell_angle_gamma    120.264

_space_group_name_H-M_alt    "P 1"
_space_group_IT_number       1

loop_
  _space_group_symop_operation_xyz
  'x, y, z'

loop_
  _atom_site_type_symbol
  _atom_site_label
  _atom_site_symmetry_multiplicity
  _atom_site_fract_x
  _atom_site_fract_y
  _atom_site_fract_z
  _atom_site_occupancy
  Li  Li1       1.0  0.50000  0.50000  0.00000  1.0000
  Li  Li2       1.0  0.99300  0.00669  0.50000  1.0000
  Li  Li3       1.0  0.66400  0.33600  0.50000  1.0000
  Li  Li4       1.0  0.34500  0.65500  0.50000  1.0000
  O   O1        1.0  0.56700  0.92000  0.23600  1.0000
  O   O2        1.0  0.93300  0.59800  0.23900  1.0000
  O   O3        1.0  0.25100  0.23300  0.24300  1.0000
  O   O4        1.0  0.76700  0.74900  0.75700  1.0000
  O   O5        1.0  0.40200  0.06720  0.76100  1.0000
  O   O6        1.0  0.08010  0.43300  0.76400  1.0000
  Os  Os1       1.0  0.16400  0.83600  0.00000  1.0000
  Pd  Pd1       1.0  0.83300  0.16700  0.00000  1.0000
