data_image0
_chemical_formula_structural       GaLi4O6Pt
_chemical_formula_sum              "Ga1 Li4 O6 Pt1"
_cell_length_a       5.11597
_cell_length_b       5.11597
_cell_length_c       5.07665
_cell_angle_alpha    99.8349
_cell_angle_beta     99.8349
_cell_angle_gamma    119.968

_space_group_name_H-M_alt    "P 1"
_space_group_IT_number       1

loop_
  _space_group_symop_operation_xyz
  'x, y, z'

loop_
  _atom_site_type_symbol
  _atom_site_label
  _atom_site_symmetry_multiplicity
  _atom_site_fract_x
  _atom_site_fract_y
  _atom_site_fract_z
  _atom_site_occupancy
  Ga  Ga1       1.0  0.16600  0.83400  0.00000  1.0000
  Li  Li1       1.0  0.50000  0.50000  0.00000  1.0000
  Li  Li2       1.0  0.99900  0.00124  0.50000  1.0000
  Li  Li3       1.0  0.66000  0.34000  0.50000  1.0000
  Li  Li4       1.0  0.34100  0.65900  0.50000  1.0000
  O   O1        1.0  0.57900  0.92700  0.23300  1.0000
  O   O2        1.0  0.92800  0.57900  0.23400  1.0000
  O   O3        1.0  0.23100  0.23000  0.23600  1.0000
  O   O4        1.0  0.77000  0.76900  0.76400  1.0000
  O   O5        1.0  0.42100  0.07230  0.76600  1.0000
  O   O6        1.0  0.07290  0.42100  0.76700  1.0000
  Pt  Pt1       1.0  0.83300  0.16700  0.00000  1.0000
