data_image0
_chemical_formula_structural       GaLi4O6Tc
_chemical_formula_sum              "Ga1 Li4 O6 Tc1"
_cell_length_a       5.09353
_cell_length_b       5.09353
_cell_length_c       5.08832
_cell_angle_alpha    99.7703
_cell_angle_beta     99.7703
_cell_angle_gamma    119.913

_space_group_name_H-M_alt    "P 1"
_space_group_IT_number       1

loop_
  _space_group_symop_operation_xyz
  'x, y, z'

loop_
  _atom_site_type_symbol
  _atom_site_label
  _atom_site_symmetry_multiplicity
  _atom_site_fract_x
  _atom_site_fract_y
  _atom_site_fract_z
  _atom_site_occupancy
  Ga  Ga1       1.0  0.83300  0.16700  0.00000  1.0000
  Li  Li1       1.0  0.50000  0.50000  0.00000  1.0000
  Li  Li2       1.0  0.99900  0.00058  0.50000  1.0000
  Li  Li3       1.0  0.66000  0.34000  0.50000  1.0000
  Li  Li4       1.0  0.34000  0.66000  0.50000  1.0000
  O   O1        1.0  0.93100  0.58200  0.23100  1.0000
  O   O2        1.0  0.57600  0.92800  0.23200  1.0000
  O   O3        1.0  0.22900  0.22600  0.23500  1.0000
  O   O4        1.0  0.77400  0.77100  0.76500  1.0000
  O   O5        1.0  0.07180  0.42400  0.76800  1.0000
  O   O6        1.0  0.41800  0.06900  0.76900  1.0000
  Tc  Tc1       1.0  0.16800  0.83200  0.00000  1.0000
