data_image0
_chemical_formula_structural       Li4O6TiZr
_chemical_formula_sum              "Li4 O6 Ti1 Zr1"
_cell_length_a       5.22605
_cell_length_b       5.22605
_cell_length_c       5.14457
_cell_angle_alpha    99.7874
_cell_angle_beta     99.7874
_cell_angle_gamma    119.916

_space_group_name_H-M_alt    "P 1"
_space_group_IT_number       1

loop_
  _space_group_symop_operation_xyz
  'x, y, z'

loop_
  _atom_site_type_symbol
  _atom_site_label
  _atom_site_symmetry_multiplicity
  _atom_site_fract_x
  _atom_site_fract_y
  _atom_site_fract_z
  _atom_site_occupancy
  Li  Li1       1.0  0.50000  0.50000  0.00000  1.0000
  Li  Li2       1.0  0.98400  0.01560  0.50000  1.0000
  Li  Li3       1.0  0.66300  0.33700  0.50000  1.0000
  Li  Li4       1.0  0.34900  0.65100  0.50000  1.0000
  O   O1        1.0  0.59500  0.93500  0.23100  1.0000
  O   O2        1.0  0.92100  0.56000  0.23500  1.0000
  O   O3        1.0  0.22200  0.23600  0.23800  1.0000
  O   O4        1.0  0.76400  0.77800  0.76200  1.0000
  O   O5        1.0  0.44000  0.07880  0.76500  1.0000
  O   O6        1.0  0.06510  0.40500  0.76900  1.0000
  Ti  Ti1       1.0  0.83100  0.16900  0.00000  1.0000
  Zr  Zr1       1.0  0.16600  0.83400  0.00000  1.0000
