data_image0
_chemical_formula_structural       Li4NiO6Rh
_chemical_formula_sum              "Li4 Ni1 O6 Rh1"
_cell_length_a       5.02053
_cell_length_b       5.02053
_cell_length_c       4.99858
_cell_angle_alpha    99.6556
_cell_angle_beta     99.6556
_cell_angle_gamma    120.03

_space_group_name_H-M_alt    "P 1"
_space_group_IT_number       1

loop_
  _space_group_symop_operation_xyz
  'x, y, z'

loop_
  _atom_site_type_symbol
  _atom_site_label
  _atom_site_symmetry_multiplicity
  _atom_site_fract_x
  _atom_site_fract_y
  _atom_site_fract_z
  _atom_site_occupancy
  Li  Li1       1.0  0.50000  0.50000  0.00000  1.0000
  Li  Li2       1.0  0.00270  0.99700  0.50000  1.0000
  Li  Li3       1.0  0.65900  0.34100  0.50000  1.0000
  Li  Li4       1.0  0.33800  0.66200  0.50000  1.0000
  Ni  Ni1       1.0  0.16700  0.83300  0.00000  1.0000
  O   O1        1.0  0.92400  0.57600  0.23500  1.0000
  O   O2        1.0  0.58300  0.92800  0.23600  1.0000
  O   O3        1.0  0.23100  0.23500  0.23700  1.0000
  O   O4        1.0  0.76500  0.76900  0.76300  1.0000
  O   O5        1.0  0.07180  0.41700  0.76400  1.0000
  O   O6        1.0  0.42400  0.07570  0.76500  1.0000
  Rh  Rh1       1.0  0.83300  0.16700  0.00000  1.0000
