data_image0
_chemical_formula_structural       HfLi4O6Ru
_chemical_formula_sum              "Hf1 Li4 O6 Ru1"
_cell_length_a       5.15146
_cell_length_b       5.15146
_cell_length_c       5.16617
_cell_angle_alpha    99.3784
_cell_angle_beta     99.3784
_cell_angle_gamma    119.852

_space_group_name_H-M_alt    "P 1"
_space_group_IT_number       1

loop_
  _space_group_symop_operation_xyz
  'x, y, z'

loop_
  _atom_site_type_symbol
  _atom_site_label
  _atom_site_symmetry_multiplicity
  _atom_site_fract_x
  _atom_site_fract_y
  _atom_site_fract_z
  _atom_site_occupancy
  Hf  Hf1       1.0  0.16200  0.83800  0.00000  1.0000
  Li  Li1       1.0  0.50100  0.49900  0.00000  1.0000
  Li  Li2       1.0  0.98800  0.01160  0.50000  1.0000
  Li  Li3       1.0  0.66100  0.33900  0.50000  1.0000
  Li  Li4       1.0  0.34700  0.65300  0.50000  1.0000
  O   O1        1.0  0.58800  0.92700  0.23200  1.0000
  O   O2        1.0  0.92200  0.57300  0.23900  1.0000
  O   O3        1.0  0.23900  0.24400  0.24800  1.0000
  O   O4        1.0  0.75600  0.76100  0.75200  1.0000
  O   O5        1.0  0.42700  0.07830  0.76100  1.0000
  O   O6        1.0  0.07320  0.41200  0.76800  1.0000
  Ru  Ru1       1.0  0.83600  0.16400  0.00000  1.0000
