data_image0
_chemical_formula_structural       Li4MnO6Pd
_chemical_formula_sum              "Li4 Mn1 O6 Pd1"
_cell_length_a       5.01708
_cell_length_b       5.01708
_cell_length_c       5.03486
_cell_angle_alpha    99.6822
_cell_angle_beta     99.6822
_cell_angle_gamma    119.909

_space_group_name_H-M_alt    "P 1"
_space_group_IT_number       1

loop_
  _space_group_symop_operation_xyz
  'x, y, z'

loop_
  _atom_site_type_symbol
  _atom_site_label
  _atom_site_symmetry_multiplicity
  _atom_site_fract_x
  _atom_site_fract_y
  _atom_site_fract_z
  _atom_site_occupancy
  Li  Li1       1.0  0.50000  0.50000  0.00000  1.0000
  Li  Li2       1.0  0.99900  0.00051  0.50000  1.0000
  Li  Li3       1.0  0.66100  0.33900  0.50000  1.0000
  Li  Li4       1.0  0.33900  0.66100  0.50000  1.0000
  Mn  Mn1       1.0  0.16700  0.83300  0.00000  1.0000
  O   O1        1.0  0.93400  0.59300  0.23200  1.0000
  O   O2        1.0  0.56400  0.92000  0.23400  1.0000
  O   O3        1.0  0.23700  0.22300  0.23600  1.0000
  O   O4        1.0  0.77700  0.76300  0.76400  1.0000
  O   O5        1.0  0.07970  0.43600  0.76600  1.0000
  O   O6        1.0  0.40700  0.06590  0.76800  1.0000
  Pd  Pd1       1.0  0.83300  0.16700  0.00000  1.0000
