data_image0
_chemical_formula_structural       FeLi4O6V
_chemical_formula_sum              "Fe1 Li4 O6 V1"
_cell_length_a       4.99543
_cell_length_b       4.99543
_cell_length_c       5.00837
_cell_angle_alpha    99.7451
_cell_angle_beta     99.7451
_cell_angle_gamma    119.882

_space_group_name_H-M_alt    "P 1"
_space_group_IT_number       1

loop_
  _space_group_symop_operation_xyz
  'x, y, z'

loop_
  _atom_site_type_symbol
  _atom_site_label
  _atom_site_symmetry_multiplicity
  _atom_site_fract_x
  _atom_site_fract_y
  _atom_site_fract_z
  _atom_site_occupancy
  Fe  Fe1       1.0  0.83400  0.16600  0.00000  1.0000
  Li  Li1       1.0  0.50000  0.50000  0.00000  1.0000
  Li  Li2       1.0  0.00112  0.99900  0.50000  1.0000
  Li  Li3       1.0  0.66000  0.34000  0.50000  1.0000
  Li  Li4       1.0  0.34000  0.66000  0.50000  1.0000
  O   O1        1.0  0.93800  0.59400  0.22700  1.0000
  O   O2        1.0  0.56100  0.92200  0.23200  1.0000
  O   O3        1.0  0.23200  0.21800  0.23300  1.0000
  O   O4        1.0  0.78200  0.76800  0.76700  1.0000
  O   O5        1.0  0.07770  0.43900  0.76800  1.0000
  O   O6        1.0  0.40600  0.06210  0.77300  1.0000
  V   V1        1.0  0.16800  0.83200  0.00000  1.0000
