data_image0
_chemical_formula_structural       FeLi4MnO6
_chemical_formula_sum              "Fe1 Li4 Mn1 O6"
_cell_length_a       4.96233
_cell_length_b       4.96233
_cell_length_c       4.97966
_cell_angle_alpha    99.2343
_cell_angle_beta     99.2343
_cell_angle_gamma    120.518

_space_group_name_H-M_alt    "P 1"
_space_group_IT_number       1

loop_
  _space_group_symop_operation_xyz
  'x, y, z'

loop_
  _atom_site_type_symbol
  _atom_site_label
  _atom_site_symmetry_multiplicity
  _atom_site_fract_x
  _atom_site_fract_y
  _atom_site_fract_z
  _atom_site_occupancy
  Fe  Fe1       1.0  0.83000  0.17000  0.00000  1.0000
  Li  Li1       1.0  0.50200  0.49800  0.00000  1.0000
  Li  Li2       1.0  0.00323  0.99700  0.50000  1.0000
  Li  Li3       1.0  0.65800  0.34200  0.50000  1.0000
  Li  Li4       1.0  0.34100  0.65900  0.50000  1.0000
  Mn  Mn1       1.0  0.16300  0.83700  0.00000  1.0000
  O   O1        1.0  0.58000  0.93600  0.22200  1.0000
  O   O2        1.0  0.23100  0.22200  0.23200  1.0000
  O   O3        1.0  0.93700  0.58700  0.23500  1.0000
  O   O4        1.0  0.41300  0.06310  0.76500  1.0000
  O   O5        1.0  0.77800  0.76900  0.76800  1.0000
  O   O6        1.0  0.06400  0.42000  0.77800  1.0000
