data_image0
_chemical_formula_structural       Li4O6OsTi
_chemical_formula_sum              "Li4 O6 Os1 Ti1"
_cell_length_a       4.99653
_cell_length_b       4.99653
_cell_length_c       5.13411
_cell_angle_alpha    99.3816
_cell_angle_beta     99.3816
_cell_angle_gamma    118.961

_space_group_name_H-M_alt    "P 1"
_space_group_IT_number       1

loop_
  _space_group_symop_operation_xyz
  'x, y, z'

loop_
  _atom_site_type_symbol
  _atom_site_label
  _atom_site_symmetry_multiplicity
  _atom_site_fract_x
  _atom_site_fract_y
  _atom_site_fract_z
  _atom_site_occupancy
  Li  Li1       1.0  0.50100  0.49900  0.00000  1.0000
  Li  Li2       1.0  0.00000  0.00000  0.50000  1.0000
  Li  Li3       1.0  0.66100  0.33900  0.50000  1.0000
  Li  Li4       1.0  0.33700  0.66300  0.50000  1.0000
  O   O1        1.0  0.92500  0.58200  0.22800  1.0000
  O   O2        1.0  0.58300  0.92900  0.22900  1.0000
  O   O3        1.0  0.24600  0.25000  0.25700  1.0000
  O   O4        1.0  0.75000  0.75400  0.74300  1.0000
  O   O5        1.0  0.07050  0.41700  0.77100  1.0000
  O   O6        1.0  0.41800  0.07490  0.77200  1.0000
  Os  Os1       1.0  0.15800  0.84200  0.00000  1.0000
  Ti  Ti1       1.0  0.85100  0.14900  0.00000  1.0000
