data_image0
_chemical_formula_structural       Li4MoO6Pt
_chemical_formula_sum              "Li4 Mo1 O6 Pt1"
_cell_length_a       5.10386
_cell_length_b       5.10386
_cell_length_c       5.14718
_cell_angle_alpha    99.9782
_cell_angle_beta     99.9782
_cell_angle_gamma    118.711

_space_group_name_H-M_alt    "P 1"
_space_group_IT_number       1

loop_
  _space_group_symop_operation_xyz
  'x, y, z'

loop_
  _atom_site_type_symbol
  _atom_site_label
  _atom_site_symmetry_multiplicity
  _atom_site_fract_x
  _atom_site_fract_y
  _atom_site_fract_z
  _atom_site_occupancy
  Li  Li1       1.0  0.50300  0.49700  0.00000  1.0000
  Li  Li2       1.0  0.99500  0.00519  0.50000  1.0000
  Li  Li3       1.0  0.66100  0.33900  0.50000  1.0000
  Li  Li4       1.0  0.34200  0.65800  0.50000  1.0000
  Mo  Mo1       1.0  0.16300  0.83700  0.00000  1.0000
  O   O1        1.0  0.57000  0.92000  0.23200  1.0000
  O   O2        1.0  0.92100  0.57800  0.24000  1.0000
  O   O3        1.0  0.25000  0.24400  0.25400  1.0000
  O   O4        1.0  0.75600  0.75000  0.74600  1.0000
  O   O5        1.0  0.42200  0.07910  0.76000  1.0000
  O   O6        1.0  0.08020  0.43000  0.76800  1.0000
  Pt  Pt1       1.0  0.83700  0.16300  0.00000  1.0000
