data_image0
_chemical_formula_structural       Li4O6PdPt
_chemical_formula_sum              "Li4 O6 Pd1 Pt1"
_cell_length_a       5.1358
_cell_length_b       5.1358
_cell_length_c       5.07542
_cell_angle_alpha    99.8527
_cell_angle_beta     99.8527
_cell_angle_gamma    119.857

_space_group_name_H-M_alt    "P 1"
_space_group_IT_number       1

loop_
  _space_group_symop_operation_xyz
  'x, y, z'

loop_
  _atom_site_type_symbol
  _atom_site_label
  _atom_site_symmetry_multiplicity
  _atom_site_fract_x
  _atom_site_fract_y
  _atom_site_fract_z
  _atom_site_occupancy
  Li  Li1       1.0  0.50000  0.50000  0.00000  1.0000
  Li  Li2       1.0  0.00090  0.99900  0.50000  1.0000
  Li  Li3       1.0  0.66100  0.33900  0.50000  1.0000
  Li  Li4       1.0  0.33800  0.66200  0.50000  1.0000
  O   O1        1.0  0.92500  0.58100  0.23800  1.0000
  O   O2        1.0  0.57900  0.92400  0.23800  1.0000
  O   O3        1.0  0.23700  0.23700  0.24100  1.0000
  O   O4        1.0  0.76300  0.76300  0.75900  1.0000
  O   O5        1.0  0.07580  0.42100  0.76200  1.0000
  O   O6        1.0  0.41900  0.07540  0.76200  1.0000
  Pd  Pd1       1.0  0.16700  0.83300  0.00000  1.0000
  Pt  Pt1       1.0  0.83300  0.16700  0.00000  1.0000
