data_image0
_chemical_formula_structural       CrLi4O6Ti
_chemical_formula_sum              "Cr1 Li4 O6 Ti1"
_cell_length_a       5.00858
_cell_length_b       5.00858
_cell_length_c       5.0363
_cell_angle_alpha    99.4881
_cell_angle_beta     99.4881
_cell_angle_gamma    120.16

_space_group_name_H-M_alt    "P 1"
_space_group_IT_number       1

loop_
  _space_group_symop_operation_xyz
  'x, y, z'

loop_
  _atom_site_type_symbol
  _atom_site_label
  _atom_site_symmetry_multiplicity
  _atom_site_fract_x
  _atom_site_fract_y
  _atom_site_fract_z
  _atom_site_occupancy
  Cr  Cr1       1.0  0.16600  0.83400  0.00000  1.0000
  Li  Li1       1.0  0.49900  0.50100  0.00000  1.0000
  Li  Li2       1.0  0.00156  0.99800  0.50000  1.0000
  Li  Li3       1.0  0.66000  0.34000  0.50000  1.0000
  Li  Li4       1.0  0.33900  0.66100  0.50000  1.0000
  O   O1        1.0  0.93600  0.58500  0.22700  1.0000
  O   O2        1.0  0.57500  0.92900  0.23100  1.0000
  O   O3        1.0  0.22600  0.22300  0.23300  1.0000
  O   O4        1.0  0.77700  0.77400  0.76700  1.0000
  O   O5        1.0  0.07150  0.42500  0.76900  1.0000
  O   O6        1.0  0.41500  0.06430  0.77300  1.0000
  Ti  Ti1       1.0  0.83400  0.16600  0.00000  1.0000
