data_image0
_chemical_formula_structural       IrLi4O6Rh
_chemical_formula_sum              "Ir1 Li4 O6 Rh1"
_cell_length_a       5.07578
_cell_length_b       5.07578
_cell_length_c       5.08866
_cell_angle_alpha    99.6917
_cell_angle_beta     99.6917
_cell_angle_gamma    119.835

_space_group_name_H-M_alt    "P 1"
_space_group_IT_number       1

loop_
  _space_group_symop_operation_xyz
  'x, y, z'

loop_
  _atom_site_type_symbol
  _atom_site_label
  _atom_site_symmetry_multiplicity
  _atom_site_fract_x
  _atom_site_fract_y
  _atom_site_fract_z
  _atom_site_occupancy
  Ir  Ir1       1.0  0.16600  0.83400  0.00000  1.0000
  Li  Li1       1.0  0.50000  0.50000  0.00000  1.0000
  Li  Li2       1.0  0.66100  0.33900  0.50000  1.0000
  Li  Li3       1.0  0.34100  0.65900  0.50000  1.0000
  Li  Li4       1.0  0.99900  0.00148  0.50000  1.0000
  O   O1        1.0  0.92500  0.58400  0.23900  1.0000
  O   O2        1.0  0.57600  0.92100  0.24000  1.0000
  O   O3        1.0  0.24100  0.23700  0.24200  1.0000
  O   O4        1.0  0.76300  0.75900  0.75800  1.0000
  O   O5        1.0  0.07870  0.42400  0.76000  1.0000
  O   O6        1.0  0.41600  0.07470  0.76100  1.0000
  Rh  Rh1       1.0  0.83400  0.16600  0.00000  1.0000
