data_image0
_chemical_formula_structural       Li4O6PdTi
_chemical_formula_sum              "Li4 O6 Pd1 Ti1"
_cell_length_a       5.06241
_cell_length_b       5.06241
_cell_length_c       5.09997
_cell_angle_alpha    99.5978
_cell_angle_beta     99.5978
_cell_angle_gamma    119.925

_space_group_name_H-M_alt    "P 1"
_space_group_IT_number       1

loop_
  _space_group_symop_operation_xyz
  'x, y, z'

loop_
  _atom_site_type_symbol
  _atom_site_label
  _atom_site_symmetry_multiplicity
  _atom_site_fract_x
  _atom_site_fract_y
  _atom_site_fract_z
  _atom_site_occupancy
  Li  Li1       1.0  0.50000  0.50000  0.00000  1.0000
  Li  Li2       1.0  0.99400  0.00572  0.50000  1.0000
  Li  Li3       1.0  0.66300  0.33700  0.50000  1.0000
  Li  Li4       1.0  0.34200  0.65800  0.50000  1.0000
  O   O1        1.0  0.93000  0.58600  0.23500  1.0000
  O   O2        1.0  0.57200  0.92300  0.23500  1.0000
  O   O3        1.0  0.23600  0.22800  0.23800  1.0000
  O   O4        1.0  0.77200  0.76400  0.76200  1.0000
  O   O5        1.0  0.07730  0.42800  0.76500  1.0000
  O   O6        1.0  0.41400  0.07000  0.76500  1.0000
  Pd  Pd1       1.0  0.83300  0.16700  0.00000  1.0000
  Ti  Ti1       1.0  0.16700  0.83300  0.00000  1.0000
