data_image0
_chemical_formula_structural       FeLi4O6Pd
_chemical_formula_sum              "Fe1 Li4 O6 Pd1"
_cell_length_a       5.01606
_cell_length_b       5.01606
_cell_length_c       5.0158
_cell_angle_alpha    99.7201
_cell_angle_beta     99.7201
_cell_angle_gamma    119.912

_space_group_name_H-M_alt    "P 1"
_space_group_IT_number       1

loop_
  _space_group_symop_operation_xyz
  'x, y, z'

loop_
  _atom_site_type_symbol
  _atom_site_label
  _atom_site_symmetry_multiplicity
  _atom_site_fract_x
  _atom_site_fract_y
  _atom_site_fract_z
  _atom_site_occupancy
  Fe  Fe1       1.0  0.16700  0.83300  0.00000  1.0000
  Li  Li1       1.0  0.50000  0.50000  0.00000  1.0000
  Li  Li2       1.0  0.00135  0.99900  0.50000  1.0000
  Li  Li3       1.0  0.66100  0.33900  0.50000  1.0000
  Li  Li4       1.0  0.33800  0.66200  0.50000  1.0000
  O   O1        1.0  0.93600  0.59400  0.22900  1.0000
  O   O2        1.0  0.56200  0.92100  0.23300  1.0000
  O   O3        1.0  0.23600  0.22000  0.23400  1.0000
  O   O4        1.0  0.78000  0.76400  0.76600  1.0000
  O   O5        1.0  0.07940  0.43800  0.76700  1.0000
  O   O6        1.0  0.40600  0.06380  0.77100  1.0000
  Pd  Pd1       1.0  0.83300  0.16700  0.00000  1.0000
