data_image0
_chemical_formula_structural       Li4MnO6Pb
_chemical_formula_sum              "Li4 Mn1 O6 Pb1"
_cell_length_a       5.25935
_cell_length_b       5.25935
_cell_length_c       5.16919
_cell_angle_alpha    99.5628
_cell_angle_beta     99.5628
_cell_angle_gamma    120.247

_space_group_name_H-M_alt    "P 1"
_space_group_IT_number       1

loop_
  _space_group_symop_operation_xyz
  'x, y, z'

loop_
  _atom_site_type_symbol
  _atom_site_label
  _atom_site_symmetry_multiplicity
  _atom_site_fract_x
  _atom_site_fract_y
  _atom_site_fract_z
  _atom_site_occupancy
  Li  Li1       1.0  0.50000  0.50000  0.00000  1.0000
  Li  Li2       1.0  0.02240  0.97800  0.50000  1.0000
  Li  Li3       1.0  0.65400  0.34600  0.50000  1.0000
  Li  Li4       1.0  0.32900  0.67100  0.50000  1.0000
  Mn  Mn1       1.0  0.16700  0.83300  0.00000  1.0000
  O   O1        1.0  0.93900  0.60800  0.23000  1.0000
  O   O2        1.0  0.54100  0.91000  0.23800  1.0000
  O   O3        1.0  0.24400  0.21200  0.24000  1.0000
  O   O4        1.0  0.78800  0.75600  0.76000  1.0000
  O   O5        1.0  0.08960  0.45900  0.76200  1.0000
  O   O6        1.0  0.39200  0.06100  0.77000  1.0000
  Pb  Pb1       1.0  0.83500  0.16500  0.00000  1.0000
