data_image0
_chemical_formula_structural       Li4O6RuV
_chemical_formula_sum              "Li4 O6 Ru1 V1"
_cell_length_a       4.97202
_cell_length_b       4.97202
_cell_length_c       5.08868
_cell_angle_alpha    99.6093
_cell_angle_beta     99.6093
_cell_angle_gamma    118.976

_space_group_name_H-M_alt    "P 1"
_space_group_IT_number       1

loop_
  _space_group_symop_operation_xyz
  'x, y, z'

loop_
  _atom_site_type_symbol
  _atom_site_label
  _atom_site_symmetry_multiplicity
  _atom_site_fract_x
  _atom_site_fract_y
  _atom_site_fract_z
  _atom_site_occupancy
  Li  Li1       1.0  0.49900  0.50100  0.00000  1.0000
  Li  Li2       1.0  0.99800  0.00189  0.50000  1.0000
  Li  Li3       1.0  0.66200  0.33800  0.50000  1.0000
  Li  Li4       1.0  0.33800  0.66200  0.50000  1.0000
  O   O1        1.0  0.92400  0.57500  0.22500  1.0000
  O   O2        1.0  0.58300  0.92300  0.23000  1.0000
  O   O3        1.0  0.23700  0.24800  0.25300  1.0000
  O   O4        1.0  0.75200  0.76300  0.74700  1.0000
  O   O5        1.0  0.07650  0.41700  0.77000  1.0000
  O   O6        1.0  0.42500  0.07640  0.77500  1.0000
  Ru  Ru1       1.0  0.16000  0.84000  0.00000  1.0000
  V   V1        1.0  0.84600  0.15400  0.00000  1.0000
