data_image0
_chemical_formula_structural       Li4MoO6Rh
_chemical_formula_sum              "Li4 Mo1 O6 Rh1"
_cell_length_a       5.00816
_cell_length_b       5.00816
_cell_length_c       5.14214
_cell_angle_alpha    99.6951
_cell_angle_beta     99.6951
_cell_angle_gamma    118.622

_space_group_name_H-M_alt    "P 1"
_space_group_IT_number       1

loop_
  _space_group_symop_operation_xyz
  'x, y, z'

loop_
  _atom_site_type_symbol
  _atom_site_label
  _atom_site_symmetry_multiplicity
  _atom_site_fract_x
  _atom_site_fract_y
  _atom_site_fract_z
  _atom_site_occupancy
  Li  Li1       1.0  0.49700  0.50300  0.00000  1.0000
  Li  Li2       1.0  0.98900  0.01060  0.50000  1.0000
  Li  Li3       1.0  0.66900  0.33100  0.50000  1.0000
  Li  Li4       1.0  0.34200  0.65800  0.50000  1.0000
  Mo  Mo1       1.0  0.15400  0.84600  0.00000  1.0000
  O   O1        1.0  0.92200  0.58300  0.23100  1.0000
  O   O2        1.0  0.56600  0.91400  0.23300  1.0000
  O   O3        1.0  0.25800  0.24300  0.25900  1.0000
  O   O4        1.0  0.75700  0.74200  0.74100  1.0000
  O   O5        1.0  0.08640  0.43400  0.76700  1.0000
  O   O6        1.0  0.41700  0.07800  0.76900  1.0000
  Rh  Rh1       1.0  0.84200  0.15800  0.00000  1.0000
