data_image0
_chemical_formula_structural       Li4NiO6Os
_chemical_formula_sum              "Li4 Ni1 O6 Os1"
_cell_length_a       5.04836
_cell_length_b       5.04836
_cell_length_c       5.02414
_cell_angle_alpha    99.725
_cell_angle_beta     99.725
_cell_angle_gamma    120.027

_space_group_name_H-M_alt    "P 1"
_space_group_IT_number       1

loop_
  _space_group_symop_operation_xyz
  'x, y, z'

loop_
  _atom_site_type_symbol
  _atom_site_label
  _atom_site_symmetry_multiplicity
  _atom_site_fract_x
  _atom_site_fract_y
  _atom_site_fract_z
  _atom_site_occupancy
  Li  Li1       1.0  0.50000  0.50000  0.00000  1.0000
  Li  Li2       1.0  0.99300  0.00706  0.50000  1.0000
  Li  Li3       1.0  0.66300  0.33700  0.50000  1.0000
  Li  Li4       1.0  0.34500  0.65500  0.50000  1.0000
  Ni  Ni1       1.0  0.83400  0.16600  0.00000  1.0000
  O   O1        1.0  0.93300  0.59500  0.23300  1.0000
  O   O2        1.0  0.24000  0.22600  0.23700  1.0000
  O   O3        1.0  0.56500  0.91800  0.23800  1.0000
  O   O4        1.0  0.08160  0.43500  0.76200  1.0000
  O   O5        1.0  0.77400  0.76000  0.76300  1.0000
  O   O6        1.0  0.40500  0.06680  0.76700  1.0000
  Os  Os1       1.0  0.16700  0.83300  0.00000  1.0000
