data_image0
_chemical_formula_structural       Li4O6OsPb
_chemical_formula_sum              "Li4 O6 Os1 Pb1"
_cell_length_a       5.47274
_cell_length_b       5.47274
_cell_length_c       5.1455
_cell_angle_alpha    99.9673
_cell_angle_beta     99.9673
_cell_angle_gamma    120.259

_space_group_name_H-M_alt    "P 1"
_space_group_IT_number       1

loop_
  _space_group_symop_operation_xyz
  'x, y, z'

loop_
  _atom_site_type_symbol
  _atom_site_label
  _atom_site_symmetry_multiplicity
  _atom_site_fract_x
  _atom_site_fract_y
  _atom_site_fract_z
  _atom_site_occupancy
  Li  Li1       1.0  0.50000  0.50100  0.00000  1.0000
  Li  Li2       1.0  0.01990  0.98000  0.50000  1.0000
  Li  Li3       1.0  0.65500  0.34500  0.50000  1.0000
  Li  Li4       1.0  0.33000  0.67000  0.50000  1.0000
  O   O1        1.0  0.93600  0.61600  0.23100  1.0000
  O   O2        1.0  0.53300  0.89900  0.24100  1.0000
  O   O3        1.0  0.25600  0.21400  0.24200  1.0000
  O   O4        1.0  0.78600  0.74400  0.75800  1.0000
  O   O5        1.0  0.10100  0.46700  0.75900  1.0000
  O   O6        1.0  0.38400  0.06440  0.76900  1.0000
  Os  Os1       1.0  0.16700  0.83300  0.00000  1.0000
  Pb  Pb1       1.0  0.83500  0.16500  0.00000  1.0000
