data_image0
_chemical_formula_structural       Li4MoO6Ti
_chemical_formula_sum              "Li4 Mo1 O6 Ti1"
_cell_length_a       5.07029
_cell_length_b       5.07029
_cell_length_c       5.1165
_cell_angle_alpha    99.6218
_cell_angle_beta     99.6218
_cell_angle_gamma    119.92

_space_group_name_H-M_alt    "P 1"
_space_group_IT_number       1

loop_
  _space_group_symop_operation_xyz
  'x, y, z'

loop_
  _atom_site_type_symbol
  _atom_site_label
  _atom_site_symmetry_multiplicity
  _atom_site_fract_x
  _atom_site_fract_y
  _atom_site_fract_z
  _atom_site_occupancy
  Li  Li1       1.0  0.50000  0.50000  0.00000  1.0000
  Li  Li2       1.0  0.99900  0.00142  0.50000  1.0000
  Li  Li3       1.0  0.66000  0.34000  0.50000  1.0000
  Li  Li4       1.0  0.34100  0.65900  0.50000  1.0000
  Mo  Mo1       1.0  0.16700  0.83300  0.00000  1.0000
  O   O1        1.0  0.58400  0.92600  0.23500  1.0000
  O   O2        1.0  0.92200  0.57500  0.23600  1.0000
  O   O3        1.0  0.23300  0.23700  0.23800  1.0000
  O   O4        1.0  0.76300  0.76700  0.76200  1.0000
  O   O5        1.0  0.42500  0.07800  0.76400  1.0000
  O   O6        1.0  0.07430  0.41600  0.76500  1.0000
  Ti  Ti1       1.0  0.83200  0.16800  0.00000  1.0000
