data_image0
_chemical_formula_structural       CrHfLi4O6
_chemical_formula_sum              "Cr1 Hf1 Li4 O6"
_cell_length_a       5.14054
_cell_length_b       5.14054
_cell_length_c       5.10206
_cell_angle_alpha    99.5807
_cell_angle_beta     99.5807
_cell_angle_gamma    120.112

_space_group_name_H-M_alt    "P 1"
_space_group_IT_number       1

loop_
  _space_group_symop_operation_xyz
  'x, y, z'

loop_
  _atom_site_type_symbol
  _atom_site_label
  _atom_site_symmetry_multiplicity
  _atom_site_fract_x
  _atom_site_fract_y
  _atom_site_fract_z
  _atom_site_occupancy
  Cr  Cr1       1.0  0.16700  0.83300  0.00000  1.0000
  Hf  Hf1       1.0  0.83500  0.16500  0.00000  1.0000
  Li  Li1       1.0  0.49900  0.50100  0.00000  1.0000
  Li  Li2       1.0  0.01500  0.98500  0.50000  1.0000
  Li  Li3       1.0  0.65200  0.34800  0.50000  1.0000
  Li  Li4       1.0  0.33800  0.66200  0.50000  1.0000
  O   O1        1.0  0.93800  0.59700  0.22700  1.0000
  O   O2        1.0  0.56100  0.92300  0.23500  1.0000
  O   O3        1.0  0.23600  0.22200  0.23800  1.0000
  O   O4        1.0  0.77800  0.76400  0.76200  1.0000
  O   O5        1.0  0.07720  0.43900  0.76500  1.0000
  O   O6        1.0  0.40300  0.06250  0.77300  1.0000
