data_image0
_chemical_formula_structural       HfLi4O6Ti
_chemical_formula_sum              "Hf1 Li4 O6 Ti1"
_cell_length_a       5.19351
_cell_length_b       5.19351
_cell_length_c       5.1349
_cell_angle_alpha    99.7952
_cell_angle_beta     99.7952
_cell_angle_gamma    119.87

_space_group_name_H-M_alt    "P 1"
_space_group_IT_number       1

loop_
  _space_group_symop_operation_xyz
  'x, y, z'

loop_
  _atom_site_type_symbol
  _atom_site_label
  _atom_site_symmetry_multiplicity
  _atom_site_fract_x
  _atom_site_fract_y
  _atom_site_fract_z
  _atom_site_occupancy
  Hf  Hf1       1.0  0.16600  0.83400  0.00000  1.0000
  Li  Li1       1.0  0.50000  0.50000  0.00000  1.0000
  Li  Li2       1.0  0.98600  0.01400  0.50000  1.0000
  Li  Li3       1.0  0.66300  0.33700  0.50000  1.0000
  Li  Li4       1.0  0.34800  0.65200  0.50000  1.0000
  O   O1        1.0  0.59000  0.93400  0.23000  1.0000
  O   O2        1.0  0.92400  0.56400  0.23300  1.0000
  O   O3        1.0  0.22200  0.23200  0.23700  1.0000
  O   O4        1.0  0.76800  0.77800  0.76300  1.0000
  O   O5        1.0  0.43600  0.07580  0.76700  1.0000
  O   O6        1.0  0.06560  0.41000  0.77000  1.0000
  Ti  Ti1       1.0  0.83100  0.16900  0.00000  1.0000
