data_image0
_chemical_formula_structural       IrLi4MnO6
_chemical_formula_sum              "Ir1 Li4 Mn1 O6"
_cell_length_a       5.03392
_cell_length_b       5.03392
_cell_length_c       5.02368
_cell_angle_alpha    99.7829
_cell_angle_beta     99.7829
_cell_angle_gamma    119.9

_space_group_name_H-M_alt    "P 1"
_space_group_IT_number       1

loop_
  _space_group_symop_operation_xyz
  'x, y, z'

loop_
  _atom_site_type_symbol
  _atom_site_label
  _atom_site_symmetry_multiplicity
  _atom_site_fract_x
  _atom_site_fract_y
  _atom_site_fract_z
  _atom_site_occupancy
  Ir  Ir1       1.0  0.16700  0.83300  0.00000  1.0000
  Li  Li1       1.0  0.50000  0.50000  0.00000  1.0000
  Li  Li2       1.0  0.99900  0.00079  0.50000  1.0000
  Li  Li3       1.0  0.66100  0.33900  0.50000  1.0000
  Li  Li4       1.0  0.34000  0.66000  0.50000  1.0000
  Mn  Mn1       1.0  0.83300  0.16700  0.00000  1.0000
  O   O1        1.0  0.59000  0.93200  0.23200  1.0000
  O   O2        1.0  0.91900  0.56600  0.23400  1.0000
  O   O3        1.0  0.22700  0.23800  0.23600  1.0000
  O   O4        1.0  0.76200  0.77300  0.76400  1.0000
  O   O5        1.0  0.43400  0.08050  0.76600  1.0000
  O   O6        1.0  0.06830  0.41000  0.76800  1.0000
