data_image0
_chemical_formula_structural       Li4O6PtV
_chemical_formula_sum              "Li4 O6 Pt1 V1"
_cell_length_a       5.06005
_cell_length_b       5.06005
_cell_length_c       5.08007
_cell_angle_alpha    99.3475
_cell_angle_beta     99.3475
_cell_angle_gamma    120.502

_space_group_name_H-M_alt    "P 1"
_space_group_IT_number       1

loop_
  _space_group_symop_operation_xyz
  'x, y, z'

loop_
  _atom_site_type_symbol
  _atom_site_label
  _atom_site_symmetry_multiplicity
  _atom_site_fract_x
  _atom_site_fract_y
  _atom_site_fract_z
  _atom_site_occupancy
  Li  Li1       1.0  0.50000  0.50000  0.00000  1.0000
  Li  Li2       1.0  0.99600  0.00426  0.50000  1.0000
  Li  Li3       1.0  0.66100  0.33900  0.50000  1.0000
  Li  Li4       1.0  0.34300  0.65700  0.50000  1.0000
  O   O1        1.0  0.23700  0.22800  0.23300  1.0000
  O   O2        1.0  0.93400  0.59500  0.23500  1.0000
  O   O3        1.0  0.57000  0.91800  0.24100  1.0000
  O   O4        1.0  0.08170  0.43000  0.75900  1.0000
  O   O5        1.0  0.40500  0.06610  0.76500  1.0000
  O   O6        1.0  0.77200  0.76300  0.76700  1.0000
  Pt  Pt1       1.0  0.83200  0.16800  0.00000  1.0000
  V   V1        1.0  0.16800  0.83200  0.00000  1.0000
