data_image0
_chemical_formula_structural       FeHfLi4O6
_chemical_formula_sum              "Fe1 Hf1 Li4 O6"
_cell_length_a       5.15776
_cell_length_b       5.15776
_cell_length_c       5.09415
_cell_angle_alpha    99.2307
_cell_angle_beta     99.2307
_cell_angle_gamma    120.614

_space_group_name_H-M_alt    "P 1"
_space_group_IT_number       1

loop_
  _space_group_symop_operation_xyz
  'x, y, z'

loop_
  _atom_site_type_symbol
  _atom_site_label
  _atom_site_symmetry_multiplicity
  _atom_site_fract_x
  _atom_site_fract_y
  _atom_site_fract_z
  _atom_site_occupancy
  Fe  Fe1       1.0  0.83000  0.17000  0.00000  1.0000
  Hf  Hf1       1.0  0.16000  0.84000  0.00000  1.0000
  Li  Li1       1.0  0.50100  0.49900  0.00000  1.0000
  Li  Li2       1.0  0.98800  0.01240  0.50000  1.0000
  Li  Li3       1.0  0.66100  0.33900  0.50000  1.0000
  Li  Li4       1.0  0.34900  0.65100  0.50000  1.0000
  O   O1        1.0  0.60100  0.94200  0.22100  1.0000
  O   O2        1.0  0.23100  0.23900  0.24200  1.0000
  O   O3        1.0  0.92800  0.56700  0.24200  1.0000
  O   O4        1.0  0.43300  0.07200  0.75800  1.0000
  O   O5        1.0  0.76100  0.76900  0.75800  1.0000
  O   O6        1.0  0.05790  0.39900  0.77900  1.0000
