data_image0
_chemical_formula_structural       Li4O6PbRh
_chemical_formula_sum              "Li4 O6 Pb1 Rh1"
_cell_length_a       5.34317
_cell_length_b       5.34317
_cell_length_c       5.17511
_cell_angle_alpha    99.6312
_cell_angle_beta     99.6312
_cell_angle_gamma    120.244

_space_group_name_H-M_alt    "P 1"
_space_group_IT_number       1

loop_
  _space_group_symop_operation_xyz
  'x, y, z'

loop_
  _atom_site_type_symbol
  _atom_site_label
  _atom_site_symmetry_multiplicity
  _atom_site_fract_x
  _atom_site_fract_y
  _atom_site_fract_z
  _atom_site_occupancy
  Li  Li1       1.0  0.49900  0.50100  0.00000  1.0000
  Li  Li2       1.0  0.02080  0.97900  0.50000  1.0000
  Li  Li3       1.0  0.65400  0.34600  0.50000  1.0000
  Li  Li4       1.0  0.33100  0.66900  0.50000  1.0000
  O   O1        1.0  0.93200  0.60200  0.23700  1.0000
  O   O2        1.0  0.55100  0.91000  0.24200  1.0000
  O   O3        1.0  0.24800  0.22400  0.24400  1.0000
  O   O4        1.0  0.77600  0.75200  0.75600  1.0000
  O   O5        1.0  0.08970  0.44900  0.75800  1.0000
  O   O6        1.0  0.39800  0.06840  0.76300  1.0000
  Pb  Pb1       1.0  0.83400  0.16600  0.00000  1.0000
  Rh  Rh1       1.0  0.16600  0.83400  0.00000  1.0000
