data_image0
_chemical_formula_structural       HfLi4O6Rh
_chemical_formula_sum              "Hf1 Li4 O6 Rh1"
_cell_length_a       5.15437
_cell_length_b       5.15437
_cell_length_c       5.16889
_cell_angle_alpha    99.4801
_cell_angle_beta     99.4801
_cell_angle_gamma    120.029

_space_group_name_H-M_alt    "P 1"
_space_group_IT_number       1

loop_
  _space_group_symop_operation_xyz
  'x, y, z'

loop_
  _atom_site_type_symbol
  _atom_site_label
  _atom_site_symmetry_multiplicity
  _atom_site_fract_x
  _atom_site_fract_y
  _atom_site_fract_z
  _atom_site_occupancy
  Hf  Hf1       1.0  0.16600  0.83400  0.00000  1.0000
  Li  Li1       1.0  0.50100  0.49900  0.00000  1.0000
  Li  Li2       1.0  0.98500  0.01500  0.50000  1.0000
  Li  Li3       1.0  0.66300  0.33700  0.50000  1.0000
  Li  Li4       1.0  0.34800  0.65200  0.50000  1.0000
  O   O1        1.0  0.58600  0.92500  0.23800  1.0000
  O   O2        1.0  0.92000  0.57200  0.24100  1.0000
  O   O3        1.0  0.23500  0.24000  0.24200  1.0000
  O   O4        1.0  0.76000  0.76500  0.75800  1.0000
  O   O5        1.0  0.42800  0.07990  0.75900  1.0000
  O   O6        1.0  0.07520  0.41400  0.76200  1.0000
  Rh  Rh1       1.0  0.83300  0.16700  0.00000  1.0000
