data_image0
_chemical_formula_structural       Li4O6PbV
_chemical_formula_sum              "Li4 O6 Pb1 V1"
_cell_length_a       5.27145
_cell_length_b       5.27145
_cell_length_c       5.20687
_cell_angle_alpha    99.8228
_cell_angle_beta     99.8228
_cell_angle_gamma    119.75

_space_group_name_H-M_alt    "P 1"
_space_group_IT_number       1

loop_
  _space_group_symop_operation_xyz
  'x, y, z'

loop_
  _atom_site_type_symbol
  _atom_site_label
  _atom_site_symmetry_multiplicity
  _atom_site_fract_x
  _atom_site_fract_y
  _atom_site_fract_z
  _atom_site_occupancy
  Li  Li1       1.0  0.50200  0.49800  0.00000  1.0000
  Li  Li2       1.0  0.01970  0.98000  0.50000  1.0000
  Li  Li3       1.0  0.65200  0.34800  0.50000  1.0000
  Li  Li4       1.0  0.33400  0.66600  0.50000  1.0000
  O   O1        1.0  0.93300  0.60300  0.23000  1.0000
  O   O2        1.0  0.54300  0.91500  0.24000  1.0000
  O   O3        1.0  0.24400  0.21600  0.24200  1.0000
  O   O4        1.0  0.78400  0.75600  0.75800  1.0000
  O   O5        1.0  0.08530  0.45700  0.76000  1.0000
  O   O6        1.0  0.39700  0.06700  0.77000  1.0000
  Pb  Pb1       1.0  0.83500  0.16500  0.00000  1.0000
  V   V1        1.0  0.17100  0.82900  0.00000  1.0000
