data_image0
_chemical_formula_structural       HfLi4MnO6
_chemical_formula_sum              "Hf1 Li4 Mn1 O6"
_cell_length_a       5.13178
_cell_length_b       5.13178
_cell_length_c       5.10714
_cell_angle_alpha    99.5617
_cell_angle_beta     99.5617
_cell_angle_gamma    120.058

_space_group_name_H-M_alt    "P 1"
_space_group_IT_number       1

loop_
  _space_group_symop_operation_xyz
  'x, y, z'

loop_
  _atom_site_type_symbol
  _atom_site_label
  _atom_site_symmetry_multiplicity
  _atom_site_fract_x
  _atom_site_fract_y
  _atom_site_fract_z
  _atom_site_occupancy
  Hf  Hf1       1.0  0.83400  0.16600  0.00000  1.0000
  Li  Li1       1.0  0.49900  0.50100  0.00000  1.0000
  Li  Li2       1.0  0.02150  0.97900  0.50000  1.0000
  Li  Li3       1.0  0.65100  0.34900  0.50000  1.0000
  Li  Li4       1.0  0.33300  0.66700  0.50000  1.0000
  Mn  Mn1       1.0  0.16700  0.83300  0.00000  1.0000
  O   O1        1.0  0.93600  0.59500  0.22900  1.0000
  O   O2        1.0  0.55600  0.92100  0.23300  1.0000
  O   O3        1.0  0.23400  0.21700  0.23600  1.0000
  O   O4        1.0  0.78300  0.76600  0.76400  1.0000
  O   O5        1.0  0.07940  0.44400  0.76700  1.0000
  O   O6        1.0  0.40500  0.06350  0.77100  1.0000
