data_image0
_chemical_formula_structural       Li4O6OsPt
_chemical_formula_sum              "Li4 O6 Os1 Pt1"
_cell_length_a       5.14969
_cell_length_b       5.14969
_cell_length_c       5.07692
_cell_angle_alpha    99.9321
_cell_angle_beta     99.9321
_cell_angle_gamma    119.483

_space_group_name_H-M_alt    "P 1"
_space_group_IT_number       1

loop_
  _space_group_symop_operation_xyz
  'x, y, z'

loop_
  _atom_site_type_symbol
  _atom_site_label
  _atom_site_symmetry_multiplicity
  _atom_site_fract_x
  _atom_site_fract_y
  _atom_site_fract_z
  _atom_site_occupancy
  Li  Li1       1.0  0.50100  0.49900  0.00000  1.0000
  Li  Li2       1.0  0.99800  0.00172  0.50000  1.0000
  Li  Li3       1.0  0.66100  0.33900  0.50000  1.0000
  Li  Li4       1.0  0.34100  0.65900  0.50000  1.0000
  O   O1        1.0  0.57400  0.92200  0.23600  1.0000
  O   O2        1.0  0.92400  0.58200  0.23800  1.0000
  O   O3        1.0  0.24200  0.23700  0.24300  1.0000
  O   O4        1.0  0.76300  0.75800  0.75700  1.0000
  O   O5        1.0  0.41800  0.07640  0.76200  1.0000
  O   O6        1.0  0.07760  0.42600  0.76400  1.0000
  Os  Os1       1.0  0.16700  0.83300  0.00000  1.0000
  Pt  Pt1       1.0  0.83400  0.16600  0.00000  1.0000
