data_image0
_chemical_formula_structural       Li4NiO6V
_chemical_formula_sum              "Li4 Ni1 O6 V1"
_cell_length_a       4.95222
_cell_length_b       4.95222
_cell_length_c       4.97161
_cell_angle_alpha    99.1685
_cell_angle_beta     99.1685
_cell_angle_gamma    120.683

_space_group_name_H-M_alt    "P 1"
_space_group_IT_number       1

loop_
  _space_group_symop_operation_xyz
  'x, y, z'

loop_
  _atom_site_type_symbol
  _atom_site_label
  _atom_site_symmetry_multiplicity
  _atom_site_fract_x
  _atom_site_fract_y
  _atom_site_fract_z
  _atom_site_occupancy
  Li  Li1       1.0  0.49800  0.50200  0.00000  1.0000
  Li  Li2       1.0  0.99500  0.00459  0.50000  1.0000
  Li  Li3       1.0  0.66500  0.33500  0.50000  1.0000
  Li  Li4       1.0  0.34400  0.65600  0.50000  1.0000
  Ni  Ni1       1.0  0.83100  0.16900  0.00000  1.0000
  O   O1        1.0  0.57700  0.93400  0.22100  1.0000
  O   O2        1.0  0.94500  0.59400  0.23200  1.0000
  O   O3        1.0  0.23600  0.22200  0.23400  1.0000
  O   O4        1.0  0.77800  0.76400  0.76600  1.0000
  O   O5        1.0  0.40600  0.05520  0.76800  1.0000
  O   O6        1.0  0.06570  0.42300  0.77900  1.0000
  V   V1        1.0  0.15900  0.84100  0.00000  1.0000
