data_image0
_chemical_formula_structural       Li4MnO6Rh
_chemical_formula_sum              "Li4 Mn1 O6 Rh1"
_cell_length_a       5.00948
_cell_length_b       5.00948
_cell_length_c       5.01952
_cell_angle_alpha    99.7486
_cell_angle_beta     99.7486
_cell_angle_gamma    119.901

_space_group_name_H-M_alt    "P 1"
_space_group_IT_number       1

loop_
  _space_group_symop_operation_xyz
  'x, y, z'

loop_
  _atom_site_type_symbol
  _atom_site_label
  _atom_site_symmetry_multiplicity
  _atom_site_fract_x
  _atom_site_fract_y
  _atom_site_fract_z
  _atom_site_occupancy
  Li  Li1       1.0  0.50000  0.50000  0.00000  1.0000
  Li  Li2       1.0  0.00021  0.00000  0.50000  1.0000
  Li  Li3       1.0  0.66100  0.33900  0.50000  1.0000
  Li  Li4       1.0  0.34000  0.66000  0.50000  1.0000
  Mn  Mn1       1.0  0.16700  0.83300  0.00000  1.0000
  O   O1        1.0  0.93200  0.59100  0.23100  1.0000
  O   O2        1.0  0.56600  0.92000  0.23400  1.0000
  O   O3        1.0  0.23700  0.22500  0.23500  1.0000
  O   O4        1.0  0.77500  0.76300  0.76500  1.0000
  O   O5        1.0  0.08000  0.43400  0.76600  1.0000
  O   O6        1.0  0.40900  0.06750  0.76900  1.0000
  Rh  Rh1       1.0  0.83300  0.16700  0.00000  1.0000
