data_image0
_chemical_formula_structural       FeLi4O6Pt
_chemical_formula_sum              "Fe1 Li4 O6 Pt1"
_cell_length_a       5.07386
_cell_length_b       5.07386
_cell_length_c       5.05418
_cell_angle_alpha    99.7622
_cell_angle_beta     99.7622
_cell_angle_gamma    119.951

_space_group_name_H-M_alt    "P 1"
_space_group_IT_number       1

loop_
  _space_group_symop_operation_xyz
  'x, y, z'

loop_
  _atom_site_type_symbol
  _atom_site_label
  _atom_site_symmetry_multiplicity
  _atom_site_fract_x
  _atom_site_fract_y
  _atom_site_fract_z
  _atom_site_occupancy
  Fe  Fe1       1.0  0.16700  0.83300  0.00000  1.0000
  Li  Li1       1.0  0.50000  0.50000  0.00000  1.0000
  Li  Li2       1.0  0.00026  0.00000  0.50000  1.0000
  Li  Li3       1.0  0.66000  0.34000  0.50000  1.0000
  Li  Li4       1.0  0.33900  0.66100  0.50000  1.0000
  O   O1        1.0  0.92700  0.58300  0.23600  1.0000
  O   O2        1.0  0.57600  0.92400  0.23700  1.0000
  O   O3        1.0  0.23600  0.23200  0.23900  1.0000
  O   O4        1.0  0.76800  0.76400  0.76100  1.0000
  O   O5        1.0  0.07580  0.42400  0.76300  1.0000
  O   O6        1.0  0.41700  0.07290  0.76400  1.0000
  Pt  Pt1       1.0  0.83300  0.16700  0.00000  1.0000
