data_image0
_chemical_formula_structural       Li4MoO6Tc
_chemical_formula_sum              "Li4 Mo1 O6 Tc1"
_cell_length_a       4.94858
_cell_length_b       4.94858
_cell_length_c       5.19364
_cell_angle_alpha    99.5144
_cell_angle_beta     99.5144
_cell_angle_gamma    117.586

_space_group_name_H-M_alt    "P 1"
_space_group_IT_number       1

loop_
  _space_group_symop_operation_xyz
  'x, y, z'

loop_
  _atom_site_type_symbol
  _atom_site_label
  _atom_site_symmetry_multiplicity
  _atom_site_fract_x
  _atom_site_fract_y
  _atom_site_fract_z
  _atom_site_occupancy
  Li  Li1       1.0  0.50400  0.49600  0.00000  1.0000
  Li  Li2       1.0  0.00616  0.99400  0.50000  1.0000
  Li  Li3       1.0  0.66200  0.33800  0.50000  1.0000
  Li  Li4       1.0  0.33100  0.66900  0.50000  1.0000
  Mo  Mo1       1.0  0.85800  0.14200  0.00000  1.0000
  O   O1        1.0  0.58300  0.92800  0.22500  1.0000
  O   O2        1.0  0.92000  0.57300  0.23100  1.0000
  O   O3        1.0  0.25700  0.26400  0.26900  1.0000
  O   O4        1.0  0.73600  0.74300  0.73100  1.0000
  O   O5        1.0  0.42700  0.07980  0.76900  1.0000
  O   O6        1.0  0.07150  0.41700  0.77500  1.0000
  Tc  Tc1       1.0  0.14500  0.85500  0.00000  1.0000
