data_image0
_chemical_formula_structural       Li4MoO6Zr
_chemical_formula_sum              "Li4 Mo1 O6 Zr1"
_cell_length_a       5.22823
_cell_length_b       5.22823
_cell_length_c       5.1946
_cell_angle_alpha    99.5409
_cell_angle_beta     99.5409
_cell_angle_gamma    119.885

_space_group_name_H-M_alt    "P 1"
_space_group_IT_number       1

loop_
  _space_group_symop_operation_xyz
  'x, y, z'

loop_
  _atom_site_type_symbol
  _atom_site_label
  _atom_site_symmetry_multiplicity
  _atom_site_fract_x
  _atom_site_fract_y
  _atom_site_fract_z
  _atom_site_occupancy
  Li  Li1       1.0  0.50100  0.49900  0.00000  1.0000
  Li  Li2       1.0  0.99300  0.00710  0.50000  1.0000
  Li  Li3       1.0  0.65800  0.34200  0.50000  1.0000
  Li  Li4       1.0  0.34700  0.65300  0.50000  1.0000
  Mo  Mo1       1.0  0.83400  0.16600  0.00000  1.0000
  O   O1        1.0  0.59100  0.92700  0.23400  1.0000
  O   O2        1.0  0.91900  0.57100  0.24100  1.0000
  O   O3        1.0  0.23900  0.24600  0.24700  1.0000
  O   O4        1.0  0.75400  0.76100  0.75300  1.0000
  O   O5        1.0  0.42900  0.08050  0.75900  1.0000
  O   O6        1.0  0.07280  0.40900  0.76600  1.0000
  Zr  Zr1       1.0  0.16300  0.83700  0.00000  1.0000
