data_image0
_chemical_formula_structural       Li4MoO6Pb
_chemical_formula_sum              "Li4 Mo1 O6 Pb1"
_cell_length_a       5.5192
_cell_length_b       5.5192
_cell_length_c       5.18457
_cell_angle_alpha    100.268
_cell_angle_beta     100.268
_cell_angle_gamma    120.19

_space_group_name_H-M_alt    "P 1"
_space_group_IT_number       1

loop_
  _space_group_symop_operation_xyz
  'x, y, z'

loop_
  _atom_site_type_symbol
  _atom_site_label
  _atom_site_symmetry_multiplicity
  _atom_site_fract_x
  _atom_site_fract_y
  _atom_site_fract_z
  _atom_site_occupancy
  Li  Li1       1.0  0.50000  0.50000  0.00000  1.0000
  Li  Li2       1.0  0.01470  0.98500  0.50000  1.0000
  Li  Li3       1.0  0.65600  0.34400  0.50000  1.0000
  Li  Li4       1.0  0.33600  0.66400  0.50000  1.0000
  Mo  Mo1       1.0  0.16700  0.83300  0.00000  1.0000
  O   O1        1.0  0.93600  0.63500  0.22600  1.0000
  O   O2        1.0  0.27000  0.21300  0.24300  1.0000
  O   O3        1.0  0.51900  0.88500  0.24300  1.0000
  O   O4        1.0  0.11500  0.48100  0.75700  1.0000
  O   O5        1.0  0.78700  0.73000  0.75700  1.0000
  O   O6        1.0  0.36500  0.06370  0.77400  1.0000
  Pb  Pb1       1.0  0.83500  0.16500  0.00000  1.0000
