data_image0
_chemical_formula_structural       HfLi4O6Pt
_chemical_formula_sum              "Hf1 Li4 O6 Pt1"
_cell_length_a       5.16842
_cell_length_b       5.16842
_cell_length_c       5.20617
_cell_angle_alpha    99.4065
_cell_angle_beta     99.4065
_cell_angle_gamma    120.021

_space_group_name_H-M_alt    "P 1"
_space_group_IT_number       1

loop_
  _space_group_symop_operation_xyz
  'x, y, z'

loop_
  _atom_site_type_symbol
  _atom_site_label
  _atom_site_symmetry_multiplicity
  _atom_site_fract_x
  _atom_site_fract_y
  _atom_site_fract_z
  _atom_site_occupancy
  Hf  Hf1       1.0  0.16700  0.83300  0.00000  1.0000
  Li  Li1       1.0  0.50100  0.49900  0.00000  1.0000
  Li  Li2       1.0  0.98500  0.01550  0.50000  1.0000
  Li  Li3       1.0  0.66400  0.33600  0.50000  1.0000
  Li  Li4       1.0  0.34800  0.65200  0.50000  1.0000
  O   O1        1.0  0.58400  0.92300  0.24000  1.0000
  O   O2        1.0  0.92000  0.57400  0.24200  1.0000
  O   O3        1.0  0.23700  0.24100  0.24300  1.0000
  O   O4        1.0  0.75900  0.76300  0.75700  1.0000
  O   O5        1.0  0.42600  0.08050  0.75800  1.0000
  O   O6        1.0  0.07680  0.41600  0.76000  1.0000
  Pt  Pt1       1.0  0.83300  0.16700  0.00000  1.0000
