data_image0
_chemical_formula_structural       Li4MoO6Te
_chemical_formula_sum              "Li4 Mo1 O6 Te1"
_cell_length_a       5.37674
_cell_length_b       5.37674
_cell_length_c       5.19053
_cell_angle_alpha    100.024
_cell_angle_beta     100.024
_cell_angle_gamma    119.91

_space_group_name_H-M_alt    "P 1"
_space_group_IT_number       1

loop_
  _space_group_symop_operation_xyz
  'x, y, z'

loop_
  _atom_site_type_symbol
  _atom_site_label
  _atom_site_symmetry_multiplicity
  _atom_site_fract_x
  _atom_site_fract_y
  _atom_site_fract_z
  _atom_site_occupancy
  Li  Li1       1.0  0.50100  0.49900  0.00000  1.0000
  Li  Li2       1.0  0.99400  0.00646  0.50000  1.0000
  Li  Li3       1.0  0.66000  0.34000  0.50000  1.0000
  Li  Li4       1.0  0.34400  0.65600  0.50000  1.0000
  Mo  Mo1       1.0  0.83300  0.16700  0.00000  1.0000
  O   O1        1.0  0.58600  0.92700  0.23400  1.0000
  O   O2        1.0  0.92000  0.57100  0.23700  1.0000
  O   O3        1.0  0.23100  0.23900  0.24100  1.0000
  O   O4        1.0  0.76100  0.76900  0.75900  1.0000
  O   O5        1.0  0.42900  0.07980  0.76300  1.0000
  O   O6        1.0  0.07340  0.41400  0.76600  1.0000
  Te  Te1       1.0  0.16800  0.83200  0.00000  1.0000
