data_image0
_chemical_formula_structural       HfLi4NiO6
_chemical_formula_sum              "Hf1 Li4 Ni1 O6"
_cell_length_a       5.08238
_cell_length_b       5.08238
_cell_length_c       5.0789
_cell_angle_alpha    99.3033
_cell_angle_beta     99.3033
_cell_angle_gamma    120.221

_space_group_name_H-M_alt    "P 1"
_space_group_IT_number       1

loop_
  _space_group_symop_operation_xyz
  'x, y, z'

loop_
  _atom_site_type_symbol
  _atom_site_label
  _atom_site_symmetry_multiplicity
  _atom_site_fract_x
  _atom_site_fract_y
  _atom_site_fract_z
  _atom_site_occupancy
  Hf  Hf1       1.0  0.16500  0.83500  0.00000  1.0000
  Li  Li1       1.0  0.50000  0.50000  0.00000  1.0000
  Li  Li2       1.0  0.97400  0.02590  0.50000  1.0000
  Li  Li3       1.0  0.67200  0.32800  0.50000  1.0000
  Li  Li4       1.0  0.34800  0.65200  0.50000  1.0000
  Ni  Ni1       1.0  0.83400  0.16600  0.00000  1.0000
  O   O1        1.0  0.59800  0.93800  0.22700  1.0000
  O   O2        1.0  0.91700  0.54800  0.23300  1.0000
  O   O3        1.0  0.21300  0.23600  0.23600  1.0000
  O   O4        1.0  0.76400  0.78700  0.76400  1.0000
  O   O5        1.0  0.45200  0.08340  0.76700  1.0000
  O   O6        1.0  0.06220  0.40200  0.77300  1.0000
