data_image0
_chemical_formula_structural       Li4O6RhZr
_chemical_formula_sum              "Li4 O6 Rh1 Zr1"
_cell_length_a       5.17157
_cell_length_b       5.17157
_cell_length_c       5.18771
_cell_angle_alpha    99.4443
_cell_angle_beta     99.4443
_cell_angle_gamma    120.012

_space_group_name_H-M_alt    "P 1"
_space_group_IT_number       1

loop_
  _space_group_symop_operation_xyz
  'x, y, z'

loop_
  _atom_site_type_symbol
  _atom_site_label
  _atom_site_symmetry_multiplicity
  _atom_site_fract_x
  _atom_site_fract_y
  _atom_site_fract_z
  _atom_site_occupancy
  Li  Li1       1.0  0.50100  0.49900  0.00000  1.0000
  Li  Li2       1.0  0.98400  0.01580  0.50000  1.0000
  Li  Li3       1.0  0.66300  0.33700  0.50000  1.0000
  Li  Li4       1.0  0.34800  0.65200  0.50000  1.0000
  O   O1        1.0  0.59100  0.92600  0.23900  1.0000
  O   O2        1.0  0.91700  0.56800  0.24300  1.0000
  O   O3        1.0  0.23600  0.24500  0.24500  1.0000
  O   O4        1.0  0.75500  0.76400  0.75500  1.0000
  O   O5        1.0  0.43200  0.08280  0.75700  1.0000
  O   O6        1.0  0.07440  0.40900  0.76100  1.0000
  Rh  Rh1       1.0  0.83400  0.16600  0.00000  1.0000
  Zr  Zr1       1.0  0.16600  0.83400  0.00000  1.0000
