data_image0
_chemical_formula_structural       Li4MnO6Ti
_chemical_formula_sum              "Li4 Mn1 O6 Ti1"
_cell_length_a       4.99461
_cell_length_b       4.99461
_cell_length_c       5.03856
_cell_angle_alpha    99.674
_cell_angle_beta     99.674
_cell_angle_gamma    119.892

_space_group_name_H-M_alt    "P 1"
_space_group_IT_number       1

loop_
  _space_group_symop_operation_xyz
  'x, y, z'

loop_
  _atom_site_type_symbol
  _atom_site_label
  _atom_site_symmetry_multiplicity
  _atom_site_fract_x
  _atom_site_fract_y
  _atom_site_fract_z
  _atom_site_occupancy
  Li  Li1       1.0  0.50000  0.50000  0.00000  1.0000
  Li  Li2       1.0  0.00470  0.99500  0.50000  1.0000
  Li  Li3       1.0  0.65800  0.34200  0.50000  1.0000
  Li  Li4       1.0  0.33900  0.66100  0.50000  1.0000
  Mn  Mn1       1.0  0.16700  0.83300  0.00000  1.0000
  O   O1        1.0  0.93500  0.58400  0.22800  1.0000
  O   O2        1.0  0.57000  0.92900  0.23000  1.0000
  O   O3        1.0  0.22600  0.22000  0.23300  1.0000
  O   O4        1.0  0.78000  0.77400  0.76700  1.0000
  O   O5        1.0  0.07150  0.43000  0.77000  1.0000
  O   O6        1.0  0.41600  0.06540  0.77200  1.0000
  Ti  Ti1       1.0  0.83300  0.16700  0.00000  1.0000
