data_image0
_chemical_formula_structural       HfLi4MoO6
_chemical_formula_sum              "Hf1 Li4 Mo1 O6"
_cell_length_a       5.21363
_cell_length_b       5.21363
_cell_length_c       5.17392
_cell_angle_alpha    99.6686
_cell_angle_beta     99.6686
_cell_angle_gamma    119.919

_space_group_name_H-M_alt    "P 1"
_space_group_IT_number       1

loop_
  _space_group_symop_operation_xyz
  'x, y, z'

loop_
  _atom_site_type_symbol
  _atom_site_label
  _atom_site_symmetry_multiplicity
  _atom_site_fract_x
  _atom_site_fract_y
  _atom_site_fract_z
  _atom_site_occupancy
  Hf  Hf1       1.0  0.83500  0.16500  0.00000  1.0000
  Li  Li1       1.0  0.49900  0.50100  0.00000  1.0000
  Li  Li2       1.0  0.00637  0.99400  0.50000  1.0000
  Li  Li3       1.0  0.65400  0.34600  0.50000  1.0000
  Li  Li4       1.0  0.34200  0.65800  0.50000  1.0000
  Mo  Mo1       1.0  0.16700  0.83300  0.00000  1.0000
  O   O1        1.0  0.92600  0.58500  0.23500  1.0000
  O   O2        1.0  0.57600  0.92300  0.23800  1.0000
  O   O3        1.0  0.23900  0.23600  0.24200  1.0000
  O   O4        1.0  0.76400  0.76100  0.75800  1.0000
  O   O5        1.0  0.07740  0.42400  0.76200  1.0000
  O   O6        1.0  0.41500  0.07420  0.76500  1.0000
