data_image0
_chemical_formula_structural       Li4MoO6V
_chemical_formula_sum              "Li4 Mo1 O6 V1"
_cell_length_a       5.05074
_cell_length_b       5.05074
_cell_length_c       5.10996
_cell_angle_alpha    99.5197
_cell_angle_beta     99.5197
_cell_angle_gamma    119.983

_space_group_name_H-M_alt    "P 1"
_space_group_IT_number       1

loop_
  _space_group_symop_operation_xyz
  'x, y, z'

loop_
  _atom_site_type_symbol
  _atom_site_label
  _atom_site_symmetry_multiplicity
  _atom_site_fract_x
  _atom_site_fract_y
  _atom_site_fract_z
  _atom_site_occupancy
  Li  Li1       1.0  0.50000  0.50000  0.00000  1.0000
  Li  Li2       1.0  0.00261  0.99700  0.50000  1.0000
  Li  Li3       1.0  0.65600  0.34400  0.50000  1.0000
  Li  Li4       1.0  0.34100  0.65900  0.50000  1.0000
  Mo  Mo1       1.0  0.83300  0.16700  0.00000  1.0000
  O   O1        1.0  0.59000  0.92800  0.23700  1.0000
  O   O2        1.0  0.23200  0.24100  0.23900  1.0000
  O   O3        1.0  0.91800  0.57000  0.23900  1.0000
  O   O4        1.0  0.43000  0.08160  0.76100  1.0000
  O   O5        1.0  0.75900  0.76800  0.76100  1.0000
  O   O6        1.0  0.07210  0.41000  0.76300  1.0000
  V   V1        1.0  0.16700  0.83300  0.00000  1.0000
