data_image0
_chemical_formula_structural       Li4MnNiO6
_chemical_formula_sum              "Li4 Mn1 Ni1 O6"
_cell_length_a       4.87914
_cell_length_b       4.87914
_cell_length_c       4.96399
_cell_angle_alpha    99.5527
_cell_angle_beta     99.5527
_cell_angle_gamma    119.962

_space_group_name_H-M_alt    "P 1"
_space_group_IT_number       1

loop_
  _space_group_symop_operation_xyz
  'x, y, z'

loop_
  _atom_site_type_symbol
  _atom_site_label
  _atom_site_symmetry_multiplicity
  _atom_site_fract_x
  _atom_site_fract_y
  _atom_site_fract_z
  _atom_site_occupancy
  Li  Li1       1.0  0.50000  0.50000  0.00000  1.0000
  Li  Li2       1.0  0.00686  0.99300  0.50000  1.0000
  Li  Li3       1.0  0.65800  0.34200  0.50000  1.0000
  Li  Li4       1.0  0.33700  0.66300  0.50000  1.0000
  Mn  Mn1       1.0  0.83300  0.16700  0.00000  1.0000
  Ni  Ni1       1.0  0.16700  0.83300  0.00000  1.0000
  O   O1        1.0  0.93400  0.58100  0.22400  1.0000
  O   O2        1.0  0.57000  0.93000  0.22600  1.0000
  O   O3        1.0  0.22300  0.21800  0.22800  1.0000
  O   O4        1.0  0.78200  0.77700  0.77200  1.0000
  O   O5        1.0  0.07000  0.43000  0.77400  1.0000
  O   O6        1.0  0.41900  0.06560  0.77600  1.0000
