data_image0
_chemical_formula_structural       FeLi4O6Ti
_chemical_formula_sum              "Fe1 Li4 O6 Ti1"
_cell_length_a       4.97895
_cell_length_b       4.97895
_cell_length_c       5.02789
_cell_angle_alpha    99.4422
_cell_angle_beta     99.4422
_cell_angle_gamma    120.107

_space_group_name_H-M_alt    "P 1"
_space_group_IT_number       1

loop_
  _space_group_symop_operation_xyz
  'x, y, z'

loop_
  _atom_site_type_symbol
  _atom_site_label
  _atom_site_symmetry_multiplicity
  _atom_site_fract_x
  _atom_site_fract_y
  _atom_site_fract_z
  _atom_site_occupancy
  Fe  Fe1       1.0  0.16600  0.83400  0.00000  1.0000
  Li  Li1       1.0  0.49900  0.50100  0.00000  1.0000
  Li  Li2       1.0  0.00685  0.99300  0.50000  1.0000
  Li  Li3       1.0  0.65800  0.34200  0.50000  1.0000
  Li  Li4       1.0  0.33700  0.66300  0.50000  1.0000
  O   O1        1.0  0.93800  0.58900  0.22300  1.0000
  O   O2        1.0  0.57100  0.93000  0.23100  1.0000
  O   O3        1.0  0.22900  0.22200  0.23500  1.0000
  O   O4        1.0  0.77800  0.77100  0.76500  1.0000
  O   O5        1.0  0.07030  0.42900  0.76900  1.0000
  O   O6        1.0  0.41100  0.06220  0.77700  1.0000
  Ti  Ti1       1.0  0.83700  0.16300  0.00000  1.0000
