data_image0
_chemical_formula_structural       Li4MnO6Os
_chemical_formula_sum              "Li4 Mn1 O6 Os1"
_cell_length_a       5.10408
_cell_length_b       5.10408
_cell_length_c       5.03691
_cell_angle_alpha    99.2198
_cell_angle_beta     99.2198
_cell_angle_gamma    120.773

_space_group_name_H-M_alt    "P 1"
_space_group_IT_number       1

loop_
  _space_group_symop_operation_xyz
  'x, y, z'

loop_
  _atom_site_type_symbol
  _atom_site_label
  _atom_site_symmetry_multiplicity
  _atom_site_fract_x
  _atom_site_fract_y
  _atom_site_fract_z
  _atom_site_occupancy
  Li  Li1       1.0  0.50100  0.49900  0.00000  1.0000
  Li  Li2       1.0  0.00076  0.99900  0.50000  1.0000
  Li  Li3       1.0  0.66000  0.34000  0.50000  1.0000
  Li  Li4       1.0  0.34100  0.65900  0.50000  1.0000
  Mn  Mn1       1.0  0.83100  0.16900  0.00000  1.0000
  O   O1        1.0  0.57900  0.92900  0.22600  1.0000
  O   O2        1.0  0.24100  0.22700  0.23700  1.0000
  O   O3        1.0  0.93200  0.59400  0.24600  1.0000
  O   O4        1.0  0.40600  0.06790  0.75400  1.0000
  O   O5        1.0  0.77300  0.75900  0.76300  1.0000
  O   O6        1.0  0.07110  0.42100  0.77400  1.0000
  Os  Os1       1.0  0.16400  0.83600  0.00000  1.0000
