data_image0
_chemical_formula_structural       HfLi4O6Os
_chemical_formula_sum              "Hf1 Li4 O6 Os1"
_cell_length_a       5.12498
_cell_length_b       5.12498
_cell_length_c       5.20383
_cell_angle_alpha    99.3828
_cell_angle_beta     99.3828
_cell_angle_gamma    119.236

_space_group_name_H-M_alt    "P 1"
_space_group_IT_number       1

loop_
  _space_group_symop_operation_xyz
  'x, y, z'

loop_
  _atom_site_type_symbol
  _atom_site_label
  _atom_site_symmetry_multiplicity
  _atom_site_fract_x
  _atom_site_fract_y
  _atom_site_fract_z
  _atom_site_occupancy
  Hf  Hf1       1.0  0.84400  0.15600  0.00000  1.0000
  Li  Li1       1.0  0.49900  0.50100  0.00000  1.0000
  Li  Li2       1.0  0.00831  0.99200  0.50000  1.0000
  Li  Li3       1.0  0.65500  0.34500  0.50000  1.0000
  Li  Li4       1.0  0.34100  0.65900  0.50000  1.0000
  O   O1        1.0  0.92700  0.58900  0.22900  1.0000
  O   O2        1.0  0.57400  0.92400  0.23700  1.0000
  O   O3        1.0  0.25100  0.24700  0.25700  1.0000
  O   O4        1.0  0.75300  0.74900  0.74300  1.0000
  O   O5        1.0  0.07610  0.42600  0.76300  1.0000
  O   O6        1.0  0.41100  0.07300  0.77100  1.0000
  Os  Os1       1.0  0.16000  0.84000  0.00000  1.0000
