data_image0
_chemical_formula_structural       Li4O6OsTc
_chemical_formula_sum              "Li4 O6 Os1 Tc1"
_cell_length_a       4.92817
_cell_length_b       4.92817
_cell_length_c       5.18319
_cell_angle_alpha    99.7709
_cell_angle_beta     99.7709
_cell_angle_gamma    117.414

_space_group_name_H-M_alt    "P 1"
_space_group_IT_number       1

loop_
  _space_group_symop_operation_xyz
  'x, y, z'

loop_
  _atom_site_type_symbol
  _atom_site_label
  _atom_site_symmetry_multiplicity
  _atom_site_fract_x
  _atom_site_fract_y
  _atom_site_fract_z
  _atom_site_occupancy
  Li  Li1       1.0  0.50100  0.49900  0.00000  1.0000
  Li  Li2       1.0  0.00181  0.99800  0.50000  1.0000
  Li  Li3       1.0  0.66600  0.33400  0.50000  1.0000
  Li  Li4       1.0  0.33300  0.66700  0.50000  1.0000
  O   O1        1.0  0.57000  0.91700  0.22900  1.0000
  O   O2        1.0  0.91600  0.57200  0.23100  1.0000
  O   O3        1.0  0.25800  0.25800  0.26500  1.0000
  O   O4        1.0  0.74200  0.74200  0.73500  1.0000
  O   O5        1.0  0.42800  0.08390  0.76900  1.0000
  O   O6        1.0  0.08270  0.43000  0.77100  1.0000
  Os  Os1       1.0  0.14900  0.85100  0.00000  1.0000
  Tc  Tc1       1.0  0.85200  0.14800  0.00000  1.0000
