data_image0
_chemical_formula_structural       Li4MoO6Ru
_chemical_formula_sum              "Li4 Mo1 O6 Ru1"
_cell_length_a       4.91016
_cell_length_b       4.91016
_cell_length_c       5.20179
_cell_angle_alpha    99.0357
_cell_angle_beta     99.0357
_cell_angle_gamma    119.952

_space_group_name_H-M_alt    "P 1"
_space_group_IT_number       1

loop_
  _space_group_symop_operation_xyz
  'x, y, z'

loop_
  _atom_site_type_symbol
  _atom_site_label
  _atom_site_symmetry_multiplicity
  _atom_site_fract_x
  _atom_site_fract_y
  _atom_site_fract_z
  _atom_site_occupancy
  Li  Li1       1.0  0.50000  0.50000  0.00000  1.0000
  Li  Li2       1.0  0.99600  0.00427  0.50000  1.0000
  Li  Li3       1.0  0.66200  0.33800  0.50000  1.0000
  Li  Li4       1.0  0.34300  0.65700  0.50000  1.0000
  Mo  Mo1       1.0  0.16700  0.83300  0.00000  1.0000
  O   O1        1.0  0.25900  0.24700  0.24400  1.0000
  O   O2        1.0  0.91600  0.59400  0.24400  1.0000
  O   O3        1.0  0.56900  0.90500  0.24600  1.0000
  O   O4        1.0  0.09510  0.43100  0.75400  1.0000
  O   O5        1.0  0.40600  0.08350  0.75600  1.0000
  O   O6        1.0  0.75300  0.74100  0.75600  1.0000
  Ru  Ru1       1.0  0.83300  0.16700  0.00000  1.0000
