data_image0
_chemical_formula_structural       Li4MnO6Sb
_chemical_formula_sum              "Li4 Mn1 O6 Sb1"
_cell_length_a       5.1843
_cell_length_b       5.1843
_cell_length_c       5.09228
_cell_angle_alpha    99.0208
_cell_angle_beta     99.0208
_cell_angle_gamma    120.99

_space_group_name_H-M_alt    "P 1"
_space_group_IT_number       1

loop_
  _space_group_symop_operation_xyz
  'x, y, z'

loop_
  _atom_site_type_symbol
  _atom_site_label
  _atom_site_symmetry_multiplicity
  _atom_site_fract_x
  _atom_site_fract_y
  _atom_site_fract_z
  _atom_site_occupancy
  Li  Li1       1.0  0.50000  0.50000  0.00000  1.0000
  Li  Li2       1.0  0.99900  0.00079  0.50000  1.0000
  Li  Li3       1.0  0.65900  0.34100  0.50000  1.0000
  Li  Li4       1.0  0.34400  0.65600  0.50000  1.0000
  Mn  Mn1       1.0  0.83100  0.16900  0.00000  1.0000
  O   O1        1.0  0.58100  0.93300  0.22400  1.0000
  O   O2        1.0  0.23900  0.22800  0.23900  1.0000
  O   O3        1.0  0.93600  0.59000  0.24200  1.0000
  O   O4        1.0  0.41000  0.06380  0.75800  1.0000
  O   O5        1.0  0.77200  0.76100  0.76100  1.0000
  O   O6        1.0  0.06650  0.41900  0.77600  1.0000
  Sb  Sb1       1.0  0.16300  0.83700  0.00000  1.0000
