data_image0
_chemical_formula_structural       CrLi4O6Zr
_chemical_formula_sum              "Cr1 Li4 O6 Zr1"
_cell_length_a       5.1756
_cell_length_b       5.1756
_cell_length_c       5.10956
_cell_angle_alpha    99.5207
_cell_angle_beta     99.5207
_cell_angle_gamma    120.202

_space_group_name_H-M_alt    "P 1"
_space_group_IT_number       1

loop_
  _space_group_symop_operation_xyz
  'x, y, z'

loop_
  _atom_site_type_symbol
  _atom_site_label
  _atom_site_symmetry_multiplicity
  _atom_site_fract_x
  _atom_site_fract_y
  _atom_site_fract_z
  _atom_site_occupancy
  Cr  Cr1       1.0  0.83300  0.16700  0.00000  1.0000
  Li  Li1       1.0  0.50100  0.49900  0.00000  1.0000
  Li  Li2       1.0  0.98300  0.01730  0.50000  1.0000
  Li  Li3       1.0  0.66300  0.33700  0.50000  1.0000
  Li  Li4       1.0  0.34800  0.65200  0.50000  1.0000
  O   O1        1.0  0.60100  0.93800  0.22800  1.0000
  O   O2        1.0  0.91900  0.55600  0.23600  1.0000
  O   O3        1.0  0.22100  0.23900  0.24000  1.0000
  O   O4        1.0  0.76100  0.77900  0.76000  1.0000
  O   O5        1.0  0.44400  0.08090  0.76400  1.0000
  O   O6        1.0  0.06160  0.39900  0.77200  1.0000
  Zr  Zr1       1.0  0.16500  0.83500  0.00000  1.0000
