data_image0
_chemical_formula_structural       CrIrLi4O6
_chemical_formula_sum              "Cr1 Ir1 Li4 O6"
_cell_length_a       5.06393
_cell_length_b       5.06393
_cell_length_c       5.05029
_cell_angle_alpha    99.7377
_cell_angle_beta     99.7377
_cell_angle_gamma    119.952

_space_group_name_H-M_alt    "P 1"
_space_group_IT_number       1

loop_
  _space_group_symop_operation_xyz
  'x, y, z'

loop_
  _atom_site_type_symbol
  _atom_site_label
  _atom_site_symmetry_multiplicity
  _atom_site_fract_x
  _atom_site_fract_y
  _atom_site_fract_z
  _atom_site_occupancy
  Cr  Cr1       1.0  0.16700  0.83300  0.00000  1.0000
  Ir  Ir1       1.0  0.83300  0.16700  0.00000  1.0000
  Li  Li1       1.0  0.50000  0.50000  0.00000  1.0000
  Li  Li2       1.0  0.00019  0.00000  0.50000  1.0000
  Li  Li3       1.0  0.65900  0.34100  0.50000  1.0000
  Li  Li4       1.0  0.34000  0.66000  0.50000  1.0000
  O   O1        1.0  0.58200  0.92700  0.23500  1.0000
  O   O2        1.0  0.92500  0.57700  0.23600  1.0000
  O   O3        1.0  0.23200  0.23500  0.23800  1.0000
  O   O4        1.0  0.76500  0.76800  0.76200  1.0000
  O   O5        1.0  0.42300  0.07540  0.76400  1.0000
  O   O6        1.0  0.07290  0.41800  0.76500  1.0000
