data_image0
_chemical_formula_structural       IrLi4NiO6
_chemical_formula_sum              "Ir1 Li4 Ni1 O6"
_cell_length_a       5.0463
_cell_length_b       5.0463
_cell_length_c       5.02547
_cell_angle_alpha    99.774
_cell_angle_beta     99.774
_cell_angle_gamma    119.913

_space_group_name_H-M_alt    "P 1"
_space_group_IT_number       1

loop_
  _space_group_symop_operation_xyz
  'x, y, z'

loop_
  _atom_site_type_symbol
  _atom_site_label
  _atom_site_symmetry_multiplicity
  _atom_site_fract_x
  _atom_site_fract_y
  _atom_site_fract_z
  _atom_site_occupancy
  Ir  Ir1       1.0  0.16700  0.83300  0.00000  1.0000
  Li  Li1       1.0  0.50000  0.50000  0.00000  1.0000
  Li  Li2       1.0  0.99700  0.00302  0.50000  1.0000
  Li  Li3       1.0  0.66200  0.33800  0.50000  1.0000
  Li  Li4       1.0  0.34100  0.65900  0.50000  1.0000
  Ni  Ni1       1.0  0.83300  0.16700  0.00000  1.0000
  O   O1        1.0  0.93100  0.59100  0.23400  1.0000
  O   O2        1.0  0.56800  0.92000  0.23700  1.0000
  O   O3        1.0  0.23900  0.22800  0.23800  1.0000
  O   O4        1.0  0.77200  0.76100  0.76200  1.0000
  O   O5        1.0  0.08020  0.43200  0.76300  1.0000
  O   O6        1.0  0.40900  0.06910  0.76600  1.0000
