data_image0
_chemical_formula_structural       IrLi4O6Os
_chemical_formula_sum              "Ir1 Li4 O6 Os1"
_cell_length_a       5.06892
_cell_length_b       5.06892
_cell_length_c       5.1209
_cell_angle_alpha    99.595
_cell_angle_beta     99.595
_cell_angle_gamma    119.856

_space_group_name_H-M_alt    "P 1"
_space_group_IT_number       1

loop_
  _space_group_symop_operation_xyz
  'x, y, z'

loop_
  _atom_site_type_symbol
  _atom_site_label
  _atom_site_symmetry_multiplicity
  _atom_site_fract_x
  _atom_site_fract_y
  _atom_site_fract_z
  _atom_site_occupancy
  Ir  Ir1       1.0  0.16700  0.83300  0.00000  1.0000
  Li  Li1       1.0  0.50000  0.50000  0.00000  1.0000
  Li  Li2       1.0  0.00181  0.99800  0.50000  1.0000
  Li  Li3       1.0  0.65900  0.34100  0.50000  1.0000
  Li  Li4       1.0  0.33900  0.66100  0.50000  1.0000
  O   O1        1.0  0.59000  0.92500  0.24100  1.0000
  O   O2        1.0  0.91600  0.57200  0.24200  1.0000
  O   O3        1.0  0.23900  0.24700  0.24400  1.0000
  O   O4        1.0  0.75300  0.76100  0.75600  1.0000
  O   O5        1.0  0.42800  0.08370  0.75800  1.0000
  O   O6        1.0  0.07540  0.41000  0.75900  1.0000
  Os  Os1       1.0  0.83300  0.16700  0.00000  1.0000
