data_image0
_chemical_formula_structural       AlLi4MoO6
_chemical_formula_sum              "Al1 Li4 Mo1 O6"
_cell_length_a       5.04233
_cell_length_b       5.04233
_cell_length_c       5.05411
_cell_angle_alpha    99.7309
_cell_angle_beta     99.7309
_cell_angle_gamma    119.89

_space_group_name_H-M_alt    "P 1"
_space_group_IT_number       1

loop_
  _space_group_symop_operation_xyz
  'x, y, z'

loop_
  _atom_site_type_symbol
  _atom_site_label
  _atom_site_symmetry_multiplicity
  _atom_site_fract_x
  _atom_site_fract_y
  _atom_site_fract_z
  _atom_site_occupancy
  Al  Al1       1.0  0.16700  0.83300  0.00000  1.0000
  Li  Li1       1.0  0.50000  0.50000  0.00000  1.0000
  Li  Li2       1.0  0.00400  0.99600  0.50000  1.0000
  Li  Li3       1.0  0.65800  0.34200  0.50000  1.0000
  Li  Li4       1.0  0.34000  0.66000  0.50000  1.0000
  Mo  Mo1       1.0  0.83200  0.16800  0.00000  1.0000
  O   O1        1.0  0.93700  0.58700  0.22600  1.0000
  O   O2        1.0  0.56800  0.92700  0.22800  1.0000
  O   O3        1.0  0.22600  0.21700  0.23100  1.0000
  O   O4        1.0  0.78300  0.77400  0.76900  1.0000
  O   O5        1.0  0.07260  0.43200  0.77200  1.0000
  O   O6        1.0  0.41300  0.06260  0.77400  1.0000
