data_image0
_chemical_formula_structural       Li4MoNpO6
_chemical_formula_sum              "Li4 Mo1 Np1 O6"
_cell_length_a       5.45925
_cell_length_b       5.45925
_cell_length_c       5.15496
_cell_angle_alpha    98.3796
_cell_angle_beta     98.3796
_cell_angle_gamma    121.285

_space_group_name_H-M_alt    "P 1"
_space_group_IT_number       1

loop_
  _space_group_symop_operation_xyz
  'x, y, z'

loop_
  _atom_site_type_symbol
  _atom_site_label
  _atom_site_symmetry_multiplicity
  _atom_site_fract_x
  _atom_site_fract_y
  _atom_site_fract_z
  _atom_site_occupancy
  Li  Li1       1.0  0.50000  0.50000  0.00000  1.0000
  Li  Li2       1.0  0.96600  0.03380  0.50000  1.0000
  Li  Li3       1.0  0.63000  0.37000  0.50000  1.0000
  Li  Li4       1.0  0.35500  0.64500  0.50000  1.0000
  Mo  Mo1       1.0  0.83800  0.16200  0.00000  1.0000
  Np  Np1       1.0  0.16000  0.84000  0.00000  1.0000
  O   O1        1.0  0.61200  0.91000  0.21800  1.0000
  O   O2        1.0  0.89800  0.52500  0.24400  1.0000
  O   O3        1.0  0.23100  0.25500  0.26100  1.0000
  O   O4        1.0  0.74500  0.76900  0.73900  1.0000
  O   O5        1.0  0.47500  0.10200  0.75600  1.0000
  O   O6        1.0  0.08990  0.38800  0.78200  1.0000
