data_image0
_chemical_formula_structural       Li4O6PdU
_chemical_formula_sum              "Li4 O6 Pd1 U1"
_cell_length_a       5.31599
_cell_length_b       5.31599
_cell_length_c       5.25603
_cell_angle_alpha    99.2622
_cell_angle_beta     99.2622
_cell_angle_gamma    120.26

_space_group_name_H-M_alt    "P 1"
_space_group_IT_number       1

loop_
  _space_group_symop_operation_xyz
  'x, y, z'

loop_
  _atom_site_type_symbol
  _atom_site_label
  _atom_site_symmetry_multiplicity
  _atom_site_fract_x
  _atom_site_fract_y
  _atom_site_fract_z
  _atom_site_occupancy
  Li  Li1       1.0  0.50000  0.50000  0.00000  1.0000
  Li  Li2       1.0  0.98300  0.01720  0.50000  1.0000
  Li  Li3       1.0  0.66600  0.33400  0.50000  1.0000
  Li  Li4       1.0  0.35700  0.64300  0.50000  1.0000
  O   O1        1.0  0.92000  0.60200  0.24700  1.0000
  O   O2        1.0  0.26200  0.24600  0.25100  1.0000
  O   O3        1.0  0.56600  0.90700  0.25500  1.0000
  O   O4        1.0  0.09300  0.43400  0.74500  1.0000
  O   O5        1.0  0.75400  0.73800  0.74900  1.0000
  O   O6        1.0  0.39800  0.07960  0.75300  1.0000
  Pd  Pd1       1.0  0.83300  0.16700  0.00000  1.0000
  U   U1        1.0  0.16600  0.83400  0.00000  1.0000
