data_image0
_chemical_formula_structural       AsFeLi4O6
_chemical_formula_sum              "As1 Fe1 Li4 O6"
_cell_length_a       4.98957
_cell_length_b       4.98957
_cell_length_c       5.02477
_cell_angle_alpha    99.8826
_cell_angle_beta     99.8826
_cell_angle_gamma    119.694

_space_group_name_H-M_alt    "P 1"
_space_group_IT_number       1

loop_
  _space_group_symop_operation_xyz
  'x, y, z'

loop_
  _atom_site_type_symbol
  _atom_site_label
  _atom_site_symmetry_multiplicity
  _atom_site_fract_x
  _atom_site_fract_y
  _atom_site_fract_z
  _atom_site_occupancy
  As  As1       1.0  0.16800  0.83200  0.00000  1.0000
  Fe  Fe1       1.0  0.83300  0.16700  0.00000  1.0000
  Li  Li1       1.0  0.50000  0.50000  0.00000  1.0000
  Li  Li2       1.0  0.66000  0.34000  0.50000  1.0000
  Li  Li3       1.0  0.33900  0.66100  0.50000  1.0000
  Li  Li4       1.0  0.00279  0.99700  0.50000  1.0000
  O   O1        1.0  0.94300  0.59900  0.22300  1.0000
  O   O2        1.0  0.55600  0.92200  0.23000  1.0000
  O   O3        1.0  0.23100  0.21100  0.23100  1.0000
  O   O4        1.0  0.78900  0.76900  0.76900  1.0000
  O   O5        1.0  0.07810  0.44400  0.77000  1.0000
  O   O6        1.0  0.40100  0.05720  0.77700  1.0000
