data_image0
_chemical_formula_structural       AsBiLi4O6
_chemical_formula_sum              "As1 Bi1 Li4 O6"
_cell_length_a       5.43724
_cell_length_b       5.43724
_cell_length_c       5.25
_cell_angle_alpha    99.2566
_cell_angle_beta     99.2566
_cell_angle_gamma    120.826

_space_group_name_H-M_alt    "P 1"
_space_group_IT_number       1

loop_
  _space_group_symop_operation_xyz
  'x, y, z'

loop_
  _atom_site_type_symbol
  _atom_site_label
  _atom_site_symmetry_multiplicity
  _atom_site_fract_x
  _atom_site_fract_y
  _atom_site_fract_z
  _atom_site_occupancy
  As  As1       1.0  0.18100  0.81900  0.00000  1.0000
  Bi  Bi1       1.0  0.84200  0.15800  0.00000  1.0000
  Li  Li1       1.0  0.50900  0.49100  0.00000  1.0000
  Li  Li2       1.0  0.02810  0.97200  0.50000  1.0000
  Li  Li3       1.0  0.64100  0.35900  0.50000  1.0000
  Li  Li4       1.0  0.33900  0.66100  0.50000  1.0000
  O   O1        1.0  0.54900  0.90600  0.22300  1.0000
  O   O2        1.0  0.91300  0.56300  0.23700  1.0000
  O   O3        1.0  0.23000  0.26400  0.27700  1.0000
  O   O4        1.0  0.73600  0.77000  0.72300  1.0000
  O   O5        1.0  0.43700  0.08680  0.76300  1.0000
  O   O6        1.0  0.09390  0.45100  0.77700  1.0000
