data_image0
_chemical_formula_structural       Li4MoO6Sb
_chemical_formula_sum              "Li4 Mo1 O6 Sb1"
_cell_length_a       5.28355
_cell_length_b       5.28355
_cell_length_c       5.14923
_cell_angle_alpha    100.015
_cell_angle_beta     100.015
_cell_angle_gamma    119.861

_space_group_name_H-M_alt    "P 1"
_space_group_IT_number       1

loop_
  _space_group_symop_operation_xyz
  'x, y, z'

loop_
  _atom_site_type_symbol
  _atom_site_label
  _atom_site_symmetry_multiplicity
  _atom_site_fract_x
  _atom_site_fract_y
  _atom_site_fract_z
  _atom_site_occupancy
  Li  Li1       1.0  0.50000  0.50000  0.00000  1.0000
  Li  Li2       1.0  0.99900  0.00066  0.50000  1.0000
  Li  Li3       1.0  0.66000  0.34000  0.50000  1.0000
  Li  Li4       1.0  0.34100  0.65900  0.50000  1.0000
  Mo  Mo1       1.0  0.83300  0.16700  0.00000  1.0000
  O   O1        1.0  0.93200  0.59400  0.23400  1.0000
  O   O2        1.0  0.56600  0.91900  0.23800  1.0000
  O   O3        1.0  0.24100  0.22600  0.24000  1.0000
  O   O4        1.0  0.77400  0.75900  0.76000  1.0000
  O   O5        1.0  0.08100  0.43400  0.76200  1.0000
  O   O6        1.0  0.40600  0.06810  0.76600  1.0000
  Sb  Sb1       1.0  0.16700  0.83300  0.00000  1.0000
