data_image0
_chemical_formula_structural       Li4NiO6Sb
_chemical_formula_sum              "Li4 Ni1 O6 Sb1"
_cell_length_a       5.09604
_cell_length_b       5.09604
_cell_length_c       5.0742
_cell_angle_alpha    99.1032
_cell_angle_beta     99.1031
_cell_angle_gamma    120.743

_space_group_name_H-M_alt    "P 1"
_space_group_IT_number       1

loop_
  _space_group_symop_operation_xyz
  'x, y, z'

loop_
  _atom_site_type_symbol
  _atom_site_label
  _atom_site_symmetry_multiplicity
  _atom_site_fract_x
  _atom_site_fract_y
  _atom_site_fract_z
  _atom_site_occupancy
  Li  Li1       1.0  0.50000  0.50000  0.00000  1.0000
  Li  Li2       1.0  0.99000  0.00985  0.50000  1.0000
  Li  Li3       1.0  0.34600  0.65400  0.50000  1.0000
  Li  Li4       1.0  0.66200  0.33800  0.50000  1.0000
  Ni  Ni1       1.0  0.83100  0.16900  0.00000  1.0000
  O   O1        1.0  0.58700  0.93700  0.22200  1.0000
  O   O2        1.0  0.23300  0.23000  0.23900  1.0000
  O   O3        1.0  0.93400  0.58000  0.23900  1.0000
  O   O4        1.0  0.42000  0.06580  0.76100  1.0000
  O   O5        1.0  0.77000  0.76700  0.76100  1.0000
  O   O6        1.0  0.06270  0.41300  0.77800  1.0000
  Sb  Sb1       1.0  0.16300  0.83700  0.00000  1.0000
