data_image0
_chemical_formula_structural       BiLi4NiO6
_chemical_formula_sum              "Bi1 Li4 Ni1 O6"
_cell_length_a       5.20719
_cell_length_b       5.20719
_cell_length_c       5.12731
_cell_angle_alpha    99.1011
_cell_angle_beta     99.1011
_cell_angle_gamma    120.766

_space_group_name_H-M_alt    "P 1"
_space_group_IT_number       1

loop_
  _space_group_symop_operation_xyz
  'x, y, z'

loop_
  _atom_site_type_symbol
  _atom_site_label
  _atom_site_symmetry_multiplicity
  _atom_site_fract_x
  _atom_site_fract_y
  _atom_site_fract_z
  _atom_site_occupancy
  Bi  Bi1       1.0  0.16200  0.83800  0.00000  1.0000
  Li  Li1       1.0  0.50000  0.50000  0.00000  1.0000
  Li  Li2       1.0  0.98500  0.01480  0.50000  1.0000
  Li  Li3       1.0  0.66400  0.33600  0.50000  1.0000
  Li  Li4       1.0  0.34700  0.65300  0.50000  1.0000
  Ni  Ni1       1.0  0.83200  0.16800  0.00000  1.0000
  O   O1        1.0  0.60500  0.94200  0.22500  1.0000
  O   O2        1.0  0.23200  0.24400  0.24500  1.0000
  O   O3        1.0  0.92500  0.56600  0.24500  1.0000
  O   O4        1.0  0.43400  0.07520  0.75500  1.0000
  O   O5        1.0  0.75600  0.76800  0.75500  1.0000
  O   O6        1.0  0.05820  0.39500  0.77500  1.0000
