data_image0
_chemical_formula_structural       Ca2ClN
_chemical_formula_sum              "Ca2 Cl1 N1"
_cell_length_a       3.64821
_cell_length_b       3.64821
_cell_length_c       6.91406
_cell_angle_alpha    90
_cell_angle_beta     105.297
_cell_angle_gamma    60

_space_group_name_H-M_alt    "P 1"
_space_group_IT_number       1

loop_
  _space_group_symop_operation_xyz
  'x, y, z'

loop_
  _atom_site_type_symbol
  _atom_site_label
  _atom_site_symmetry_multiplicity
  _atom_site_fract_x
  _atom_site_fract_y
  _atom_site_fract_z
  _atom_site_occupancy
  Ca  Ca1       1.0  0.54200  0.22900  0.31300  1.0000
  Ca  Ca2       1.0  0.45800  0.77100  0.68700  1.0000
  Cl  Cl1       1.0  0.00000  0.00000  0.00000  1.0000
  N   N1        1.0  1.00000  0.50000  0.50000  1.0000
