data_image0
_chemical_formula_structural       FeLi4O6Sb
_chemical_formula_sum              "Fe1 Li4 O6 Sb1"
_cell_length_a       5.14558
_cell_length_b       5.14558
_cell_length_c       5.13727
_cell_angle_alpha    99.8087
_cell_angle_beta     99.8087
_cell_angle_gamma    119.799

_space_group_name_H-M_alt    "P 1"
_space_group_IT_number       1

loop_
  _space_group_symop_operation_xyz
  'x, y, z'

loop_
  _atom_site_type_symbol
  _atom_site_label
  _atom_site_symmetry_multiplicity
  _atom_site_fract_x
  _atom_site_fract_y
  _atom_site_fract_z
  _atom_site_occupancy
  Fe  Fe1       1.0  0.83200  0.16800  0.00000  1.0000
  Li  Li1       1.0  0.50000  0.50000  0.00000  1.0000
  Li  Li2       1.0  0.66100  0.33900  0.50000  1.0000
  Li  Li3       1.0  0.34300  0.65700  0.50000  1.0000
  Li  Li4       1.0  0.99400  0.00556  0.50000  1.0000
  O   O1        1.0  0.93200  0.58300  0.23200  1.0000
  O   O2        1.0  0.57500  0.92800  0.23500  1.0000
  O   O3        1.0  0.22900  0.22500  0.23700  1.0000
  O   O4        1.0  0.77500  0.77100  0.76300  1.0000
  O   O5        1.0  0.07230  0.42500  0.76500  1.0000
  O   O6        1.0  0.41700  0.06830  0.76800  1.0000
  Sb  Sb1       1.0  0.16700  0.83300  0.00000  1.0000
