data_image0
_chemical_formula_structural       Li4O6PdZr
_chemical_formula_sum              "Li4 O6 Pd1 Zr1"
_cell_length_a       5.19295
_cell_length_b       5.19295
_cell_length_c       5.19915
_cell_angle_alpha    99.3762
_cell_angle_beta     99.3762
_cell_angle_gamma    120.103

_space_group_name_H-M_alt    "P 1"
_space_group_IT_number       1

loop_
  _space_group_symop_operation_xyz
  'x, y, z'

loop_
  _atom_site_type_symbol
  _atom_site_label
  _atom_site_symmetry_multiplicity
  _atom_site_fract_x
  _atom_site_fract_y
  _atom_site_fract_z
  _atom_site_occupancy
  Li  Li1       1.0  0.50100  0.49900  0.00000  1.0000
  Li  Li2       1.0  0.98000  0.02020  0.50000  1.0000
  Li  Li3       1.0  0.66700  0.33300  0.50000  1.0000
  Li  Li4       1.0  0.34900  0.65100  0.50000  1.0000
  O   O1        1.0  0.58900  0.92600  0.24000  1.0000
  O   O2        1.0  0.91700  0.56700  0.24300  1.0000
  O   O3        1.0  0.23300  0.24200  0.24500  1.0000
  O   O4        1.0  0.75800  0.76700  0.75500  1.0000
  O   O5        1.0  0.43300  0.08250  0.75700  1.0000
  O   O6        1.0  0.07410  0.41100  0.76000  1.0000
  Pd  Pd1       1.0  0.83400  0.16600  0.00000  1.0000
  Zr  Zr1       1.0  0.16600  0.83400  0.00000  1.0000
