data_image0
_chemical_formula_structural       HfIrLi4O6
_chemical_formula_sum              "Hf1 Ir1 Li4 O6"
_cell_length_a       5.14065
_cell_length_b       5.14065
_cell_length_c       5.19756
_cell_angle_alpha    99.4615
_cell_angle_beta     99.4615
_cell_angle_gamma    119.867

_space_group_name_H-M_alt    "P 1"
_space_group_IT_number       1

loop_
  _space_group_symop_operation_xyz
  'x, y, z'

loop_
  _atom_site_type_symbol
  _atom_site_label
  _atom_site_symmetry_multiplicity
  _atom_site_fract_x
  _atom_site_fract_y
  _atom_site_fract_z
  _atom_site_occupancy
  Hf  Hf1       1.0  0.83500  0.16500  0.00000  1.0000
  Ir  Ir1       1.0  0.16600  0.83400  0.00000  1.0000
  Li  Li1       1.0  0.49900  0.50100  0.00000  1.0000
  Li  Li2       1.0  0.01170  0.98800  0.50000  1.0000
  Li  Li3       1.0  0.65300  0.34700  0.50000  1.0000
  Li  Li4       1.0  0.33900  0.66100  0.50000  1.0000
  O   O1        1.0  0.92400  0.58600  0.23900  1.0000
  O   O2        1.0  0.57400  0.91900  0.24200  1.0000
  O   O3        1.0  0.24400  0.23900  0.24500  1.0000
  O   O4        1.0  0.76100  0.75600  0.75500  1.0000
  O   O5        1.0  0.08050  0.42600  0.75800  1.0000
  O   O6        1.0  0.41400  0.07640  0.76100  1.0000
