data_image0
_chemical_formula_structural       Li4MnO6Zr
_chemical_formula_sum              "Li4 Mn1 O6 Zr1"
_cell_length_a       5.16342
_cell_length_b       5.16342
_cell_length_c       5.11726
_cell_angle_alpha    99.5727
_cell_angle_beta     99.5727
_cell_angle_gamma    120.092

_space_group_name_H-M_alt    "P 1"
_space_group_IT_number       1

loop_
  _space_group_symop_operation_xyz
  'x, y, z'

loop_
  _atom_site_type_symbol
  _atom_site_label
  _atom_site_symmetry_multiplicity
  _atom_site_fract_x
  _atom_site_fract_y
  _atom_site_fract_z
  _atom_site_occupancy
  Li  Li1       1.0  0.50100  0.49900  0.00000  1.0000
  Li  Li2       1.0  0.97800  0.02240  0.50000  1.0000
  Li  Li3       1.0  0.66800  0.33200  0.50000  1.0000
  Li  Li4       1.0  0.34900  0.65100  0.50000  1.0000
  Mn  Mn1       1.0  0.83300  0.16700  0.00000  1.0000
  O   O1        1.0  0.59900  0.93700  0.22900  1.0000
  O   O2        1.0  0.91800  0.55200  0.23500  1.0000
  O   O3        1.0  0.21700  0.23800  0.23800  1.0000
  O   O4        1.0  0.76200  0.78300  0.76200  1.0000
  O   O5        1.0  0.44800  0.08230  0.76500  1.0000
  O   O6        1.0  0.06300  0.40100  0.77100  1.0000
  Zr  Zr1       1.0  0.16600  0.83400  0.00000  1.0000
