data_image0
_chemical_formula_structural       BBiLi4O6
_chemical_formula_sum              "B1 Bi1 Li4 O6"
_cell_length_a       5.34594
_cell_length_b       5.34594
_cell_length_c       4.95825
_cell_angle_alpha    96.4848
_cell_angle_beta     96.4848
_cell_angle_gamma    125.487

_space_group_name_H-M_alt    "P 1"
_space_group_IT_number       1

loop_
  _space_group_symop_operation_xyz
  'x, y, z'

loop_
  _atom_site_type_symbol
  _atom_site_label
  _atom_site_symmetry_multiplicity
  _atom_site_fract_x
  _atom_site_fract_y
  _atom_site_fract_z
  _atom_site_occupancy
  B   B1        1.0  0.78100  0.21900  0.00000  1.0000
  Bi  Bi1       1.0  0.15100  0.84900  0.00000  1.0000
  Li  Li1       1.0  0.47900  0.52100  0.00000  1.0000
  Li  Li2       1.0  0.65800  0.34200  0.50000  1.0000
  Li  Li3       1.0  0.36600  0.63400  0.50000  1.0000
  Li  Li4       1.0  0.94900  0.05110  0.50000  1.0000
  O   O1        1.0  0.64000  0.96400  0.17000  1.0000
  O   O2        1.0  0.90200  0.50500  0.22500  1.0000
  O   O3        1.0  0.27600  0.23300  0.28400  1.0000
  O   O4        1.0  0.76700  0.72400  0.71600  1.0000
  O   O5        1.0  0.49500  0.09750  0.77500  1.0000
  O   O6        1.0  0.03620  0.36000  0.83000  1.0000
