data_image0
_chemical_formula_structural       Li4O6SbTb
_chemical_formula_sum              "Li4 O6 Sb1 Tb1"
_cell_length_a       5.49445
_cell_length_b       5.49445
_cell_length_c       5.21235
_cell_angle_alpha    99.1628
_cell_angle_beta     99.1628
_cell_angle_gamma    120.901

_space_group_name_H-M_alt    "P 1"
_space_group_IT_number       1

loop_
  _space_group_symop_operation_xyz
  'x, y, z'

loop_
  _atom_site_type_symbol
  _atom_site_label
  _atom_site_symmetry_multiplicity
  _atom_site_fract_x
  _atom_site_fract_y
  _atom_site_fract_z
  _atom_site_occupancy
  Li  Li1       1.0  0.50100  0.49900  0.00000  1.0000
  Li  Li2       1.0  0.03010  0.97000  0.50000  1.0000
  Li  Li3       1.0  0.64300  0.35700  0.50000  1.0000
  Li  Li4       1.0  0.32500  0.67500  0.50000  1.0000
  O   O1        1.0  0.93200  0.60400  0.23400  1.0000
  O   O2        1.0  0.53700  0.90300  0.24000  1.0000
  O   O3        1.0  0.24500  0.21000  0.24000  1.0000
  O   O4        1.0  0.79000  0.75500  0.76000  1.0000
  O   O5        1.0  0.09730  0.46300  0.76000  1.0000
  O   O6        1.0  0.39600  0.06770  0.76600  1.0000
  Sb  Sb1       1.0  0.16700  0.83300  0.00000  1.0000
  Tb  Tb1       1.0  0.83600  0.16400  0.00000  1.0000
