data_image0
_chemical_formula_structural       BLi4O6Sb
_chemical_formula_sum              "B1 Li4 O6 Sb1"
_cell_length_a       5.21355
_cell_length_b       5.21355
_cell_length_c       4.93196
_cell_angle_alpha    97.4227
_cell_angle_beta     97.4227
_cell_angle_gamma    125.089

_space_group_name_H-M_alt    "P 1"
_space_group_IT_number       1

loop_
  _space_group_symop_operation_xyz
  'x, y, z'

loop_
  _atom_site_type_symbol
  _atom_site_label
  _atom_site_symmetry_multiplicity
  _atom_site_fract_x
  _atom_site_fract_y
  _atom_site_fract_z
  _atom_site_occupancy
  B   B1        1.0  0.77400  0.22600  0.00000  1.0000
  Li  Li1       1.0  0.48500  0.51500  0.00000  1.0000
  Li  Li2       1.0  0.96400  0.03630  0.50000  1.0000
  Li  Li3       1.0  0.66400  0.33600  0.50000  1.0000
  Li  Li4       1.0  0.36900  0.63100  0.50000  1.0000
  O   O1        1.0  0.62600  0.96700  0.17300  1.0000
  O   O2        1.0  0.91000  0.53100  0.22300  1.0000
  O   O3        1.0  0.27000  0.22000  0.26800  1.0000
  O   O4        1.0  0.78000  0.73000  0.73200  1.0000
  O   O5        1.0  0.46900  0.09030  0.77700  1.0000
  O   O6        1.0  0.03310  0.37400  0.82700  1.0000
  Sb  Sb1       1.0  0.15700  0.84300  0.00000  1.0000
