data_image0
_chemical_formula_structural       Li4O6VZr
_chemical_formula_sum              "Li4 O6 V1 Zr1"
_cell_length_a       5.19568
_cell_length_b       5.19568
_cell_length_c       5.12056
_cell_angle_alpha    99.4685
_cell_angle_beta     99.4685
_cell_angle_gamma    120.239

_space_group_name_H-M_alt    "P 1"
_space_group_IT_number       1

loop_
  _space_group_symop_operation_xyz
  'x, y, z'

loop_
  _atom_site_type_symbol
  _atom_site_label
  _atom_site_symmetry_multiplicity
  _atom_site_fract_x
  _atom_site_fract_y
  _atom_site_fract_z
  _atom_site_occupancy
  Li  Li1       1.0  0.50200  0.49800  0.00000  1.0000
  Li  Li2       1.0  0.98700  0.01270  0.50000  1.0000
  Li  Li3       1.0  0.66000  0.34000  0.50000  1.0000
  Li  Li4       1.0  0.34700  0.65300  0.50000  1.0000
  O   O1        1.0  0.60300  0.94000  0.22400  1.0000
  O   O2        1.0  0.92100  0.56200  0.23700  1.0000
  O   O3        1.0  0.22700  0.24000  0.24300  1.0000
  O   O4        1.0  0.76000  0.77300  0.75700  1.0000
  O   O5        1.0  0.43800  0.07940  0.76300  1.0000
  O   O6        1.0  0.06020  0.39700  0.77600  1.0000
  V   V1        1.0  0.83300  0.16700  0.00000  1.0000
  Zr  Zr1       1.0  0.16200  0.83800  0.00000  1.0000
