data_image0
_chemical_formula_structural       AsDyLi4O6
_chemical_formula_sum              "As1 Dy1 Li4 O6"
_cell_length_a       5.38321
_cell_length_b       5.38322
_cell_length_c       5.09321
_cell_angle_alpha    98.8828
_cell_angle_beta     98.883
_cell_angle_gamma    121.406

_space_group_name_H-M_alt    "P 1"
_space_group_IT_number       1

loop_
  _space_group_symop_operation_xyz
  'x, y, z'

loop_
  _atom_site_type_symbol
  _atom_site_label
  _atom_site_symmetry_multiplicity
  _atom_site_fract_x
  _atom_site_fract_y
  _atom_site_fract_z
  _atom_site_occupancy
  As  As1       1.0  0.16800  0.83200  0.00000  1.0000
  Dy  Dy1       1.0  0.83800  0.16200  0.00000  1.0000
  Li  Li1       1.0  0.50400  0.49600  0.00000  1.0000
  Li  Li2       1.0  0.03600  0.96400  0.50000  1.0000
  Li  Li3       1.0  0.30900  0.69100  0.50000  1.0000
  Li  Li4       1.0  0.64500  0.35500  0.50000  1.0000
  O   O1        1.0  0.94000  0.61200  0.22300  1.0000
  O   O2        1.0  0.24500  0.19200  0.23100  1.0000
  O   O3        1.0  0.51800  0.89800  0.23200  1.0000
  O   O4        1.0  0.10200  0.48200  0.76800  1.0000
  O   O5        1.0  0.80800  0.75500  0.76900  1.0000
  O   O6        1.0  0.38800  0.06000  0.77700  1.0000
