data_image0
_chemical_formula_structural       Li4O6PrSb
_chemical_formula_sum              "Li4 O6 Pr1 Sb1"
_cell_length_a       5.70095
_cell_length_b       5.70095
_cell_length_c       5.2143
_cell_angle_alpha    98.3169
_cell_angle_beta     98.3169
_cell_angle_gamma    122.448

_space_group_name_H-M_alt    "P 1"
_space_group_IT_number       1

loop_
  _space_group_symop_operation_xyz
  'x, y, z'

loop_
  _atom_site_type_symbol
  _atom_site_label
  _atom_site_symmetry_multiplicity
  _atom_site_fract_x
  _atom_site_fract_y
  _atom_site_fract_z
  _atom_site_occupancy
  Li  Li1       1.0  0.50700  0.49300  0.00000  1.0000
  Li  Li2       1.0  0.63000  0.37000  0.50000  1.0000
  Li  Li3       1.0  0.30100  0.69900  0.50000  1.0000
  Li  Li4       1.0  0.04010  0.96000  0.50000  1.0000
  O   O1        1.0  0.92900  0.60400  0.23500  1.0000
  O   O2        1.0  0.25100  0.19500  0.23700  1.0000
  O   O3        1.0  0.51700  0.88500  0.24000  1.0000
  O   O4        1.0  0.11500  0.48300  0.76000  1.0000
  O   O5        1.0  0.80500  0.74900  0.76300  1.0000
  O   O6        1.0  0.39600  0.07120  0.76500  1.0000
  Pr  Pr1       1.0  0.84100  0.15900  0.00000  1.0000
  Sb  Sb1       1.0  0.16900  0.83100  0.00000  1.0000
