data_image0
_chemical_formula_structural       Li4O6OsZr
_chemical_formula_sum              "Li4 O6 Os1 Zr1"
_cell_length_a       5.14114
_cell_length_b       5.14114
_cell_length_c       5.22626
_cell_angle_alpha    99.4067
_cell_angle_beta     99.4067
_cell_angle_gamma    119.084

_space_group_name_H-M_alt    "P 1"
_space_group_IT_number       1

loop_
  _space_group_symop_operation_xyz
  'x, y, z'

loop_
  _atom_site_type_symbol
  _atom_site_label
  _atom_site_symmetry_multiplicity
  _atom_site_fract_x
  _atom_site_fract_y
  _atom_site_fract_z
  _atom_site_occupancy
  Li  Li1       1.0  0.50000  0.50000  0.00000  1.0000
  Li  Li2       1.0  0.99000  0.01040  0.50000  1.0000
  Li  Li3       1.0  0.66000  0.34000  0.50000  1.0000
  Li  Li4       1.0  0.34300  0.65700  0.50000  1.0000
  O   O1        1.0  0.59600  0.92800  0.23000  1.0000
  O   O2        1.0  0.92100  0.56800  0.23800  1.0000
  O   O3        1.0  0.24700  0.25600  0.26100  1.0000
  O   O4        1.0  0.74400  0.75300  0.73900  1.0000
  O   O5        1.0  0.43200  0.07860  0.76200  1.0000
  O   O6        1.0  0.07170  0.40400  0.77000  1.0000
  Os  Os1       1.0  0.84100  0.15900  0.00000  1.0000
  Zr  Zr1       1.0  0.15400  0.84600  0.00000  1.0000
