data_image0
_chemical_formula_structural       BiLi4O6Sb
_chemical_formula_sum              "Bi1 Li4 O6 Sb1"
_cell_length_a       5.6226
_cell_length_b       5.6226
_cell_length_c       5.24788
_cell_angle_alpha    98.9327
_cell_angle_beta     98.9327
_cell_angle_gamma    121.59

_space_group_name_H-M_alt    "P 1"
_space_group_IT_number       1

loop_
  _space_group_symop_operation_xyz
  'x, y, z'

loop_
  _atom_site_type_symbol
  _atom_site_label
  _atom_site_symmetry_multiplicity
  _atom_site_fract_x
  _atom_site_fract_y
  _atom_site_fract_z
  _atom_site_occupancy
  Bi  Bi1       1.0  0.83900  0.16100  0.00000  1.0000
  Li  Li1       1.0  0.50300  0.49700  0.00000  1.0000
  Li  Li2       1.0  0.03090  0.96900  0.50000  1.0000
  Li  Li3       1.0  0.64200  0.35800  0.50000  1.0000
  Li  Li4       1.0  0.31000  0.69000  0.50000  1.0000
  O   O1        1.0  0.93200  0.61000  0.23400  1.0000
  O   O2        1.0  0.25400  0.20200  0.24100  1.0000
  O   O3        1.0  0.52400  0.89100  0.24200  1.0000
  O   O4        1.0  0.10900  0.47600  0.75800  1.0000
  O   O5        1.0  0.79800  0.74600  0.75900  1.0000
  O   O6        1.0  0.39000  0.06830  0.76600  1.0000
  Sb  Sb1       1.0  0.16900  0.83100  0.00000  1.0000
