data_image0
_chemical_formula_structural       AsLi4O6Rh
_chemical_formula_sum              "As1 Li4 O6 Rh1"
_cell_length_a       5.06896
_cell_length_b       5.06896
_cell_length_c       5.01128
_cell_angle_alpha    99.8702
_cell_angle_beta     99.8702
_cell_angle_gamma    119.996

_space_group_name_H-M_alt    "P 1"
_space_group_IT_number       1

loop_
  _space_group_symop_operation_xyz
  'x, y, z'

loop_
  _atom_site_type_symbol
  _atom_site_label
  _atom_site_symmetry_multiplicity
  _atom_site_fract_x
  _atom_site_fract_y
  _atom_site_fract_z
  _atom_site_occupancy
  As  As1       1.0  0.16700  0.83300  0.00000  1.0000
  Li  Li1       1.0  0.50000  0.50000  0.00000  1.0000
  Li  Li2       1.0  0.99900  0.00081  0.50000  1.0000
  Li  Li3       1.0  0.66400  0.33600  0.50000  1.0000
  Li  Li4       1.0  0.33700  0.66300  0.50000  1.0000
  O   O1        1.0  0.94000  0.60200  0.22500  1.0000
  O   O2        1.0  0.55200  0.91700  0.23000  1.0000
  O   O3        1.0  0.23800  0.21300  0.23100  1.0000
  O   O4        1.0  0.78700  0.76200  0.76900  1.0000
  O   O5        1.0  0.08320  0.44800  0.77000  1.0000
  O   O6        1.0  0.39800  0.05950  0.77500  1.0000
  Rh  Rh1       1.0  0.83300  0.16700  0.00000  1.0000
