data_image0
_chemical_formula_structural       AsLi4O6Tb
_chemical_formula_sum              "As1 Li4 O6 Tb1"
_cell_length_a       5.40897
_cell_length_b       5.40897
_cell_length_c       5.09605
_cell_angle_alpha    98.8295
_cell_angle_beta     98.8295
_cell_angle_gamma    121.56

_space_group_name_H-M_alt    "P 1"
_space_group_IT_number       1

loop_
  _space_group_symop_operation_xyz
  'x, y, z'

loop_
  _atom_site_type_symbol
  _atom_site_label
  _atom_site_symmetry_multiplicity
  _atom_site_fract_x
  _atom_site_fract_y
  _atom_site_fract_z
  _atom_site_occupancy
  As  As1       1.0  0.16800  0.83200  0.00000  1.0000
  Li  Li1       1.0  0.50400  0.49600  0.00000  1.0000
  Li  Li2       1.0  0.03690  0.96300  0.50000  1.0000
  Li  Li3       1.0  0.64400  0.35600  0.50000  1.0000
  Li  Li4       1.0  0.30700  0.69300  0.50000  1.0000
  O   O1        1.0  0.94000  0.61200  0.22200  1.0000
  O   O2        1.0  0.24500  0.19000  0.23100  1.0000
  O   O3        1.0  0.51600  0.89700  0.23300  1.0000
  O   O4        1.0  0.10300  0.48400  0.76700  1.0000
  O   O5        1.0  0.81000  0.75500  0.76900  1.0000
  O   O6        1.0  0.38800  0.06030  0.77800  1.0000
  Tb  Tb1       1.0  0.83900  0.16100  0.00000  1.0000
