data_image0
_chemical_formula_structural       AsLi4O6Pr
_chemical_formula_sum              "As1 Li4 O6 Pr1"
_cell_length_a       5.66619
_cell_length_b       5.66619
_cell_length_c       5.09415
_cell_angle_alpha    98.1401
_cell_angle_beta     98.1401
_cell_angle_gamma    124.138

_space_group_name_H-M_alt    "P 1"
_space_group_IT_number       1

loop_
  _space_group_symop_operation_xyz
  'x, y, z'

loop_
  _atom_site_type_symbol
  _atom_site_label
  _atom_site_symmetry_multiplicity
  _atom_site_fract_x
  _atom_site_fract_y
  _atom_site_fract_z
  _atom_site_occupancy
  As  As1       1.0  0.16600  0.83400  0.00000  1.0000
  Li  Li1       1.0  0.52300  0.47700  0.00000  1.0000
  Li  Li2       1.0  0.04670  0.95300  0.50000  1.0000
  Li  Li3       1.0  0.64100  0.35900  0.50000  1.0000
  Li  Li4       1.0  0.28600  0.71400  0.50000  1.0000
  O   O1        1.0  0.93200  0.61200  0.22000  1.0000
  O   O2        1.0  0.25200  0.18100  0.23100  1.0000
  O   O3        1.0  0.49600  0.89600  0.23700  1.0000
  O   O4        1.0  0.10400  0.50400  0.76300  1.0000
  O   O5        1.0  0.81900  0.74800  0.76900  1.0000
  O   O6        1.0  0.38800  0.06760  0.78000  1.0000
  Pr  Pr1       1.0  0.84500  0.15500  0.00000  1.0000
