data_image0
_chemical_formula_structural       IrLi4O6Pb
_chemical_formula_sum              "Ir1 Li4 O6 Pb1"
_cell_length_a       5.39168
_cell_length_b       5.39168
_cell_length_c       5.16723
_cell_angle_alpha    99.8903
_cell_angle_beta     99.8903
_cell_angle_gamma    120.096

_space_group_name_H-M_alt    "P 1"
_space_group_IT_number       1

loop_
  _space_group_symop_operation_xyz
  'x, y, z'

loop_
  _atom_site_type_symbol
  _atom_site_label
  _atom_site_symmetry_multiplicity
  _atom_site_fract_x
  _atom_site_fract_y
  _atom_site_fract_z
  _atom_site_occupancy
  Ir  Ir1       1.0  0.16700  0.83300  0.00000  1.0000
  Li  Li1       1.0  0.49900  0.50100  0.00000  1.0000
  Li  Li2       1.0  0.01790  0.98200  0.50000  1.0000
  Li  Li3       1.0  0.65500  0.34500  0.50000  1.0000
  Li  Li4       1.0  0.33200  0.66800  0.50000  1.0000
  O   O1        1.0  0.93300  0.60600  0.23500  1.0000
  O   O2        1.0  0.54900  0.90900  0.24200  1.0000
  O   O3        1.0  0.25100  0.22300  0.24400  1.0000
  O   O4        1.0  0.77700  0.74900  0.75600  1.0000
  O   O5        1.0  0.09110  0.45100  0.75800  1.0000
  O   O6        1.0  0.39400  0.06650  0.76500  1.0000
  Pb  Pb1       1.0  0.83400  0.16600  0.00000  1.0000
