data_image0
_chemical_formula_structural       FeLi4O6Zr
_chemical_formula_sum              "Fe1 Li4 O6 Zr1"
_cell_length_a       5.18805
_cell_length_b       5.18805
_cell_length_c       5.0989
_cell_angle_alpha    99.2622
_cell_angle_beta     99.2622
_cell_angle_gamma    120.619

_space_group_name_H-M_alt    "P 1"
_space_group_IT_number       1

loop_
  _space_group_symop_operation_xyz
  'x, y, z'

loop_
  _atom_site_type_symbol
  _atom_site_label
  _atom_site_symmetry_multiplicity
  _atom_site_fract_x
  _atom_site_fract_y
  _atom_site_fract_z
  _atom_site_occupancy
  Fe  Fe1       1.0  0.83000  0.17000  0.00000  1.0000
  Li  Li1       1.0  0.50000  0.50000  0.00000  1.0000
  Li  Li2       1.0  0.98500  0.01450  0.50000  1.0000
  Li  Li3       1.0  0.66100  0.33900  0.50000  1.0000
  Li  Li4       1.0  0.34900  0.65100  0.50000  1.0000
  O   O1        1.0  0.60600  0.94300  0.22200  1.0000
  O   O2        1.0  0.92500  0.56400  0.24400  1.0000
  O   O3        1.0  0.23200  0.24300  0.24400  1.0000
  O   O4        1.0  0.75700  0.76800  0.75600  1.0000
  O   O5        1.0  0.43600  0.07450  0.75600  1.0000
  O   O6        1.0  0.05720  0.39400  0.77800  1.0000
  Zr  Zr1       1.0  0.16000  0.84000  0.00000  1.0000
