data_image0
_chemical_formula_structural       Li4MnO6Te
_chemical_formula_sum              "Li4 Mn1 O6 Te1"
_cell_length_a       5.24263
_cell_length_b       5.24263
_cell_length_c       5.14805
_cell_angle_alpha    100.248
_cell_angle_beta     100.248
_cell_angle_gamma    119.614

_space_group_name_H-M_alt    "P 1"
_space_group_IT_number       1

loop_
  _space_group_symop_operation_xyz
  'x, y, z'

loop_
  _atom_site_type_symbol
  _atom_site_label
  _atom_site_symmetry_multiplicity
  _atom_site_fract_x
  _atom_site_fract_y
  _atom_site_fract_z
  _atom_site_occupancy
  Li  Li1       1.0  0.50000  0.50000  0.00000  1.0000
  Li  Li2       1.0  0.00353  0.99600  0.50000  1.0000
  Li  Li3       1.0  0.66100  0.33900  0.50000  1.0000
  Li  Li4       1.0  0.33700  0.66300  0.50000  1.0000
  Mn  Mn1       1.0  0.83300  0.16700  0.00000  1.0000
  O   O1        1.0  0.93900  0.60900  0.22800  1.0000
  O   O2        1.0  0.24600  0.21700  0.24000  1.0000
  O   O3        1.0  0.54900  0.91000  0.24000  1.0000
  O   O4        1.0  0.08970  0.45100  0.76000  1.0000
  O   O5        1.0  0.78300  0.75400  0.76000  1.0000
  O   O6        1.0  0.39100  0.06110  0.77200  1.0000
  Te  Te1       1.0  0.16700  0.83300  0.00000  1.0000
