data_image0
_chemical_formula_structural       CrLi4O6Y
_chemical_formula_sum              "Cr1 Li4 O6 Y1"
_cell_length_a       5.30896
_cell_length_b       5.30896
_cell_length_c       5.09362
_cell_angle_alpha    99.1464
_cell_angle_beta     99.1464
_cell_angle_gamma    120.722

_space_group_name_H-M_alt    "P 1"
_space_group_IT_number       1

loop_
  _space_group_symop_operation_xyz
  'x, y, z'

loop_
  _atom_site_type_symbol
  _atom_site_label
  _atom_site_symmetry_multiplicity
  _atom_site_fract_x
  _atom_site_fract_y
  _atom_site_fract_z
  _atom_site_occupancy
  Cr  Cr1       1.0  0.16900  0.83100  0.00000  1.0000
  Li  Li1       1.0  0.49700  0.50300  0.00000  1.0000
  Li  Li2       1.0  0.02810  0.97200  0.50000  1.0000
  Li  Li3       1.0  0.64700  0.35300  0.50000  1.0000
  Li  Li4       1.0  0.34900  0.65000  0.50000  1.0000
  O   O1        1.0  0.93800  0.62200  0.21300  1.0000
  O   O2        1.0  0.52600  0.90300  0.23800  1.0000
  O   O3        1.0  0.25000  0.21900  0.24800  1.0000
  O   O4        1.0  0.78100  0.75000  0.75200  1.0000
  O   O5        1.0  0.09660  0.47400  0.76200  1.0000
  O   O6        1.0  0.37800  0.06190  0.78700  1.0000
  Y   Y1        1.0  0.83900  0.16100  0.00000  1.0000
