data_image0
_chemical_formula_structural       BiHoLi4O6
_chemical_formula_sum              "Bi1 Ho1 Li4 O6"
_cell_length_a       5.49661
_cell_length_b       5.49661
_cell_length_c       5.29337
_cell_angle_alpha    99.9193
_cell_angle_beta     99.9194
_cell_angle_gamma    120.014

_space_group_name_H-M_alt    "P 1"
_space_group_IT_number       1

loop_
  _space_group_symop_operation_xyz
  'x, y, z'

loop_
  _atom_site_type_symbol
  _atom_site_label
  _atom_site_symmetry_multiplicity
  _atom_site_fract_x
  _atom_site_fract_y
  _atom_site_fract_z
  _atom_site_occupancy
  Bi  Bi1       1.0  0.16700  0.83300  0.00000  1.0000
  Ho  Ho1       1.0  0.83400  0.16600  0.00000  1.0000
  Li  Li1       1.0  0.50000  0.50000  0.00000  1.0000
  Li  Li2       1.0  0.01470  0.98500  0.50000  1.0000
  Li  Li3       1.0  0.34000  0.66000  0.50000  1.0000
  Li  Li4       1.0  0.64800  0.35200  0.50000  1.0000
  O   O1        1.0  0.92700  0.59800  0.24200  1.0000
  O   O2        1.0  0.56500  0.91300  0.24800  1.0000
  O   O3        1.0  0.24900  0.23400  0.24900  1.0000
  O   O4        1.0  0.76600  0.75100  0.75100  1.0000
  O   O5        1.0  0.08660  0.43500  0.75200  1.0000
  O   O6        1.0  0.40200  0.07340  0.75800  1.0000
