data_image0
_chemical_formula_structural       AlLi4O6Te
_chemical_formula_sum              "Al1 Li4 O6 Te1"
_cell_length_a       5.14259
_cell_length_b       5.14259
_cell_length_c       5.13383
_cell_angle_alpha    99.5737
_cell_angle_beta     99.5738
_cell_angle_gamma    120.086

_space_group_name_H-M_alt    "P 1"
_space_group_IT_number       1

loop_
  _space_group_symop_operation_xyz
  'x, y, z'

loop_
  _atom_site_type_symbol
  _atom_site_label
  _atom_site_symmetry_multiplicity
  _atom_site_fract_x
  _atom_site_fract_y
  _atom_site_fract_z
  _atom_site_occupancy
  Al  Al1       1.0  0.16700  0.83300  0.00000  1.0000
  Li  Li1       1.0  0.49900  0.50100  0.00000  1.0000
  Li  Li2       1.0  0.01210  0.98800  0.50000  1.0000
  Li  Li3       1.0  0.33700  0.66300  0.50000  1.0000
  Li  Li4       1.0  0.65600  0.34400  0.50000  1.0000
  O   O1        1.0  0.93900  0.59500  0.22800  1.0000
  O   O2        1.0  0.55800  0.92300  0.23100  1.0000
  O   O3        1.0  0.23200  0.21400  0.23400  1.0000
  O   O4        1.0  0.78600  0.76800  0.76600  1.0000
  O   O5        1.0  0.07650  0.44200  0.76900  1.0000
  O   O6        1.0  0.40500  0.06060  0.77200  1.0000
  Te  Te1       1.0  0.83200  0.16800  0.00000  1.0000
