data_image0
_chemical_formula_structural       Li4O6PtSn
_chemical_formula_sum              "Li4 O6 Pt1 Sn1"
_cell_length_a       5.24914
_cell_length_b       5.24914
_cell_length_c       5.14875
_cell_angle_alpha    99.6623
_cell_angle_beta     99.6623
_cell_angle_gamma    120.048

_space_group_name_H-M_alt    "P 1"
_space_group_IT_number       1

loop_
  _space_group_symop_operation_xyz
  'x, y, z'

loop_
  _atom_site_type_symbol
  _atom_site_label
  _atom_site_symmetry_multiplicity
  _atom_site_fract_x
  _atom_site_fract_y
  _atom_site_fract_z
  _atom_site_occupancy
  Li  Li1       1.0  0.50100  0.49900  0.00000  1.0000
  Li  Li2       1.0  0.98400  0.01650  0.50000  1.0000
  Li  Li3       1.0  0.66600  0.33400  0.50000  1.0000
  Li  Li4       1.0  0.34600  0.65400  0.50000  1.0000
  O   O1        1.0  0.58400  0.92700  0.23700  1.0000
  O   O2        1.0  0.92300  0.57200  0.23800  1.0000
  O   O3        1.0  0.23100  0.23600  0.24100  1.0000
  O   O4        1.0  0.76400  0.76900  0.75900  1.0000
  O   O5        1.0  0.42800  0.07740  0.76200  1.0000
  O   O6        1.0  0.07310  0.41600  0.76300  1.0000
  Pt  Pt1       1.0  0.83400  0.16600  0.00000  1.0000
  Sn  Sn1       1.0  0.16600  0.83400  0.00000  1.0000
