data_image0
_chemical_formula_structural       Li4O6TlU
_chemical_formula_sum              "Li4 O6 Tl1 U1"
_cell_length_a       5.49896
_cell_length_b       5.49896
_cell_length_c       5.3314
_cell_angle_alpha    99.404
_cell_angle_beta     99.404
_cell_angle_gamma    120.432

_space_group_name_H-M_alt    "P 1"
_space_group_IT_number       1

loop_
  _space_group_symop_operation_xyz
  'x, y, z'

loop_
  _atom_site_type_symbol
  _atom_site_label
  _atom_site_symmetry_multiplicity
  _atom_site_fract_x
  _atom_site_fract_y
  _atom_site_fract_z
  _atom_site_occupancy
  Li  Li1       1.0  0.50200  0.49800  0.00000  1.0000
  Li  Li2       1.0  0.98800  0.01240  0.50000  1.0000
  Li  Li3       1.0  0.65500  0.34500  0.50000  1.0000
  Li  Li4       1.0  0.36500  0.63500  0.50000  1.0000
  O   O1        1.0  0.91400  0.59700  0.24600  1.0000
  O   O2        1.0  0.25900  0.24600  0.25400  1.0000
  O   O3        1.0  0.57000  0.90900  0.25600  1.0000
  O   O4        1.0  0.09140  0.43000  0.74400  1.0000
  O   O5        1.0  0.75400  0.74100  0.74600  1.0000
  O   O6        1.0  0.40300  0.08600  0.75400  1.0000
  Tl  Tl1       1.0  0.83300  0.16700  0.00000  1.0000
  U   U1        1.0  0.16700  0.83300  0.00000  1.0000
