data_image0
_chemical_formula_structural       GaLi4O6V
_chemical_formula_sum              "Ga1 Li4 O6 V1"
_cell_length_a       4.98868
_cell_length_b       4.98868
_cell_length_c       5.02482
_cell_angle_alpha    99.7539
_cell_angle_beta     99.7539
_cell_angle_gamma    119.865

_space_group_name_H-M_alt    "P 1"
_space_group_IT_number       1

loop_
  _space_group_symop_operation_xyz
  'x, y, z'

loop_
  _atom_site_type_symbol
  _atom_site_label
  _atom_site_symmetry_multiplicity
  _atom_site_fract_x
  _atom_site_fract_y
  _atom_site_fract_z
  _atom_site_occupancy
  Ga  Ga1       1.0  0.83400  0.16600  0.00000  1.0000
  Li  Li1       1.0  0.50000  0.50000  0.00000  1.0000
  Li  Li2       1.0  0.00241  0.99800  0.50000  1.0000
  Li  Li3       1.0  0.65900  0.34100  0.50000  1.0000
  Li  Li4       1.0  0.34000  0.66000  0.50000  1.0000
  O   O1        1.0  0.93800  0.59000  0.22700  1.0000
  O   O2        1.0  0.56400  0.92600  0.23100  1.0000
  O   O3        1.0  0.22800  0.21700  0.23200  1.0000
  O   O4        1.0  0.78300  0.77200  0.76800  1.0000
  O   O5        1.0  0.07350  0.43600  0.76900  1.0000
  O   O6        1.0  0.41000  0.06160  0.77300  1.0000
  V   V1        1.0  0.16900  0.83100  0.00000  1.0000
