data_image0
_chemical_formula_structural       AsInLi4O6
_chemical_formula_sum              "As1 In1 Li4 O6"
_cell_length_a       5.22302
_cell_length_b       5.22302
_cell_length_c       5.09369
_cell_angle_alpha    99.5638
_cell_angle_beta     99.5638
_cell_angle_gamma    120.389

_space_group_name_H-M_alt    "P 1"
_space_group_IT_number       1

loop_
  _space_group_symop_operation_xyz
  'x, y, z'

loop_
  _atom_site_type_symbol
  _atom_site_label
  _atom_site_symmetry_multiplicity
  _atom_site_fract_x
  _atom_site_fract_y
  _atom_site_fract_z
  _atom_site_occupancy
  As  As1       1.0  0.16700  0.83300  0.00000  1.0000
  In  In1       1.0  0.83500  0.16500  0.00000  1.0000
  Li  Li1       1.0  0.50000  0.50000  0.00000  1.0000
  Li  Li2       1.0  0.02230  0.97800  0.50000  1.0000
  Li  Li3       1.0  0.65600  0.34400  0.50000  1.0000
  Li  Li4       1.0  0.32400  0.67600  0.50000  1.0000
  O   O1        1.0  0.94300  0.61200  0.22300  1.0000
  O   O2        1.0  0.53300  0.90800  0.23300  1.0000
  O   O3        1.0  0.24200  0.20200  0.23400  1.0000
  O   O4        1.0  0.79800  0.75800  0.76600  1.0000
  O   O5        1.0  0.09160  0.46700  0.76700  1.0000
  O   O6        1.0  0.38800  0.05660  0.77700  1.0000
