data_image0
_chemical_formula_structural       Li4O6TlV
_chemical_formula_sum              "Li4 O6 Tl1 V1"
_cell_length_a       5.30261
_cell_length_b       5.30261
_cell_length_c       5.172
_cell_angle_alpha    100.05
_cell_angle_beta     100.05
_cell_angle_gamma    119.797

_space_group_name_H-M_alt    "P 1"
_space_group_IT_number       1

loop_
  _space_group_symop_operation_xyz
  'x, y, z'

loop_
  _atom_site_type_symbol
  _atom_site_label
  _atom_site_symmetry_multiplicity
  _atom_site_fract_x
  _atom_site_fract_y
  _atom_site_fract_z
  _atom_site_occupancy
  Li  Li1       1.0  0.50300  0.49700  0.00000  1.0000
  Li  Li2       1.0  0.02000  0.98000  0.50000  1.0000
  Li  Li3       1.0  0.65300  0.34700  0.50000  1.0000
  Li  Li4       1.0  0.33200  0.66800  0.50000  1.0000
  O   O1        1.0  0.94000  0.61900  0.22100  1.0000
  O   O2        1.0  0.52300  0.90200  0.24200  1.0000
  O   O3        1.0  0.25000  0.21000  0.24400  1.0000
  O   O4        1.0  0.79000  0.75000  0.75600  1.0000
  O   O5        1.0  0.09810  0.47700  0.75800  1.0000
  O   O6        1.0  0.38100  0.06050  0.77900  1.0000
  Tl  Tl1       1.0  0.83700  0.16300  0.00000  1.0000
  V   V1        1.0  0.17300  0.82700  0.00000  1.0000
