data_image0
_chemical_formula_structural       BiGdLi4O6
_chemical_formula_sum              "Bi1 Gd1 Li4 O6"
_cell_length_a       5.56511
_cell_length_b       5.56511
_cell_length_c       5.28637
_cell_angle_alpha    99.448
_cell_angle_beta     99.448
_cell_angle_gamma    120.543

_space_group_name_H-M_alt    "P 1"
_space_group_IT_number       1

loop_
  _space_group_symop_operation_xyz
  'x, y, z'

loop_
  _atom_site_type_symbol
  _atom_site_label
  _atom_site_symmetry_multiplicity
  _atom_site_fract_x
  _atom_site_fract_y
  _atom_site_fract_z
  _atom_site_occupancy
  Bi  Bi1       1.0  0.16700  0.83300  0.00000  1.0000
  Gd  Gd1       1.0  0.83400  0.16600  0.00000  1.0000
  Li  Li1       1.0  0.50000  0.50000  0.00000  1.0000
  Li  Li2       1.0  0.02400  0.97600  0.50000  1.0000
  Li  Li3       1.0  0.33900  0.66100  0.50000  1.0000
  Li  Li4       1.0  0.64100  0.35900  0.50000  1.0000
  O   O1        1.0  0.92300  0.59800  0.24200  1.0000
  O   O2        1.0  0.55400  0.90500  0.24800  1.0000
  O   O3        1.0  0.24900  0.22900  0.25000  1.0000
  O   O4        1.0  0.77100  0.75100  0.75000  1.0000
  O   O5        1.0  0.09550  0.44600  0.75200  1.0000
  O   O6        1.0  0.40200  0.07690  0.75800  1.0000
