data_image0
_chemical_formula_structural       Li4O6PbTi
_chemical_formula_sum              "Li4 O6 Pb1 Ti1"
_cell_length_a       5.28524
_cell_length_b       5.28524
_cell_length_c       5.17827
_cell_angle_alpha    99.75
_cell_angle_beta     99.75
_cell_angle_gamma    120.025

_space_group_name_H-M_alt    "P 1"
_space_group_IT_number       1

loop_
  _space_group_symop_operation_xyz
  'x, y, z'

loop_
  _atom_site_type_symbol
  _atom_site_label
  _atom_site_symmetry_multiplicity
  _atom_site_fract_x
  _atom_site_fract_y
  _atom_site_fract_z
  _atom_site_occupancy
  Li  Li1       1.0  0.50000  0.50000  0.00000  1.0000
  Li  Li2       1.0  0.65400  0.34600  0.50000  1.0000
  Li  Li3       1.0  0.33700  0.66300  0.50000  1.0000
  Li  Li4       1.0  0.01390  0.98600  0.50000  1.0000
  O   O1        1.0  0.93600  0.60400  0.23500  1.0000
  O   O2        1.0  0.55100  0.91400  0.24200  1.0000
  O   O3        1.0  0.24400  0.22100  0.24300  1.0000
  O   O4        1.0  0.77900  0.75600  0.75700  1.0000
  O   O5        1.0  0.08550  0.44900  0.75800  1.0000
  O   O6        1.0  0.39600  0.06430  0.76500  1.0000
  Pb  Pb1       1.0  0.83400  0.16600  0.00000  1.0000
  Ti  Ti1       1.0  0.16900  0.83100  0.00000  1.0000
