data_image0
_chemical_formula_structural       Li4MnO6Pa
_chemical_formula_sum              "Li4 Mn1 O6 Pa1"
_cell_length_a       5.42688
_cell_length_b       5.42688
_cell_length_c       5.12059
_cell_angle_alpha    98.3768
_cell_angle_beta     98.3768
_cell_angle_gamma    121.531

_space_group_name_H-M_alt    "P 1"
_space_group_IT_number       1

loop_
  _space_group_symop_operation_xyz
  'x, y, z'

loop_
  _atom_site_type_symbol
  _atom_site_label
  _atom_site_symmetry_multiplicity
  _atom_site_fract_x
  _atom_site_fract_y
  _atom_site_fract_z
  _atom_site_occupancy
  Li  Li1       1.0  0.50000  0.50000  0.00000  1.0000
  Li  Li2       1.0  0.97000  0.02970  0.50000  1.0000
  Li  Li3       1.0  0.65700  0.34300  0.50000  1.0000
  Li  Li4       1.0  0.36200  0.63800  0.50000  1.0000
  Mn  Mn1       1.0  0.83500  0.16500  0.00000  1.0000
  O   O1        1.0  0.60400  0.93500  0.22800  1.0000
  O   O2        1.0  0.91400  0.56000  0.24700  1.0000
  O   O3        1.0  0.23800  0.24800  0.24800  1.0000
  O   O4        1.0  0.75200  0.76200  0.75200  1.0000
  O   O5        1.0  0.44000  0.08560  0.75300  1.0000
  O   O6        1.0  0.06510  0.39600  0.77200  1.0000
  Pa  Pa1       1.0  0.16300  0.83700  0.00000  1.0000
