data_image0
_chemical_formula_structural       Li4O6TaTl
_chemical_formula_sum              "Li4 O6 Ta1 Tl1"
_cell_length_a       5.3778
_cell_length_b       5.3778
_cell_length_c       5.26502
_cell_angle_alpha    100.032
_cell_angle_beta     100.032
_cell_angle_gamma    119.829

_space_group_name_H-M_alt    "P 1"
_space_group_IT_number       1

loop_
  _space_group_symop_operation_xyz
  'x, y, z'

loop_
  _atom_site_type_symbol
  _atom_site_label
  _atom_site_symmetry_multiplicity
  _atom_site_fract_x
  _atom_site_fract_y
  _atom_site_fract_z
  _atom_site_occupancy
  Li  Li1       1.0  0.50200  0.49800  0.00000  1.0000
  Li  Li2       1.0  0.00784  0.99200  0.50000  1.0000
  Li  Li3       1.0  0.65500  0.34500  0.50000  1.0000
  Li  Li4       1.0  0.34600  0.65400  0.50000  1.0000
  O   O1        1.0  0.93100  0.61300  0.23200  1.0000
  O   O2        1.0  0.25300  0.22200  0.24600  1.0000
  O   O3        1.0  0.54100  0.90400  0.24800  1.0000
  O   O4        1.0  0.09550  0.45900  0.75200  1.0000
  O   O5        1.0  0.77800  0.74700  0.75400  1.0000
  O   O6        1.0  0.38700  0.06890  0.76800  1.0000
  Ta  Ta1       1.0  0.16900  0.83100  0.00000  1.0000
  Tl  Tl1       1.0  0.83400  0.16600  0.00000  1.0000
