data_image0
_chemical_formula_structural       Li4NbO6Tl
_chemical_formula_sum              "Li4 Nb1 O6 Tl1"
_cell_length_a       5.37795
_cell_length_b       5.37795
_cell_length_c       5.27671
_cell_angle_alpha    100.027
_cell_angle_beta     100.027
_cell_angle_gamma    119.784

_space_group_name_H-M_alt    "P 1"
_space_group_IT_number       1

loop_
  _space_group_symop_operation_xyz
  'x, y, z'

loop_
  _atom_site_type_symbol
  _atom_site_label
  _atom_site_symmetry_multiplicity
  _atom_site_fract_x
  _atom_site_fract_y
  _atom_site_fract_z
  _atom_site_occupancy
  Li  Li1       1.0  0.50400  0.49600  0.00000  1.0000
  Li  Li2       1.0  0.00806  0.99200  0.50000  1.0000
  Li  Li3       1.0  0.65300  0.34700  0.50000  1.0000
  Li  Li4       1.0  0.34800  0.65200  0.50000  1.0000
  Nb  Nb1       1.0  0.17200  0.82800  0.00000  1.0000
  O   O1        1.0  0.92800  0.61100  0.23100  1.0000
  O   O2        1.0  0.25200  0.22500  0.24700  1.0000
  O   O3        1.0  0.54200  0.90600  0.25000  1.0000
  O   O4        1.0  0.09430  0.45800  0.75000  1.0000
  O   O5        1.0  0.77500  0.74800  0.75300  1.0000
  O   O6        1.0  0.38900  0.07170  0.76900  1.0000
  Tl  Tl1       1.0  0.83500  0.16500  0.00000  1.0000
