data_image0
_chemical_formula_structural       Li4O6RuTe
_chemical_formula_sum              "Li4 O6 Ru1 Te1"
_cell_length_a       5.26754
_cell_length_b       5.26754
_cell_length_c       5.07258
_cell_angle_alpha    99.9467
_cell_angle_beta     99.9467
_cell_angle_gamma    119.992

_space_group_name_H-M_alt    "P 1"
_space_group_IT_number       1

loop_
  _space_group_symop_operation_xyz
  'x, y, z'

loop_
  _atom_site_type_symbol
  _atom_site_label
  _atom_site_symmetry_multiplicity
  _atom_site_fract_x
  _atom_site_fract_y
  _atom_site_fract_z
  _atom_site_occupancy
  Li  Li1       1.0  0.50100  0.49900  0.00000  1.0000
  Li  Li2       1.0  0.98700  0.01300  0.50000  1.0000
  Li  Li3       1.0  0.66800  0.33200  0.50000  1.0000
  Li  Li4       1.0  0.34300  0.65700  0.50000  1.0000
  O   O1        1.0  0.92800  0.58700  0.23300  1.0000
  O   O2        1.0  0.56800  0.91900  0.23600  1.0000
  O   O3        1.0  0.23900  0.22800  0.23900  1.0000
  O   O4        1.0  0.77200  0.76100  0.76100  1.0000
  O   O5        1.0  0.08120  0.43200  0.76400  1.0000
  O   O6        1.0  0.41300  0.07190  0.76700  1.0000
  Ru  Ru1       1.0  0.83300  0.16700  0.00000  1.0000
  Te  Te1       1.0  0.16700  0.83300  0.00000  1.0000
