data_image0
_chemical_formula_structural       Li4O6ScV
_chemical_formula_sum              "Li4 O6 Sc1 V1"
_cell_length_a       5.10794
_cell_length_b       5.10794
_cell_length_c       5.03743
_cell_angle_alpha    99.7851
_cell_angle_beta     99.7851
_cell_angle_gamma    119.986

_space_group_name_H-M_alt    "P 1"
_space_group_IT_number       1

loop_
  _space_group_symop_operation_xyz
  'x, y, z'

loop_
  _atom_site_type_symbol
  _atom_site_label
  _atom_site_symmetry_multiplicity
  _atom_site_fract_x
  _atom_site_fract_y
  _atom_site_fract_z
  _atom_site_occupancy
  Li  Li1       1.0  0.50000  0.50000  0.00000  1.0000
  Li  Li2       1.0  0.01220  0.98800  0.50000  1.0000
  Li  Li3       1.0  0.65500  0.34500  0.50000  1.0000
  Li  Li4       1.0  0.33700  0.66300  0.50000  1.0000
  O   O1        1.0  0.93900  0.60200  0.22700  1.0000
  O   O2        1.0  0.55100  0.91700  0.23400  1.0000
  O   O3        1.0  0.23800  0.21600  0.23500  1.0000
  O   O4        1.0  0.78400  0.76200  0.76500  1.0000
  O   O5        1.0  0.08310  0.44900  0.76600  1.0000
  O   O6        1.0  0.39800  0.06060  0.77300  1.0000
  Sc  Sc1       1.0  0.83400  0.16600  0.00000  1.0000
  V   V1        1.0  0.16900  0.83100  0.00000  1.0000
