data_image0
_chemical_formula_structural       GeLi4O6Pb
_chemical_formula_sum              "Ge1 Li4 O6 Pb1"
_cell_length_a       5.2717
_cell_length_b       5.2717
_cell_length_c       5.15944
_cell_angle_alpha    99.5893
_cell_angle_beta     99.5893
_cell_angle_gamma    120.263

_space_group_name_H-M_alt    "P 1"
_space_group_IT_number       1

loop_
  _space_group_symop_operation_xyz
  'x, y, z'

loop_
  _atom_site_type_symbol
  _atom_site_label
  _atom_site_symmetry_multiplicity
  _atom_site_fract_x
  _atom_site_fract_y
  _atom_site_fract_z
  _atom_site_occupancy
  Ge  Ge1       1.0  0.16700  0.83300  0.00000  1.0000
  Li  Li1       1.0  0.50000  0.50000  0.00000  1.0000
  Li  Li2       1.0  0.65400  0.34600  0.50000  1.0000
  Li  Li3       1.0  0.33000  0.67000  0.50000  1.0000
  Li  Li4       1.0  0.02020  0.98000  0.50000  1.0000
  O   O1        1.0  0.94100  0.61000  0.22800  1.0000
  O   O2        1.0  0.54200  0.91200  0.23700  1.0000
  O   O3        1.0  0.24300  0.21000  0.23800  1.0000
  O   O4        1.0  0.79000  0.75700  0.76200  1.0000
  O   O5        1.0  0.08770  0.45800  0.76300  1.0000
  O   O6        1.0  0.39000  0.05870  0.77200  1.0000
  Pb  Pb1       1.0  0.83500  0.16500  0.00000  1.0000
