data_image0
_chemical_formula_structural       AsErLi4O6
_chemical_formula_sum              "As1 Er1 Li4 O6"
_cell_length_a       5.33844
_cell_length_b       5.33844
_cell_length_c       5.09019
_cell_angle_alpha    99.002
_cell_angle_beta     99.002
_cell_angle_gamma    121.135

_space_group_name_H-M_alt    "P 1"
_space_group_IT_number       1

loop_
  _space_group_symop_operation_xyz
  'x, y, z'

loop_
  _atom_site_type_symbol
  _atom_site_label
  _atom_site_symmetry_multiplicity
  _atom_site_fract_x
  _atom_site_fract_y
  _atom_site_fract_z
  _atom_site_occupancy
  As  As1       1.0  0.16700  0.83300  0.00000  1.0000
  Er  Er1       1.0  0.83700  0.16300  0.00000  1.0000
  Li  Li1       1.0  0.50200  0.49800  0.00000  1.0000
  Li  Li2       1.0  0.03330  0.96700  0.50000  1.0000
  Li  Li3       1.0  0.64700  0.35300  0.50000  1.0000
  Li  Li4       1.0  0.31300  0.68700  0.50000  1.0000
  O   O1        1.0  0.94100  0.61100  0.22300  1.0000
  O   O2        1.0  0.24300  0.19400  0.23100  1.0000
  O   O3        1.0  0.52200  0.90100  0.23200  1.0000
  O   O4        1.0  0.09880  0.47800  0.76800  1.0000
  O   O5        1.0  0.80600  0.75700  0.76900  1.0000
  O   O6        1.0  0.38900  0.05930  0.77700  1.0000
