data_image0
_chemical_formula_structural       AuLi4O6Os
_chemical_formula_sum              "Au1 Li4 O6 Os1"
_cell_length_a       5.22277
_cell_length_b       5.22277
_cell_length_c       5.25853
_cell_angle_alpha    102.879
_cell_angle_beta     102.879
_cell_angle_gamma    115.986

_space_group_name_H-M_alt    "P 1"
_space_group_IT_number       1

loop_
  _space_group_symop_operation_xyz
  'x, y, z'

loop_
  _atom_site_type_symbol
  _atom_site_label
  _atom_site_symmetry_multiplicity
  _atom_site_fract_x
  _atom_site_fract_y
  _atom_site_fract_z
  _atom_site_occupancy
  Au  Au1       1.0  0.83400  0.16600  0.00000  1.0000
  Li  Li1       1.0  0.49500  0.50500  0.00000  1.0000
  Li  Li2       1.0  0.99100  0.00881  0.50000  1.0000
  Li  Li3       1.0  0.34200  0.65800  0.50000  1.0000
  Li  Li4       1.0  0.66800  0.33200  0.50000  1.0000
  O   O1        1.0  0.93100  0.60200  0.20800  1.0000
  O   O2        1.0  0.24000  0.22200  0.24700  1.0000
  O   O3        1.0  0.53000  0.88400  0.27500  1.0000
  O   O4        1.0  0.11600  0.47000  0.72500  1.0000
  O   O5        1.0  0.77800  0.76000  0.75300  1.0000
  O   O6        1.0  0.39800  0.06890  0.79200  1.0000
  Os  Os1       1.0  0.17700  0.82300  0.00000  1.0000
