data_image0
_chemical_formula_structural       Li4NbO6U
_chemical_formula_sum              "Li4 Nb1 O6 U1"
_cell_length_a       5.50678
_cell_length_b       5.50678
_cell_length_c       5.19135
_cell_angle_alpha    98.8628
_cell_angle_beta     98.8627
_cell_angle_gamma    120.509

_space_group_name_H-M_alt    "P 1"
_space_group_IT_number       1

loop_
  _space_group_symop_operation_xyz
  'x, y, z'

loop_
  _atom_site_type_symbol
  _atom_site_label
  _atom_site_symmetry_multiplicity
  _atom_site_fract_x
  _atom_site_fract_y
  _atom_site_fract_z
  _atom_site_occupancy
  Li  Li1       1.0  0.50300  0.49700  0.00000  1.0000
  Li  Li2       1.0  0.97000  0.02960  0.50000  1.0000
  Li  Li3       1.0  0.64000  0.36000  0.50000  1.0000
  Li  Li4       1.0  0.35700  0.64300  0.50000  1.0000
  Nb  Nb1       1.0  0.84100  0.15900  0.00000  1.0000
  O   O1        1.0  0.60400  0.92100  0.22800  1.0000
  O   O2        1.0  0.90600  0.54300  0.23800  1.0000
  O   O3        1.0  0.23600  0.25600  0.26100  1.0000
  O   O4        1.0  0.74400  0.76400  0.73900  1.0000
  O   O5        1.0  0.45700  0.09440  0.76200  1.0000
  O   O6        1.0  0.07940  0.39600  0.77200  1.0000
  U   U1        1.0  0.16200  0.83800  0.00000  1.0000
