data_image0
_chemical_formula_structural       AsLi4O6Sm
_chemical_formula_sum              "As1 Li4 O6 Sm1"
_cell_length_a       5.50709
_cell_length_b       5.50709
_cell_length_c       5.09783
_cell_angle_alpha    98.5922
_cell_angle_beta     98.5922
_cell_angle_gamma    122.272

_space_group_name_H-M_alt    "P 1"
_space_group_IT_number       1

loop_
  _space_group_symop_operation_xyz
  'x, y, z'

loop_
  _atom_site_type_symbol
  _atom_site_label
  _atom_site_symmetry_multiplicity
  _atom_site_fract_x
  _atom_site_fract_y
  _atom_site_fract_z
  _atom_site_occupancy
  As  As1       1.0  0.16800  0.83200  0.00000  1.0000
  Li  Li1       1.0  0.50800  0.49200  0.00000  1.0000
  Li  Li2       1.0  0.04040  0.96000  0.50000  1.0000
  Li  Li3       1.0  0.64100  0.35900  0.50000  1.0000
  Li  Li4       1.0  0.29800  0.70200  0.50000  1.0000
  O   O1        1.0  0.93800  0.61300  0.22200  1.0000
  O   O2        1.0  0.24900  0.18500  0.23100  1.0000
  O   O3        1.0  0.50700  0.89200  0.23400  1.0000
  O   O4        1.0  0.10800  0.49300  0.76600  1.0000
  O   O5        1.0  0.81500  0.75100  0.76900  1.0000
  O   O6        1.0  0.38700  0.06220  0.77800  1.0000
  Sm  Sm1       1.0  0.84100  0.15900  0.00000  1.0000
