data_image0
_chemical_formula_structural       GdLi4O6Sb
_chemical_formula_sum              "Gd1 Li4 O6 Sb1"
_cell_length_a       5.51964
_cell_length_b       5.51964
_cell_length_c       5.21239
_cell_angle_alpha    99.0543
_cell_angle_beta     99.0543
_cell_angle_gamma    121.061

_space_group_name_H-M_alt    "P 1"
_space_group_IT_number       1

loop_
  _space_group_symop_operation_xyz
  'x, y, z'

loop_
  _atom_site_type_symbol
  _atom_site_label
  _atom_site_symmetry_multiplicity
  _atom_site_fract_x
  _atom_site_fract_y
  _atom_site_fract_z
  _atom_site_occupancy
  Gd  Gd1       1.0  0.83600  0.16400  0.00000  1.0000
  Li  Li1       1.0  0.50100  0.49900  0.00000  1.0000
  Li  Li2       1.0  0.03190  0.96800  0.50000  1.0000
  Li  Li3       1.0  0.32300  0.67700  0.50000  1.0000
  Li  Li4       1.0  0.64200  0.35800  0.50000  1.0000
  O   O1        1.0  0.93200  0.60400  0.23400  1.0000
  O   O2        1.0  0.53400  0.90000  0.24000  1.0000
  O   O3        1.0  0.24600  0.20800  0.24000  1.0000
  O   O4        1.0  0.79200  0.75400  0.76000  1.0000
  O   O5        1.0  0.09960  0.46600  0.76000  1.0000
  O   O6        1.0  0.39600  0.06820  0.76600  1.0000
  Sb  Sb1       1.0  0.16700  0.83300  0.00000  1.0000
