data_image0
_chemical_formula_structural       Li4O6UV
_chemical_formula_sum              "Li4 O6 U1 V1"
_cell_length_a       5.29005
_cell_length_b       5.29005
_cell_length_c       5.20323
_cell_angle_alpha    99.3332
_cell_angle_beta     99.3332
_cell_angle_gamma    120.194

_space_group_name_H-M_alt    "P 1"
_space_group_IT_number       1

loop_
  _space_group_symop_operation_xyz
  'x, y, z'

loop_
  _atom_site_type_symbol
  _atom_site_label
  _atom_site_symmetry_multiplicity
  _atom_site_fract_x
  _atom_site_fract_y
  _atom_site_fract_z
  _atom_site_occupancy
  Li  Li1       1.0  0.50100  0.49900  0.00000  1.0000
  Li  Li2       1.0  0.98400  0.01610  0.50000  1.0000
  Li  Li3       1.0  0.66100  0.33900  0.50000  1.0000
  Li  Li4       1.0  0.35300  0.64700  0.50000  1.0000
  O   O1        1.0  0.91800  0.58100  0.24200  1.0000
  O   O2        1.0  0.24400  0.24300  0.24400  1.0000
  O   O3        1.0  0.58000  0.91800  0.24500  1.0000
  O   O4        1.0  0.08220  0.42000  0.75500  1.0000
  O   O5        1.0  0.75700  0.75600  0.75600  1.0000
  O   O6        1.0  0.41900  0.08170  0.75800  1.0000
  U   U1        1.0  0.16700  0.83300  0.00000  1.0000
  V   V1        1.0  0.83400  0.16600  0.00000  1.0000
