data_image0
_chemical_formula_structural       AuLi4O6U
_chemical_formula_sum              "Au1 Li4 O6 U1"
_cell_length_a       5.40397
_cell_length_b       5.40397
_cell_length_c       5.29497
_cell_angle_alpha    99.1422
_cell_angle_beta     99.1422
_cell_angle_gamma    120.448

_space_group_name_H-M_alt    "P 1"
_space_group_IT_number       1

loop_
  _space_group_symop_operation_xyz
  'x, y, z'

loop_
  _atom_site_type_symbol
  _atom_site_label
  _atom_site_symmetry_multiplicity
  _atom_site_fract_x
  _atom_site_fract_y
  _atom_site_fract_z
  _atom_site_occupancy
  Au  Au1       1.0  0.83300  0.16700  0.00000  1.0000
  Li  Li1       1.0  0.50100  0.49900  0.00000  1.0000
  Li  Li2       1.0  0.98000  0.02040  0.50000  1.0000
  Li  Li3       1.0  0.66500  0.33500  0.50000  1.0000
  Li  Li4       1.0  0.36100  0.63900  0.50000  1.0000
  O   O1        1.0  0.91100  0.58800  0.25100  1.0000
  O   O2        1.0  0.25700  0.24900  0.25300  1.0000
  O   O3        1.0  0.57400  0.91000  0.25700  1.0000
  O   O4        1.0  0.09040  0.42600  0.74300  1.0000
  O   O5        1.0  0.75100  0.74300  0.74700  1.0000
  O   O6        1.0  0.41200  0.08910  0.74900  1.0000
  U   U1        1.0  0.16700  0.83300  0.00000  1.0000
