data_image0
_chemical_formula_structural       AlLi4O6Sb
_chemical_formula_sum              "Al1 Li4 O6 Sb1"
_cell_length_a       5.06723
_cell_length_b       5.06723
_cell_length_c       5.09518
_cell_angle_alpha    99.6131
_cell_angle_beta     99.6131
_cell_angle_gamma    119.967

_space_group_name_H-M_alt    "P 1"
_space_group_IT_number       1

loop_
  _space_group_symop_operation_xyz
  'x, y, z'

loop_
  _atom_site_type_symbol
  _atom_site_label
  _atom_site_symmetry_multiplicity
  _atom_site_fract_x
  _atom_site_fract_y
  _atom_site_fract_z
  _atom_site_occupancy
  Al  Al1       1.0  0.83300  0.16700  0.00000  1.0000
  Li  Li1       1.0  0.50100  0.49900  0.00000  1.0000
  Li  Li2       1.0  0.99000  0.01010  0.50000  1.0000
  Li  Li3       1.0  0.66100  0.33900  0.50000  1.0000
  Li  Li4       1.0  0.34500  0.65500  0.50000  1.0000
  O   O1        1.0  0.58700  0.93700  0.22700  1.0000
  O   O2        1.0  0.92900  0.56700  0.22800  1.0000
  O   O3        1.0  0.21600  0.22500  0.23100  1.0000
  O   O4        1.0  0.77500  0.78400  0.76900  1.0000
  O   O5        1.0  0.43300  0.07150  0.77200  1.0000
  O   O6        1.0  0.06300  0.41300  0.77300  1.0000
  Sb  Sb1       1.0  0.16700  0.83300  0.00000  1.0000
