data_image0
_chemical_formula_structural       CrLi4O6Pa
_chemical_formula_sum              "Cr1 Li4 O6 Pa1"
_cell_length_a       5.3887
_cell_length_b       5.3887
_cell_length_c       5.14749
_cell_angle_alpha    98.7684
_cell_angle_beta     98.7684
_cell_angle_gamma    120.929

_space_group_name_H-M_alt    "P 1"
_space_group_IT_number       1

loop_
  _space_group_symop_operation_xyz
  'x, y, z'

loop_
  _atom_site_type_symbol
  _atom_site_label
  _atom_site_symmetry_multiplicity
  _atom_site_fract_x
  _atom_site_fract_y
  _atom_site_fract_z
  _atom_site_occupancy
  Cr  Cr1       1.0  0.83400  0.16600  0.00000  1.0000
  Li  Li1       1.0  0.50000  0.50000  0.00000  1.0000
  Li  Li2       1.0  0.96500  0.03490  0.50000  1.0000
  Li  Li3       1.0  0.66900  0.33100  0.50000  1.0000
  Li  Li4       1.0  0.36100  0.63900  0.50000  1.0000
  O   O1        1.0  0.59300  0.92600  0.23700  1.0000
  O   O2        1.0  0.90600  0.54600  0.23800  1.0000
  O   O3        1.0  0.22100  0.24200  0.24100  1.0000
  O   O4        1.0  0.75800  0.77900  0.75900  1.0000
  O   O5        1.0  0.45400  0.09410  0.76200  1.0000
  O   O6        1.0  0.07450  0.40700  0.76300  1.0000
  Pa  Pa1       1.0  0.16600  0.83400  0.00000  1.0000
