data_image0
_chemical_formula_structural       FeLi4O6Pa
_chemical_formula_sum              "Fe1 Li4 O6 Pa1"
_cell_length_a       5.40418
_cell_length_b       5.40418
_cell_length_c       5.15344
_cell_angle_alpha    98.9816
_cell_angle_beta     98.9816
_cell_angle_gamma    120.765

_space_group_name_H-M_alt    "P 1"
_space_group_IT_number       1

loop_
  _space_group_symop_operation_xyz
  'x, y, z'

loop_
  _atom_site_type_symbol
  _atom_site_label
  _atom_site_symmetry_multiplicity
  _atom_site_fract_x
  _atom_site_fract_y
  _atom_site_fract_z
  _atom_site_occupancy
  Fe  Fe1       1.0  0.83300  0.16700  0.00000  1.0000
  Li  Li1       1.0  0.50000  0.50000  0.00000  1.0000
  Li  Li2       1.0  0.96800  0.03190  0.50000  1.0000
  Li  Li3       1.0  0.66600  0.33400  0.50000  1.0000
  Li  Li4       1.0  0.36000  0.64000  0.50000  1.0000
  O   O1        1.0  0.59400  0.92600  0.23700  1.0000
  O   O2        1.0  0.90900  0.55100  0.24000  1.0000
  O   O3        1.0  0.22400  0.24200  0.24200  1.0000
  O   O4        1.0  0.75800  0.77600  0.75800  1.0000
  O   O5        1.0  0.44900  0.09140  0.76000  1.0000
  O   O6        1.0  0.07360  0.40600  0.76300  1.0000
  Pa  Pa1       1.0  0.16600  0.83400  0.00000  1.0000
