data_image0
_chemical_formula_structural       Li4O6SbSc
_chemical_formula_sum              "Li4 O6 Sb1 Sc1"
_cell_length_a       5.24896
_cell_length_b       5.24896
_cell_length_c       5.1783
_cell_angle_alpha    99.9593
_cell_angle_beta     99.9593
_cell_angle_gamma    119.817

_space_group_name_H-M_alt    "P 1"
_space_group_IT_number       1

loop_
  _space_group_symop_operation_xyz
  'x, y, z'

loop_
  _atom_site_type_symbol
  _atom_site_label
  _atom_site_symmetry_multiplicity
  _atom_site_fract_x
  _atom_site_fract_y
  _atom_site_fract_z
  _atom_site_occupancy
  Li  Li1       1.0  0.50000  0.50000  0.00000  1.0000
  Li  Li2       1.0  0.65700  0.34300  0.50000  1.0000
  Li  Li3       1.0  0.34000  0.66000  0.50000  1.0000
  Li  Li4       1.0  0.00436  0.99600  0.50000  1.0000
  O   O1        1.0  0.93500  0.59400  0.23300  1.0000
  O   O2        1.0  0.56600  0.92200  0.23700  1.0000
  O   O3        1.0  0.23600  0.22300  0.23900  1.0000
  O   O4        1.0  0.77700  0.76400  0.76100  1.0000
  O   O5        1.0  0.07770  0.43400  0.76300  1.0000
  O   O6        1.0  0.40600  0.06500  0.76700  1.0000
  Sb  Sb1       1.0  0.16700  0.83300  0.00000  1.0000
  Sc  Sc1       1.0  0.83300  0.16700  0.00000  1.0000
