data_image0
_chemical_formula_structural       Li4O6TcTl
_chemical_formula_sum              "Li4 O6 Tc1 Tl1"
_cell_length_a       5.37269
_cell_length_b       5.37269
_cell_length_c       5.19313
_cell_angle_alpha    99.9876
_cell_angle_beta     99.9876
_cell_angle_gamma    120.065

_space_group_name_H-M_alt    "P 1"
_space_group_IT_number       1

loop_
  _space_group_symop_operation_xyz
  'x, y, z'

loop_
  _atom_site_type_symbol
  _atom_site_label
  _atom_site_symmetry_multiplicity
  _atom_site_fract_x
  _atom_site_fract_y
  _atom_site_fract_z
  _atom_site_occupancy
  Li  Li1       1.0  0.50000  0.50000  0.00000  1.0000
  Li  Li2       1.0  0.01120  0.98900  0.50000  1.0000
  Li  Li3       1.0  0.65800  0.34200  0.50000  1.0000
  Li  Li4       1.0  0.34000  0.66000  0.50000  1.0000
  O   O1        1.0  0.93600  0.61700  0.23100  1.0000
  O   O2        1.0  0.53900  0.90400  0.24700  1.0000
  O   O3        1.0  0.25700  0.22100  0.24700  1.0000
  O   O4        1.0  0.77900  0.74300  0.75300  1.0000
  O   O5        1.0  0.09580  0.46100  0.75300  1.0000
  O   O6        1.0  0.38300  0.06430  0.76900  1.0000
  Tc  Tc1       1.0  0.16700  0.83300  0.00000  1.0000
  Tl  Tl1       1.0  0.83500  0.16500  0.00000  1.0000
