data_image0
_chemical_formula_structural       Li4NpO6Pd
_chemical_formula_sum              "Li4 Np1 O6 Pd1"
_cell_length_a       5.32146
_cell_length_b       5.32135
_cell_length_c       5.18942
_cell_angle_alpha    98.3021
_cell_angle_beta     98.2996
_cell_angle_gamma    121.023

_space_group_name_H-M_alt    "P 1"
_space_group_IT_number       1

loop_
  _space_group_symop_operation_xyz
  'x, y, z'

loop_
  _atom_site_type_symbol
  _atom_site_label
  _atom_site_symmetry_multiplicity
  _atom_site_fract_x
  _atom_site_fract_y
  _atom_site_fract_z
  _atom_site_occupancy
  Li  Li1       1.0  0.50000  0.50000  0.00000  1.0000
  Li  Li2       1.0  0.35900  0.64100  0.50000  1.0000
  Li  Li3       1.0  0.66200  0.33800  0.50000  1.0000
  Li  Li4       1.0  0.98100  0.01930  0.50000  1.0000
  Np  Np1       1.0  0.16500  0.83500  0.00000  1.0000
  O   O1        1.0  0.59300  0.92700  0.24300  1.0000
  O   O2        1.0  0.91800  0.58600  0.25100  1.0000
  O   O3        1.0  0.25500  0.25600  0.25200  1.0000
  O   O4        1.0  0.74400  0.74500  0.74800  1.0000
  O   O5        1.0  0.41400  0.08160  0.74900  1.0000
  O   O6        1.0  0.07330  0.40700  0.75700  1.0000
  Pd  Pd1       1.0  0.83500  0.16500  0.00000  1.0000
