data_image0
_chemical_formula_structural       Li4O6PdSn
_chemical_formula_sum              "Li4 O6 Pd1 Sn1"
_cell_length_a       5.21865
_cell_length_b       5.21865
_cell_length_c       5.14188
_cell_angle_alpha    99.573
_cell_angle_beta     99.573
_cell_angle_gamma    120.12

_space_group_name_H-M_alt    "P 1"
_space_group_IT_number       1

loop_
  _space_group_symop_operation_xyz
  'x, y, z'

loop_
  _atom_site_type_symbol
  _atom_site_label
  _atom_site_symmetry_multiplicity
  _atom_site_fract_x
  _atom_site_fract_y
  _atom_site_fract_z
  _atom_site_occupancy
  Li  Li1       1.0  0.50100  0.49900  0.00000  1.0000
  Li  Li2       1.0  0.98100  0.01900  0.50000  1.0000
  Li  Li3       1.0  0.66800  0.33200  0.50000  1.0000
  Li  Li4       1.0  0.34600  0.65400  0.50000  1.0000
  O   O1        1.0  0.58500  0.92800  0.23700  1.0000
  O   O2        1.0  0.92200  0.57000  0.23900  1.0000
  O   O3        1.0  0.23000  0.23600  0.24200  1.0000
  O   O4        1.0  0.76400  0.77000  0.75800  1.0000
  O   O5        1.0  0.43000  0.07760  0.76100  1.0000
  O   O6        1.0  0.07230  0.41500  0.76300  1.0000
  Pd  Pd1       1.0  0.83400  0.16600  0.00000  1.0000
  Sn  Sn1       1.0  0.16600  0.83400  0.00000  1.0000
