data_image0
_chemical_formula_structural       BiCuLi4O6
_chemical_formula_sum              "Bi1 Cu1 Li4 O6"
_cell_length_a       5.25714
_cell_length_b       5.25714
_cell_length_c       5.11755
_cell_angle_alpha    98.6781
_cell_angle_beta     98.6785
_cell_angle_gamma    121.3

_space_group_name_H-M_alt    "P 1"
_space_group_IT_number       1

loop_
  _space_group_symop_operation_xyz
  'x, y, z'

loop_
  _atom_site_type_symbol
  _atom_site_label
  _atom_site_symmetry_multiplicity
  _atom_site_fract_x
  _atom_site_fract_y
  _atom_site_fract_z
  _atom_site_occupancy
  Bi  Bi1       1.0  0.16000  0.84000  0.00000  1.0000
  Cu  Cu1       1.0  0.83100  0.16900  0.00000  1.0000
  Li  Li1       1.0  0.49800  0.50200  0.00000  1.0000
  Li  Li2       1.0  0.98500  0.01520  0.50000  1.0000
  Li  Li3       1.0  0.66200  0.33800  0.50000  1.0000
  Li  Li4       1.0  0.34800  0.65200  0.50000  1.0000
  O   O1        1.0  0.60500  0.94400  0.22000  1.0000
  O   O2        1.0  0.24700  0.24600  0.25200  1.0000
  O   O3        1.0  0.93400  0.58000  0.25600  1.0000
  O   O4        1.0  0.42000  0.06620  0.74400  1.0000
  O   O5        1.0  0.75400  0.75200  0.74800  1.0000
  O   O6        1.0  0.05620  0.39500  0.78000  1.0000
