data_image0
_chemical_formula_structural       Li4O6PaV
_chemical_formula_sum              "Li4 O6 Pa1 V1"
_cell_length_a       5.40764
_cell_length_b       5.40766
_cell_length_c       5.15736
_cell_angle_alpha    98.9551
_cell_angle_beta     98.956
_cell_angle_gamma    120.656

_space_group_name_H-M_alt    "P 1"
_space_group_IT_number       1

loop_
  _space_group_symop_operation_xyz
  'x, y, z'

loop_
  _atom_site_type_symbol
  _atom_site_label
  _atom_site_symmetry_multiplicity
  _atom_site_fract_x
  _atom_site_fract_y
  _atom_site_fract_z
  _atom_site_occupancy
  Li  Li1       1.0  0.50000  0.50000  0.00000  1.0000
  Li  Li2       1.0  0.66000  0.34000  0.50000  1.0000
  Li  Li3       1.0  0.97000  0.02980  0.50000  1.0000
  Li  Li4       1.0  0.35900  0.64100  0.50000  1.0000
  O   O1        1.0  0.59500  0.92600  0.23400  1.0000
  O   O2        1.0  0.91100  0.55400  0.24000  1.0000
  O   O3        1.0  0.22900  0.24500  0.24700  1.0000
  O   O4        1.0  0.75500  0.77100  0.75300  1.0000
  O   O5        1.0  0.44600  0.08890  0.76000  1.0000
  O   O6        1.0  0.07440  0.40500  0.76600  1.0000
  Pa  Pa1       1.0  0.16500  0.83500  0.00000  1.0000
  V   V1        1.0  0.83500  0.16500  0.00000  1.0000
