data_image0
_chemical_formula_structural       BiLi4O6Y
_chemical_formula_sum              "Bi1 Li4 O6 Y1"
_cell_length_a       5.5331
_cell_length_b       5.5331
_cell_length_c       5.28704
_cell_angle_alpha    99.5779
_cell_angle_beta     99.5779
_cell_angle_gamma    120.378

_space_group_name_H-M_alt    "P 1"
_space_group_IT_number       1

loop_
  _space_group_symop_operation_xyz
  'x, y, z'

loop_
  _atom_site_type_symbol
  _atom_site_label
  _atom_site_symmetry_multiplicity
  _atom_site_fract_x
  _atom_site_fract_y
  _atom_site_fract_z
  _atom_site_occupancy
  Bi  Bi1       1.0  0.16700  0.83300  0.00000  1.0000
  Li  Li1       1.0  0.50000  0.50000  0.00000  1.0000
  Li  Li2       1.0  0.02140  0.97900  0.50000  1.0000
  Li  Li3       1.0  0.34000  0.66000  0.50000  1.0000
  Li  Li4       1.0  0.64300  0.35700  0.50000  1.0000
  O   O1        1.0  0.92400  0.59700  0.24200  1.0000
  O   O2        1.0  0.55800  0.90800  0.24700  1.0000
  O   O3        1.0  0.24800  0.23100  0.24900  1.0000
  O   O4        1.0  0.76900  0.75200  0.75100  1.0000
  O   O5        1.0  0.09190  0.44200  0.75300  1.0000
  O   O6        1.0  0.40300  0.07570  0.75800  1.0000
  Y   Y1        1.0  0.83400  0.16600  0.00000  1.0000
