data_image0
_chemical_formula_structural       AuLi4O6Pa
_chemical_formula_sum              "Au1 Li4 O6 Pa1"
_cell_length_a       5.44426
_cell_length_b       5.44426
_cell_length_c       5.29724
_cell_angle_alpha    98.9188
_cell_angle_beta     98.9188
_cell_angle_gamma    120.67

_space_group_name_H-M_alt    "P 1"
_space_group_IT_number       1

loop_
  _space_group_symop_operation_xyz
  'x, y, z'

loop_
  _atom_site_type_symbol
  _atom_site_label
  _atom_site_symmetry_multiplicity
  _atom_site_fract_x
  _atom_site_fract_y
  _atom_site_fract_z
  _atom_site_occupancy
  Au  Au1       1.0  0.83300  0.16700  0.00000  1.0000
  Li  Li1       1.0  0.50100  0.49900  0.00000  1.0000
  Li  Li2       1.0  0.97600  0.02440  0.50000  1.0000
  Li  Li3       1.0  0.66500  0.33500  0.50000  1.0000
  Li  Li4       1.0  0.36500  0.63500  0.50000  1.0000
  O   O1        1.0  0.90500  0.58300  0.25100  1.0000
  O   O2        1.0  0.25500  0.25000  0.25300  1.0000
  O   O3        1.0  0.57500  0.90800  0.25700  1.0000
  O   O4        1.0  0.09160  0.42500  0.74300  1.0000
  O   O5        1.0  0.75000  0.74500  0.74700  1.0000
  O   O6        1.0  0.41700  0.09480  0.74900  1.0000
  Pa  Pa1       1.0  0.16700  0.83300  0.00000  1.0000
