data_image0
_chemical_formula_structural       ErLi4O6Sb
_chemical_formula_sum              "Er1 Li4 O6 Sb1"
_cell_length_a       5.42968
_cell_length_b       5.42968
_cell_length_c       5.22938
_cell_angle_alpha    99.6023
_cell_angle_beta     99.6023
_cell_angle_gamma    120.368

_space_group_name_H-M_alt    "P 1"
_space_group_IT_number       1

loop_
  _space_group_symop_operation_xyz
  'x, y, z'

loop_
  _atom_site_type_symbol
  _atom_site_label
  _atom_site_symmetry_multiplicity
  _atom_site_fract_x
  _atom_site_fract_y
  _atom_site_fract_z
  _atom_site_occupancy
  Er  Er1       1.0  0.83400  0.16600  0.00000  1.0000
  Li  Li1       1.0  0.50000  0.50000  0.00000  1.0000
  Li  Li2       1.0  0.02470  0.97500  0.50000  1.0000
  Li  Li3       1.0  0.64700  0.35300  0.50000  1.0000
  Li  Li4       1.0  0.33100  0.66900  0.50000  1.0000
  O   O1        1.0  0.93500  0.60400  0.23200  1.0000
  O   O2        1.0  0.54500  0.91000  0.23900  1.0000
  O   O3        1.0  0.24300  0.21500  0.24000  1.0000
  O   O4        1.0  0.78500  0.75700  0.76000  1.0000
  O   O5        1.0  0.09050  0.45500  0.76100  1.0000
  O   O6        1.0  0.39600  0.06520  0.76800  1.0000
  Sb  Sb1       1.0  0.16700  0.83300  0.00000  1.0000
