data_image0
_chemical_formula_structural       GaLi4O6Sb
_chemical_formula_sum              "Ga1 Li4 O6 Sb1"
_cell_length_a       5.1339
_cell_length_b       5.13391
_cell_length_c       5.13681
_cell_angle_alpha    99.7359
_cell_angle_beta     99.736
_cell_angle_gamma    119.869

_space_group_name_H-M_alt    "P 1"
_space_group_IT_number       1

loop_
  _space_group_symop_operation_xyz
  'x, y, z'

loop_
  _atom_site_type_symbol
  _atom_site_label
  _atom_site_symmetry_multiplicity
  _atom_site_fract_x
  _atom_site_fract_y
  _atom_site_fract_z
  _atom_site_occupancy
  Ga  Ga1       1.0  0.83200  0.16800  0.00000  1.0000
  Li  Li1       1.0  0.50000  0.50000  0.00000  1.0000
  Li  Li2       1.0  0.99500  0.00489  0.50000  1.0000
  Li  Li3       1.0  0.34200  0.65800  0.50000  1.0000
  Li  Li4       1.0  0.66200  0.33800  0.50000  1.0000
  O   O1        1.0  0.93200  0.58000  0.23100  1.0000
  O   O2        1.0  0.57700  0.93000  0.23300  1.0000
  O   O3        1.0  0.22700  0.22500  0.23500  1.0000
  O   O4        1.0  0.77500  0.77300  0.76500  1.0000
  O   O5        1.0  0.07030  0.42300  0.76700  1.0000
  O   O6        1.0  0.42000  0.06840  0.76900  1.0000
  Sb  Sb1       1.0  0.16700  0.83300  0.00000  1.0000
