data_image0
_chemical_formula_structural       Li4NbO6Ti
_chemical_formula_sum              "Li4 Nb1 O6 Ti1"
_cell_length_a       5.11194
_cell_length_b       5.11194
_cell_length_c       5.13513
_cell_angle_alpha    99.2954
_cell_angle_beta     99.2954
_cell_angle_gamma    119.896

_space_group_name_H-M_alt    "P 1"
_space_group_IT_number       1

loop_
  _space_group_symop_operation_xyz
  'x, y, z'

loop_
  _atom_site_type_symbol
  _atom_site_label
  _atom_site_symmetry_multiplicity
  _atom_site_fract_x
  _atom_site_fract_y
  _atom_site_fract_z
  _atom_site_occupancy
  Li  Li1       1.0  0.50000  0.50000  0.00000  1.0000
  Li  Li2       1.0  0.99200  0.00787  0.50000  1.0000
  Li  Li3       1.0  0.66100  0.33900  0.50000  1.0000
  Li  Li4       1.0  0.34500  0.65500  0.50000  1.0000
  Nb  Nb1       1.0  0.15900  0.84100  0.00000  1.0000
  O   O1        1.0  0.58600  0.93000  0.22800  1.0000
  O   O2        1.0  0.92700  0.57900  0.23100  1.0000
  O   O3        1.0  0.24000  0.24200  0.25100  1.0000
  O   O4        1.0  0.75800  0.76000  0.74900  1.0000
  O   O5        1.0  0.42100  0.07290  0.76900  1.0000
  O   O6        1.0  0.07050  0.41400  0.77200  1.0000
  Ti  Ti1       1.0  0.84100  0.15900  0.00000  1.0000
