data_image0
_chemical_formula_structural       HoLi4O6Sb
_chemical_formula_sum              "Ho1 Li4 O6 Sb1"
_cell_length_a       5.44827
_cell_length_b       5.44827
_cell_length_c       5.21376
_cell_angle_alpha    99.3813
_cell_angle_beta     99.3813
_cell_angle_gamma    120.614

_space_group_name_H-M_alt    "P 1"
_space_group_IT_number       1

loop_
  _space_group_symop_operation_xyz
  'x, y, z'

loop_
  _atom_site_type_symbol
  _atom_site_label
  _atom_site_symmetry_multiplicity
  _atom_site_fract_x
  _atom_site_fract_y
  _atom_site_fract_z
  _atom_site_occupancy
  Ho  Ho1       1.0  0.83500  0.16500  0.00000  1.0000
  Li  Li1       1.0  0.50000  0.50000  0.00000  1.0000
  Li  Li2       1.0  0.02610  0.97400  0.50000  1.0000
  Li  Li3       1.0  0.64600  0.35400  0.50000  1.0000
  Li  Li4       1.0  0.33000  0.67000  0.50000  1.0000
  O   O1        1.0  0.93300  0.60300  0.23300  1.0000
  O   O2        1.0  0.54200  0.90700  0.24000  1.0000
  O   O3        1.0  0.24400  0.21300  0.24000  1.0000
  O   O4        1.0  0.78700  0.75600  0.76000  1.0000
  O   O5        1.0  0.09320  0.45800  0.76000  1.0000
  O   O6        1.0  0.39700  0.06660  0.76700  1.0000
  Sb  Sb1       1.0  0.16700  0.83300  0.00000  1.0000
