data_image0
_chemical_formula_structural       AsGdLi4O6
_chemical_formula_sum              "As1 Gd1 Li4 O6"
_cell_length_a       5.43612
_cell_length_b       5.43612
_cell_length_c       5.0972
_cell_angle_alpha    98.7727
_cell_angle_beta     98.7727
_cell_angle_gamma    121.735

_space_group_name_H-M_alt    "P 1"
_space_group_IT_number       1

loop_
  _space_group_symop_operation_xyz
  'x, y, z'

loop_
  _atom_site_type_symbol
  _atom_site_label
  _atom_site_symmetry_multiplicity
  _atom_site_fract_x
  _atom_site_fract_y
  _atom_site_fract_z
  _atom_site_occupancy
  As  As1       1.0  0.16800  0.83200  0.00000  1.0000
  Gd  Gd1       1.0  0.83900  0.16100  0.00000  1.0000
  Li  Li1       1.0  0.50500  0.49500  0.00000  1.0000
  Li  Li2       1.0  0.03790  0.96200  0.50000  1.0000
  Li  Li3       1.0  0.64300  0.35700  0.50000  1.0000
  Li  Li4       1.0  0.30400  0.69600  0.50000  1.0000
  O   O1        1.0  0.93900  0.61300  0.22200  1.0000
  O   O2        1.0  0.24700  0.18900  0.23100  1.0000
  O   O3        1.0  0.51400  0.89600  0.23300  1.0000
  O   O4        1.0  0.10400  0.48600  0.76700  1.0000
  O   O5        1.0  0.81100  0.75300  0.76900  1.0000
  O   O6        1.0  0.38700  0.06060  0.77800  1.0000
