data_image0
_chemical_formula_structural       AsGaLi4O6
_chemical_formula_sum              "As1 Ga1 Li4 O6"
_cell_length_a       4.98896
_cell_length_b       4.98896
_cell_length_c       5.04517
_cell_angle_alpha    99.718
_cell_angle_beta     99.718
_cell_angle_gamma    119.859

_space_group_name_H-M_alt    "P 1"
_space_group_IT_number       1

loop_
  _space_group_symop_operation_xyz
  'x, y, z'

loop_
  _atom_site_type_symbol
  _atom_site_label
  _atom_site_symmetry_multiplicity
  _atom_site_fract_x
  _atom_site_fract_y
  _atom_site_fract_z
  _atom_site_occupancy
  As  As1       1.0  0.16800  0.83200  0.00000  1.0000
  Ga  Ga1       1.0  0.83300  0.16700  0.00000  1.0000
  Li  Li1       1.0  0.50000  0.50000  0.00000  1.0000
  Li  Li2       1.0  0.65900  0.34100  0.50000  1.0000
  Li  Li3       1.0  0.33700  0.66300  0.50000  1.0000
  Li  Li4       1.0  0.00600  0.99400  0.50000  1.0000
  O   O1        1.0  0.94200  0.59500  0.22200  1.0000
  O   O2        1.0  0.55700  0.92400  0.22800  1.0000
  O   O3        1.0  0.22800  0.21000  0.22800  1.0000
  O   O4        1.0  0.79000  0.77200  0.77200  1.0000
  O   O5        1.0  0.07570  0.44300  0.77200  1.0000
  O   O6        1.0  0.40500  0.05790  0.77800  1.0000
