data_image0
_chemical_formula_structural       CrLi4O6Tl
_chemical_formula_sum              "Cr1 Li4 O6 Tl1"
_cell_length_a       5.31381
_cell_length_b       5.31381
_cell_length_c       5.09833
_cell_angle_alpha    99.2525
_cell_angle_beta     99.2525
_cell_angle_gamma    121.077

_space_group_name_H-M_alt    "P 1"
_space_group_IT_number       1

loop_
  _space_group_symop_operation_xyz
  'x, y, z'

loop_
  _atom_site_type_symbol
  _atom_site_label
  _atom_site_symmetry_multiplicity
  _atom_site_fract_x
  _atom_site_fract_y
  _atom_site_fract_z
  _atom_site_occupancy
  Cr  Cr1       1.0  0.16200  0.83800  0.00000  1.0000
  Li  Li1       1.0  0.49200  0.50800  0.00000  1.0000
  Li  Li2       1.0  0.01230  0.98800  0.50000  1.0000
  Li  Li3       1.0  0.66200  0.33800  0.50000  1.0000
  Li  Li4       1.0  0.34600  0.65400  0.50000  1.0000
  O   O1        1.0  0.95000  0.63300  0.22100  1.0000
  O   O2        1.0  0.53500  0.90700  0.24300  1.0000
  O   O3        1.0  0.26000  0.21800  0.24700  1.0000
  O   O4        1.0  0.78200  0.74000  0.75300  1.0000
  O   O5        1.0  0.09270  0.46500  0.75700  1.0000
  O   O6        1.0  0.36700  0.04980  0.77900  1.0000
  Tl  Tl1       1.0  0.83900  0.16100  0.00000  1.0000
