data_image0
_chemical_formula_structural       CrLi4O6Sb
_chemical_formula_sum              "Cr1 Li4 O6 Sb1"
_cell_length_a       5.13306
_cell_length_b       5.13306
_cell_length_c       5.11564
_cell_angle_alpha    99.7397
_cell_angle_beta     99.7397
_cell_angle_gamma    119.891

_space_group_name_H-M_alt    "P 1"
_space_group_IT_number       1

loop_
  _space_group_symop_operation_xyz
  'x, y, z'

loop_
  _atom_site_type_symbol
  _atom_site_label
  _atom_site_symmetry_multiplicity
  _atom_site_fract_x
  _atom_site_fract_y
  _atom_site_fract_z
  _atom_site_occupancy
  Cr  Cr1       1.0  0.83300  0.16700  0.00000  1.0000
  Li  Li1       1.0  0.50100  0.49900  0.00000  1.0000
  Li  Li2       1.0  0.99200  0.00803  0.50000  1.0000
  Li  Li3       1.0  0.66200  0.33800  0.50000  1.0000
  Li  Li4       1.0  0.34400  0.65600  0.50000  1.0000
  O   O1        1.0  0.93000  0.57900  0.23200  1.0000
  O   O2        1.0  0.57800  0.92900  0.23400  1.0000
  O   O3        1.0  0.22800  0.22600  0.23600  1.0000
  O   O4        1.0  0.77400  0.77200  0.76400  1.0000
  O   O5        1.0  0.07150  0.42200  0.76600  1.0000
  O   O6        1.0  0.42100  0.07030  0.76800  1.0000
  Sb  Sb1       1.0  0.16700  0.83300  0.00000  1.0000
