data_image0
_chemical_formula_structural       Li4O6TeTi
_chemical_formula_sum              "Li4 O6 Te1 Ti1"
_cell_length_a       5.30394
_cell_length_b       5.30394
_cell_length_c       5.12966
_cell_angle_alpha    99.7534
_cell_angle_beta     99.7534
_cell_angle_gamma    120.08

_space_group_name_H-M_alt    "P 1"
_space_group_IT_number       1

loop_
  _space_group_symop_operation_xyz
  'x, y, z'

loop_
  _atom_site_type_symbol
  _atom_site_label
  _atom_site_symmetry_multiplicity
  _atom_site_fract_x
  _atom_site_fract_y
  _atom_site_fract_z
  _atom_site_occupancy
  Li  Li1       1.0  0.49900  0.50100  0.00000  1.0000
  Li  Li2       1.0  0.01630  0.98400  0.50000  1.0000
  Li  Li3       1.0  0.65300  0.34700  0.50000  1.0000
  Li  Li4       1.0  0.33700  0.66300  0.50000  1.0000
  O   O1        1.0  0.93300  0.59800  0.23200  1.0000
  O   O2        1.0  0.55400  0.91400  0.23600  1.0000
  O   O3        1.0  0.24100  0.22100  0.23900  1.0000
  O   O4        1.0  0.77900  0.75900  0.76100  1.0000
  O   O5        1.0  0.08550  0.44600  0.76400  1.0000
  O   O6        1.0  0.40200  0.06740  0.76800  1.0000
  Te  Te1       1.0  0.83400  0.16600  0.00000  1.0000
  Ti  Ti1       1.0  0.16800  0.83200  0.00000  1.0000
