data_image0
_chemical_formula_structural       Li4O6OsTl
_chemical_formula_sum              "Li4 O6 Os1 Tl1"
_cell_length_a       5.37178
_cell_length_b       5.37178
_cell_length_c       5.22088
_cell_angle_alpha    100.067
_cell_angle_beta     100.067
_cell_angle_gamma    119.898

_space_group_name_H-M_alt    "P 1"
_space_group_IT_number       1

loop_
  _space_group_symop_operation_xyz
  'x, y, z'

loop_
  _atom_site_type_symbol
  _atom_site_label
  _atom_site_symmetry_multiplicity
  _atom_site_fract_x
  _atom_site_fract_y
  _atom_site_fract_z
  _atom_site_occupancy
  Li  Li1       1.0  0.50000  0.50000  0.00000  1.0000
  Li  Li2       1.0  0.01330  0.98700  0.50000  1.0000
  Li  Li3       1.0  0.65800  0.34200  0.50000  1.0000
  Li  Li4       1.0  0.33400  0.66600  0.50000  1.0000
  O   O1        1.0  0.93600  0.61500  0.23200  1.0000
  O   O2        1.0  0.25500  0.21800  0.24600  1.0000
  O   O3        1.0  0.54000  0.90400  0.24600  1.0000
  O   O4        1.0  0.09570  0.46000  0.75400  1.0000
  O   O5        1.0  0.78200  0.74500  0.75400  1.0000
  O   O6        1.0  0.38500  0.06440  0.76800  1.0000
  Os  Os1       1.0  0.16700  0.83300  0.00000  1.0000
  Tl  Tl1       1.0  0.83500  0.16500  0.00000  1.0000
