data_image0
_chemical_formula_structural       CrLi4O6U
_chemical_formula_sum              "Cr1 Li4 O6 U1"
_cell_length_a       5.33494
_cell_length_b       5.33494
_cell_length_c       5.14554
_cell_angle_alpha    99.0466
_cell_angle_beta     99.0467
_cell_angle_gamma    120.628

_space_group_name_H-M_alt    "P 1"
_space_group_IT_number       1

loop_
  _space_group_symop_operation_xyz
  'x, y, z'

loop_
  _atom_site_type_symbol
  _atom_site_label
  _atom_site_symmetry_multiplicity
  _atom_site_fract_x
  _atom_site_fract_y
  _atom_site_fract_z
  _atom_site_occupancy
  Cr  Cr1       1.0  0.83400  0.16600  0.00000  1.0000
  Li  Li1       1.0  0.50000  0.50000  0.00000  1.0000
  Li  Li2       1.0  0.35600  0.64400  0.50000  1.0000
  Li  Li3       1.0  0.66600  0.33400  0.50000  1.0000
  Li  Li4       1.0  0.97100  0.02900  0.50000  1.0000
  O   O1        1.0  0.59300  0.92700  0.23700  1.0000
  O   O2        1.0  0.91000  0.55200  0.23800  1.0000
  O   O3        1.0  0.22400  0.24200  0.24200  1.0000
  O   O4        1.0  0.75800  0.77600  0.75800  1.0000
  O   O5        1.0  0.44800  0.09030  0.76200  1.0000
  O   O6        1.0  0.07340  0.40700  0.76300  1.0000
  U   U1        1.0  0.16600  0.83400  0.00000  1.0000
