data_image0
_chemical_formula_structural       Li4NiO6Sn
_chemical_formula_sum              "Li4 Ni1 O6 Sn1"
_cell_length_a       5.0934
_cell_length_b       5.0934
_cell_length_c       5.06462
_cell_angle_alpha    99.2922
_cell_angle_beta     99.2922
_cell_angle_gamma    120.303

_space_group_name_H-M_alt    "P 1"
_space_group_IT_number       1

loop_
  _space_group_symop_operation_xyz
  'x, y, z'

loop_
  _atom_site_type_symbol
  _atom_site_label
  _atom_site_symmetry_multiplicity
  _atom_site_fract_x
  _atom_site_fract_y
  _atom_site_fract_z
  _atom_site_occupancy
  Li  Li1       1.0  0.50000  0.50000  0.00000  1.0000
  Li  Li2       1.0  0.97400  0.02590  0.50000  1.0000
  Li  Li3       1.0  0.67300  0.32700  0.50000  1.0000
  Li  Li4       1.0  0.34700  0.65300  0.50000  1.0000
  Ni  Ni1       1.0  0.83400  0.16600  0.00000  1.0000
  O   O1        1.0  0.59900  0.93800  0.22600  1.0000
  O   O2        1.0  0.91600  0.54600  0.23200  1.0000
  O   O3        1.0  0.21000  0.23400  0.23400  1.0000
  O   O4        1.0  0.76600  0.79000  0.76600  1.0000
  O   O5        1.0  0.45400  0.08380  0.76800  1.0000
  O   O6        1.0  0.06160  0.40100  0.77400  1.0000
  Sn  Sn1       1.0  0.16600  0.83400  0.00000  1.0000
