data_image0
_chemical_formula_structural       InLi4O6Sb
_chemical_formula_sum              "In1 Li4 O6 Sb1"
_cell_length_a       5.3227
_cell_length_b       5.3227
_cell_length_c       5.21013
_cell_angle_alpha    99.94
_cell_angle_beta     99.94
_cell_angle_gamma    119.891

_space_group_name_H-M_alt    "P 1"
_space_group_IT_number       1

loop_
  _space_group_symop_operation_xyz
  'x, y, z'

loop_
  _atom_site_type_symbol
  _atom_site_label
  _atom_site_symmetry_multiplicity
  _atom_site_fract_x
  _atom_site_fract_y
  _atom_site_fract_z
  _atom_site_occupancy
  In  In1       1.0  0.83300  0.16700  0.00000  1.0000
  Li  Li1       1.0  0.50000  0.50000  0.00000  1.0000
  Li  Li2       1.0  0.00967  0.99000  0.50000  1.0000
  Li  Li3       1.0  0.65600  0.34400  0.50000  1.0000
  Li  Li4       1.0  0.33700  0.66300  0.50000  1.0000
  O   O1        1.0  0.93600  0.60300  0.23400  1.0000
  O   O2        1.0  0.55600  0.91600  0.24100  1.0000
  O   O3        1.0  0.24300  0.22100  0.24200  1.0000
  O   O4        1.0  0.77900  0.75700  0.75800  1.0000
  O   O5        1.0  0.08450  0.44400  0.75900  1.0000
  O   O6        1.0  0.39700  0.06440  0.76600  1.0000
  Sb  Sb1       1.0  0.16700  0.83300  0.00000  1.0000
