data_image0
_chemical_formula_structural       BiLi4O6Sc
_chemical_formula_sum              "Bi1 Li4 O6 Sc1"
_cell_length_a       5.34014
_cell_length_b       5.34014
_cell_length_c       5.24554
_cell_angle_alpha    99.9402
_cell_angle_beta     99.9402
_cell_angle_gamma    119.818

_space_group_name_H-M_alt    "P 1"
_space_group_IT_number       1

loop_
  _space_group_symop_operation_xyz
  'x, y, z'

loop_
  _atom_site_type_symbol
  _atom_site_label
  _atom_site_symmetry_multiplicity
  _atom_site_fract_x
  _atom_site_fract_y
  _atom_site_fract_z
  _atom_site_occupancy
  Bi  Bi1       1.0  0.16700  0.83300  0.00000  1.0000
  Li  Li1       1.0  0.50000  0.50000  0.00000  1.0000
  Li  Li2       1.0  0.00000  0.00029  0.50000  1.0000
  Li  Li3       1.0  0.65700  0.34300  0.50000  1.0000
  Li  Li4       1.0  0.34200  0.65800  0.50000  1.0000
  O   O1        1.0  0.92600  0.58100  0.24100  1.0000
  O   O2        1.0  0.58300  0.92700  0.24300  1.0000
  O   O3        1.0  0.23600  0.23600  0.24500  1.0000
  O   O4        1.0  0.76400  0.76400  0.75500  1.0000
  O   O5        1.0  0.07330  0.41700  0.75700  1.0000
  O   O6        1.0  0.41900  0.07440  0.75900  1.0000
  Sc  Sc1       1.0  0.83300  0.16700  0.00000  1.0000
