data_image0
_chemical_formula_structural       BiLi4O6Sm
_chemical_formula_sum              "Bi1 Li4 O6 Sm1"
_cell_length_a       5.62147
_cell_length_b       5.62147
_cell_length_c       5.28544
_cell_angle_alpha    99.1118
_cell_angle_beta     99.1118
_cell_angle_gamma    120.957

_space_group_name_H-M_alt    "P 1"
_space_group_IT_number       1

loop_
  _space_group_symop_operation_xyz
  'x, y, z'

loop_
  _atom_site_type_symbol
  _atom_site_label
  _atom_site_symmetry_multiplicity
  _atom_site_fract_x
  _atom_site_fract_y
  _atom_site_fract_z
  _atom_site_occupancy
  Bi  Bi1       1.0  0.16700  0.83300  0.00000  1.0000
  Li  Li1       1.0  0.50100  0.49900  0.00000  1.0000
  Li  Li2       1.0  0.02930  0.97100  0.50000  1.0000
  Li  Li3       1.0  0.63700  0.36300  0.50000  1.0000
  Li  Li4       1.0  0.33700  0.66300  0.50000  1.0000
  O   O1        1.0  0.92100  0.59900  0.24200  1.0000
  O   O2        1.0  0.54600  0.89800  0.24800  1.0000
  O   O3        1.0  0.25000  0.22500  0.25000  1.0000
  O   O4        1.0  0.77500  0.75000  0.75000  1.0000
  O   O5        1.0  0.10200  0.45400  0.75200  1.0000
  O   O6        1.0  0.40100  0.07930  0.75800  1.0000
  Sm  Sm1       1.0  0.83500  0.16500  0.00000  1.0000
