data_image0
_chemical_formula_structural       AsLi4O6V
_chemical_formula_sum              "As1 Li4 O6 V1"
_cell_length_a       5.02183
_cell_length_b       5.02183
_cell_length_c       5.04239
_cell_angle_alpha    100.116
_cell_angle_beta     100.116
_cell_angle_gamma    119.221

_space_group_name_H-M_alt    "P 1"
_space_group_IT_number       1

loop_
  _space_group_symop_operation_xyz
  'x, y, z'

loop_
  _atom_site_type_symbol
  _atom_site_label
  _atom_site_symmetry_multiplicity
  _atom_site_fract_x
  _atom_site_fract_y
  _atom_site_fract_z
  _atom_site_occupancy
  As  As1       1.0  0.16800  0.83200  0.00000  1.0000
  Li  Li1       1.0  0.49800  0.50200  0.00000  1.0000
  Li  Li2       1.0  0.00206  0.99800  0.50000  1.0000
  Li  Li3       1.0  0.66100  0.33900  0.50000  1.0000
  Li  Li4       1.0  0.33900  0.66100  0.50000  1.0000
  O   O1        1.0  0.94400  0.59600  0.22200  1.0000
  O   O2        1.0  0.23100  0.21000  0.23000  1.0000
  O   O3        1.0  0.55200  0.91800  0.23000  1.0000
  O   O4        1.0  0.08160  0.44800  0.77000  1.0000
  O   O5        1.0  0.79000  0.76900  0.77000  1.0000
  O   O6        1.0  0.40400  0.05600  0.77800  1.0000
  V   V1        1.0  0.82900  0.17100  0.00000  1.0000
