data_image0
_chemical_formula_structural       AlLi4NiO6
_chemical_formula_sum              "Al1 Li4 Ni1 O6"
_cell_length_a       4.85421
_cell_length_b       4.85421
_cell_length_c       4.93931
_cell_angle_alpha    99.5654
_cell_angle_beta     99.5654
_cell_angle_gamma    120.148

_space_group_name_H-M_alt    "P 1"
_space_group_IT_number       1

loop_
  _space_group_symop_operation_xyz
  'x, y, z'

loop_
  _atom_site_type_symbol
  _atom_site_label
  _atom_site_symmetry_multiplicity
  _atom_site_fract_x
  _atom_site_fract_y
  _atom_site_fract_z
  _atom_site_occupancy
  Al  Al1       1.0  0.16500  0.83500  0.00000  1.0000
  Li  Li1       1.0  0.50100  0.49900  0.00000  1.0000
  Li  Li2       1.0  0.99200  0.00801  0.50000  1.0000
  Li  Li3       1.0  0.66100  0.33900  0.50000  1.0000
  Li  Li4       1.0  0.34500  0.65500  0.50000  1.0000
  Ni  Ni1       1.0  0.83400  0.16600  0.00000  1.0000
  O   O1        1.0  0.57900  0.93300  0.22300  1.0000
  O   O2        1.0  0.93000  0.57100  0.22700  1.0000
  O   O3        1.0  0.21900  0.22200  0.22800  1.0000
  O   O4        1.0  0.77800  0.78100  0.77200  1.0000
  O   O5        1.0  0.42900  0.07000  0.77300  1.0000
  O   O6        1.0  0.06740  0.42100  0.77700  1.0000
