data_image0
_chemical_formula_structural       CuLi4O6Sb
_chemical_formula_sum              "Cu1 Li4 O6 Sb1"
_cell_length_a       5.15376
_cell_length_b       5.15376
_cell_length_c       5.06263
_cell_angle_alpha    98.6768
_cell_angle_beta     98.6768
_cell_angle_gamma    121.362

_space_group_name_H-M_alt    "P 1"
_space_group_IT_number       1

loop_
  _space_group_symop_operation_xyz
  'x, y, z'

loop_
  _atom_site_type_symbol
  _atom_site_label
  _atom_site_symmetry_multiplicity
  _atom_site_fract_x
  _atom_site_fract_y
  _atom_site_fract_z
  _atom_site_occupancy
  Cu  Cu1       1.0  0.82900  0.17100  0.00000  1.0000
  Li  Li1       1.0  0.49900  0.50100  0.00000  1.0000
  Li  Li2       1.0  0.99000  0.00973  0.50000  1.0000
  Li  Li3       1.0  0.66100  0.33900  0.50000  1.0000
  Li  Li4       1.0  0.34800  0.65200  0.50000  1.0000
  O   O1        1.0  0.58700  0.93900  0.21700  1.0000
  O   O2        1.0  0.24600  0.23200  0.24300  1.0000
  O   O3        1.0  0.94300  0.59300  0.24900  1.0000
  O   O4        1.0  0.40700  0.05750  0.75100  1.0000
  O   O5        1.0  0.76800  0.75400  0.75700  1.0000
  O   O6        1.0  0.06080  0.41300  0.78300  1.0000
  Sb  Sb1       1.0  0.16000  0.84000  0.00000  1.0000
