data_image0
_chemical_formula_structural       Li4O6RhTe
_chemical_formula_sum              "Li4 O6 Rh1 Te1"
_cell_length_a       5.24741
_cell_length_b       5.24741
_cell_length_c       5.15199
_cell_angle_alpha    99.692
_cell_angle_beta     99.692
_cell_angle_gamma    120.008

_space_group_name_H-M_alt    "P 1"
_space_group_IT_number       1

loop_
  _space_group_symop_operation_xyz
  'x, y, z'

loop_
  _atom_site_type_symbol
  _atom_site_label
  _atom_site_symmetry_multiplicity
  _atom_site_fract_x
  _atom_site_fract_y
  _atom_site_fract_z
  _atom_site_occupancy
  Li  Li1       1.0  0.49900  0.50100  0.00000  1.0000
  Li  Li2       1.0  0.65600  0.34400  0.50000  1.0000
  Li  Li3       1.0  0.33400  0.66600  0.50000  1.0000
  Li  Li4       1.0  0.01370  0.98600  0.50000  1.0000
  O   O1        1.0  0.92400  0.58100  0.23900  1.0000
  O   O2        1.0  0.57500  0.92300  0.24000  1.0000
  O   O3        1.0  0.23900  0.23700  0.24500  1.0000
  O   O4        1.0  0.76300  0.76100  0.75500  1.0000
  O   O5        1.0  0.07670  0.42500  0.76000  1.0000
  O   O6        1.0  0.41900  0.07570  0.76100  1.0000
  Rh  Rh1       1.0  0.16600  0.83400  0.00000  1.0000
  Te  Te1       1.0  0.83400  0.16600  0.00000  1.0000
