data_image0
_chemical_formula_structural       Li4O6RuSi
_chemical_formula_sum              "Li4 O6 Ru1 Si1"
_cell_length_a       4.97343
_cell_length_b       4.97343
_cell_length_c       4.9781
_cell_angle_alpha    99.8288
_cell_angle_beta     99.8288
_cell_angle_gamma    119.895

_space_group_name_H-M_alt    "P 1"
_space_group_IT_number       1

loop_
  _space_group_symop_operation_xyz
  'x, y, z'

loop_
  _atom_site_type_symbol
  _atom_site_label
  _atom_site_symmetry_multiplicity
  _atom_site_fract_x
  _atom_site_fract_y
  _atom_site_fract_z
  _atom_site_occupancy
  Li  Li1       1.0  0.50000  0.50000  0.00000  1.0000
  Li  Li2       1.0  0.66100  0.33900  0.50000  1.0000
  Li  Li3       1.0  0.33900  0.66100  0.50000  1.0000
  Li  Li4       1.0  0.00148  0.99900  0.50000  1.0000
  O   O1        1.0  0.94700  0.60600  0.21900  1.0000
  O   O2        1.0  0.54600  0.91800  0.22400  1.0000
  O   O3        1.0  0.23300  0.20300  0.22500  1.0000
  O   O4        1.0  0.79700  0.76700  0.77500  1.0000
  O   O5        1.0  0.08240  0.45400  0.77600  1.0000
  O   O6        1.0  0.39400  0.05280  0.78100  1.0000
  Ru  Ru1       1.0  0.83300  0.16700  0.00000  1.0000
  Si  Si1       1.0  0.16700  0.83300  0.00000  1.0000
