data_image0
_chemical_formula_structural       Li4O6RbRe
_chemical_formula_sum              "Li4 O6 Rb1 Re1"
_cell_length_a       6.25576
_cell_length_b       6.25576
_cell_length_c       5.10312
_cell_angle_alpha    97.8054
_cell_angle_beta     97.8054
_cell_angle_gamma    129.035

_space_group_name_H-M_alt    "P 1"
_space_group_IT_number       1

loop_
  _space_group_symop_operation_xyz
  'x, y, z'

loop_
  _atom_site_type_symbol
  _atom_site_label
  _atom_site_symmetry_multiplicity
  _atom_site_fract_x
  _atom_site_fract_y
  _atom_site_fract_z
  _atom_site_occupancy
  Li  Li1       1.0  0.54800  0.45200  0.00000  1.0000
  Li  Li2       1.0  0.04470  0.95500  0.50000  1.0000
  Li  Li3       1.0  0.64900  0.35100  0.50000  1.0000
  Li  Li4       1.0  0.26400  0.73600  0.50000  1.0000
  O   O1        1.0  0.28600  0.18300  0.22800  1.0000
  O   O2        1.0  0.92600  0.62500  0.23000  1.0000
  O   O3        1.0  0.46000  0.89000  0.24500  1.0000
  O   O4        1.0  0.11000  0.54000  0.75500  1.0000
  O   O5        1.0  0.37500  0.07440  0.77000  1.0000
  O   O6        1.0  0.81700  0.71400  0.77200  1.0000
  Rb  Rb1       1.0  0.85500  0.14500  0.00000  1.0000
  Re  Re1       1.0  0.16500  0.83500  0.00000  1.0000
