data_image0
_chemical_formula_structural       FeLi4O6Te
_chemical_formula_sum              "Fe1 Li4 O6 Te1"
_cell_length_a       5.17139
_cell_length_b       5.17139
_cell_length_c       5.13498
_cell_angle_alpha    100.264
_cell_angle_beta     100.264
_cell_angle_gamma    119.051

_space_group_name_H-M_alt    "P 1"
_space_group_IT_number       1

loop_
  _space_group_symop_operation_xyz
  'x, y, z'

loop_
  _atom_site_type_symbol
  _atom_site_label
  _atom_site_symmetry_multiplicity
  _atom_site_fract_x
  _atom_site_fract_y
  _atom_site_fract_z
  _atom_site_occupancy
  Fe  Fe1       1.0  0.16900  0.83100  0.00000  1.0000
  Li  Li1       1.0  0.50000  0.50000  0.00000  1.0000
  Li  Li2       1.0  0.66000  0.34000  0.50000  1.0000
  Li  Li3       1.0  0.33800  0.66200  0.50000  1.0000
  Li  Li4       1.0  0.00116  0.99900  0.50000  1.0000
  O   O1        1.0  0.60300  0.94000  0.22900  1.0000
  O   O2        1.0  0.91100  0.55300  0.23900  1.0000
  O   O3        1.0  0.22000  0.24300  0.23900  1.0000
  O   O4        1.0  0.75700  0.78000  0.76100  1.0000
  O   O5        1.0  0.44700  0.08920  0.76100  1.0000
  O   O6        1.0  0.06010  0.39700  0.77100  1.0000
  Te  Te1       1.0  0.83300  0.16700  0.00000  1.0000
