data_image0
_chemical_formula_structural       Li4O6SiSn
_chemical_formula_sum              "Li4 O6 Si1 Sn1"
_cell_length_a       5.07862
_cell_length_b       5.07862
_cell_length_c       5.0448
_cell_angle_alpha    99.2806
_cell_angle_beta     99.2806
_cell_angle_gamma    120.355

_space_group_name_H-M_alt    "P 1"
_space_group_IT_number       1

loop_
  _space_group_symop_operation_xyz
  'x, y, z'

loop_
  _atom_site_type_symbol
  _atom_site_label
  _atom_site_symmetry_multiplicity
  _atom_site_fract_x
  _atom_site_fract_y
  _atom_site_fract_z
  _atom_site_occupancy
  Li  Li1       1.0  0.50100  0.49900  0.00000  1.0000
  Li  Li2       1.0  0.97700  0.02300  0.50000  1.0000
  Li  Li3       1.0  0.67000  0.33000  0.50000  1.0000
  Li  Li4       1.0  0.34700  0.65300  0.50000  1.0000
  O   O1        1.0  0.60700  0.94600  0.21900  1.0000
  O   O2        1.0  0.91500  0.53600  0.22600  1.0000
  O   O3        1.0  0.19800  0.23100  0.22600  1.0000
  O   O4        1.0  0.76900  0.80200  0.77400  1.0000
  O   O5        1.0  0.46400  0.08490  0.77400  1.0000
  O   O6        1.0  0.05390  0.39300  0.78100  1.0000
  Si  Si1       1.0  0.83300  0.16700  0.00000  1.0000
  Sn  Sn1       1.0  0.16600  0.83400  0.00000  1.0000
