data_image0
_chemical_formula_structural       GeLi4O6Sn
_chemical_formula_sum              "Ge1 Li4 O6 Sn1"
_cell_length_a       5.15904
_cell_length_b       5.15904
_cell_length_c       5.12948
_cell_angle_alpha    99.557
_cell_angle_beta     99.557
_cell_angle_gamma    120.119

_space_group_name_H-M_alt    "P 1"
_space_group_IT_number       1

loop_
  _space_group_symop_operation_xyz
  'x, y, z'

loop_
  _atom_site_type_symbol
  _atom_site_label
  _atom_site_symmetry_multiplicity
  _atom_site_fract_x
  _atom_site_fract_y
  _atom_site_fract_z
  _atom_site_occupancy
  Ge  Ge1       1.0  0.16700  0.83300  0.00000  1.0000
  Li  Li1       1.0  0.50000  0.50000  0.00000  1.0000
  Li  Li2       1.0  0.01710  0.98300  0.50000  1.0000
  Li  Li3       1.0  0.65400  0.34600  0.50000  1.0000
  Li  Li4       1.0  0.33400  0.66600  0.50000  1.0000
  O   O1        1.0  0.93900  0.59700  0.22800  1.0000
  O   O2        1.0  0.55500  0.92100  0.23200  1.0000
  O   O3        1.0  0.23200  0.21300  0.23300  1.0000
  O   O4        1.0  0.78700  0.76800  0.76700  1.0000
  O   O5        1.0  0.07860  0.44500  0.76800  1.0000
  O   O6        1.0  0.40300  0.06080  0.77200  1.0000
  Sn  Sn1       1.0  0.83300  0.16700  0.00000  1.0000
