data_image0
_chemical_formula_structural       IrLi4O6Si
_chemical_formula_sum              "Ir1 Li4 O6 Si1"
_cell_length_a       4.99246
_cell_length_b       4.99246
_cell_length_c       4.96992
_cell_angle_alpha    99.8694
_cell_angle_beta     99.8694
_cell_angle_gamma    119.885

_space_group_name_H-M_alt    "P 1"
_space_group_IT_number       1

loop_
  _space_group_symop_operation_xyz
  'x, y, z'

loop_
  _atom_site_type_symbol
  _atom_site_label
  _atom_site_symmetry_multiplicity
  _atom_site_fract_x
  _atom_site_fract_y
  _atom_site_fract_z
  _atom_site_occupancy
  Ir  Ir1       1.0  0.16700  0.83300  0.00000  1.0000
  Li  Li1       1.0  0.50100  0.49900  0.00000  1.0000
  Li  Li2       1.0  0.99900  0.00104  0.50000  1.0000
  Li  Li3       1.0  0.66100  0.33900  0.50000  1.0000
  Li  Li4       1.0  0.33900  0.66100  0.50000  1.0000
  O   O1        1.0  0.60700  0.94600  0.21900  1.0000
  O   O2        1.0  0.20500  0.23600  0.22500  1.0000
  O   O3        1.0  0.91500  0.54300  0.22500  1.0000
  O   O4        1.0  0.45700  0.08540  0.77500  1.0000
  O   O5        1.0  0.76400  0.79500  0.77500  1.0000
  O   O6        1.0  0.05410  0.39300  0.78100  1.0000
  Si  Si1       1.0  0.83300  0.16700  0.00000  1.0000
