data_image0
_chemical_formula_structural       Li4O6TiV
_chemical_formula_sum              "Li4 O6 Ti1 V1"
_cell_length_a       5.0383
_cell_length_b       5.0383
_cell_length_c       5.03605
_cell_angle_alpha    99.298
_cell_angle_beta     99.298
_cell_angle_gamma    120.429

_space_group_name_H-M_alt    "P 1"
_space_group_IT_number       1

loop_
  _space_group_symop_operation_xyz
  'x, y, z'

loop_
  _atom_site_type_symbol
  _atom_site_label
  _atom_site_symmetry_multiplicity
  _atom_site_fract_x
  _atom_site_fract_y
  _atom_site_fract_z
  _atom_site_occupancy
  Li  Li1       1.0  0.49900  0.50100  0.00000  1.0000
  Li  Li2       1.0  0.00000  0.00000  0.50000  1.0000
  Li  Li3       1.0  0.66000  0.34000  0.50000  1.0000
  Li  Li4       1.0  0.34000  0.66000  0.50000  1.0000
  O   O1        1.0  0.93500  0.58500  0.22400  1.0000
  O   O2        1.0  0.57900  0.93100  0.23300  1.0000
  O   O3        1.0  0.22700  0.22900  0.23700  1.0000
  O   O4        1.0  0.77100  0.77300  0.76300  1.0000
  O   O5        1.0  0.06900  0.42100  0.76700  1.0000
  O   O6        1.0  0.41500  0.06520  0.77600  1.0000
  Ti  Ti1       1.0  0.83800  0.16200  0.00000  1.0000
  V   V1        1.0  0.16700  0.83300  0.00000  1.0000
