data_image0
_chemical_formula_structural       CuLi4NpO6
_chemical_formula_sum              "Cu1 Li4 Np1 O6"
_cell_length_a       5.2534
_cell_length_b       5.2534
_cell_length_c       5.11548
_cell_angle_alpha    98.2557
_cell_angle_beta     98.2556
_cell_angle_gamma    121.509

_space_group_name_H-M_alt    "P 1"
_space_group_IT_number       1

loop_
  _space_group_symop_operation_xyz
  'x, y, z'

loop_
  _atom_site_type_symbol
  _atom_site_label
  _atom_site_symmetry_multiplicity
  _atom_site_fract_x
  _atom_site_fract_y
  _atom_site_fract_z
  _atom_site_occupancy
  Cu  Cu1       1.0  0.83700  0.16300  0.00000  1.0000
  Li  Li1       1.0  0.49600  0.50400  0.00000  1.0000
  Li  Li2       1.0  0.98200  0.01800  0.50000  1.0000
  Li  Li3       1.0  0.66400  0.33600  0.50000  1.0000
  Li  Li4       1.0  0.35600  0.64400  0.50000  1.0000
  Np  Np1       1.0  0.16400  0.83600  0.00000  1.0000
  O   O1        1.0  0.59000  0.93000  0.23600  1.0000
  O   O2        1.0  0.92800  0.59700  0.24800  1.0000
  O   O3        1.0  0.25600  0.24700  0.24900  1.0000
  O   O4        1.0  0.75300  0.74400  0.75100  1.0000
  O   O5        1.0  0.40300  0.07170  0.75200  1.0000
  O   O6        1.0  0.06980  0.41000  0.76400  1.0000
