data_image0
_chemical_formula_structural       Li4O6SiV
_chemical_formula_sum              "Li4 O6 Si1 V1"
_cell_length_a       4.89808
_cell_length_b       4.89808
_cell_length_c       4.97689
_cell_angle_alpha    99.7337
_cell_angle_beta     99.7337
_cell_angle_gamma    119.831

_space_group_name_H-M_alt    "P 1"
_space_group_IT_number       1

loop_
  _space_group_symop_operation_xyz
  'x, y, z'

loop_
  _atom_site_type_symbol
  _atom_site_label
  _atom_site_symmetry_multiplicity
  _atom_site_fract_x
  _atom_site_fract_y
  _atom_site_fract_z
  _atom_site_occupancy
  Li  Li1       1.0  0.50100  0.49900  0.00000  1.0000
  Li  Li2       1.0  0.99800  0.00222  0.50000  1.0000
  Li  Li3       1.0  0.66000  0.34000  0.50000  1.0000
  Li  Li4       1.0  0.34000  0.66000  0.50000  1.0000
  O   O1        1.0  0.59500  0.94700  0.21700  1.0000
  O   O2        1.0  0.92600  0.55400  0.22200  1.0000
  O   O3        1.0  0.20200  0.22300  0.22300  1.0000
  O   O4        1.0  0.77700  0.79800  0.77700  1.0000
  O   O5        1.0  0.44600  0.07370  0.77800  1.0000
  O   O6        1.0  0.05310  0.40500  0.78300  1.0000
  Si  Si1       1.0  0.83200  0.16800  0.00000  1.0000
  V   V1        1.0  0.16800  0.83200  0.00000  1.0000
