data_image0
_chemical_formula_structural       Li4MnO6Sn
_chemical_formula_sum              "Li4 Mn1 O6 Sn1"
_cell_length_a       5.14265
_cell_length_b       5.14265
_cell_length_c       5.09917
_cell_angle_alpha    99.5617
_cell_angle_beta     99.5618
_cell_angle_gamma    120.154

_space_group_name_H-M_alt    "P 1"
_space_group_IT_number       1

loop_
  _space_group_symop_operation_xyz
  'x, y, z'

loop_
  _atom_site_type_symbol
  _atom_site_label
  _atom_site_symmetry_multiplicity
  _atom_site_fract_x
  _atom_site_fract_y
  _atom_site_fract_z
  _atom_site_occupancy
  Li  Li1       1.0  0.50100  0.49900  0.00000  1.0000
  Li  Li2       1.0  0.98100  0.01910  0.50000  1.0000
  Li  Li3       1.0  0.34600  0.65400  0.50000  1.0000
  Li  Li4       1.0  0.66600  0.33400  0.50000  1.0000
  Mn  Mn1       1.0  0.83300  0.16700  0.00000  1.0000
  O   O1        1.0  0.59600  0.93700  0.23000  1.0000
  O   O2        1.0  0.92000  0.55600  0.23400  1.0000
  O   O3        1.0  0.21700  0.23500  0.23700  1.0000
  O   O4        1.0  0.76500  0.78300  0.76300  1.0000
  O   O5        1.0  0.44400  0.07980  0.76600  1.0000
  O   O6        1.0  0.06320  0.40400  0.77000  1.0000
  Sn  Sn1       1.0  0.16600  0.83400  0.00000  1.0000
