data_image0
_chemical_formula_structural       Li4O6TeZn
_chemical_formula_sum              "Li4 O6 Te1 Zn1"
_cell_length_a       5.1676
_cell_length_b       5.1676
_cell_length_c       5.13901
_cell_angle_alpha    100.11
_cell_angle_beta     100.11
_cell_angle_gamma    119.59

_space_group_name_H-M_alt    "P 1"
_space_group_IT_number       1

loop_
  _space_group_symop_operation_xyz
  'x, y, z'

loop_
  _atom_site_type_symbol
  _atom_site_label
  _atom_site_symmetry_multiplicity
  _atom_site_fract_x
  _atom_site_fract_y
  _atom_site_fract_z
  _atom_site_occupancy
  Li  Li1       1.0  0.50000  0.50000  0.00000  1.0000
  Li  Li2       1.0  0.00000  0.00033  0.50000  1.0000
  Li  Li3       1.0  0.66300  0.33700  0.50000  1.0000
  Li  Li4       1.0  0.33800  0.66200  0.50000  1.0000
  O   O1        1.0  0.93800  0.60200  0.22800  1.0000
  O   O2        1.0  0.24100  0.21800  0.23800  1.0000
  O   O3        1.0  0.55500  0.91500  0.23900  1.0000
  O   O4        1.0  0.08530  0.44500  0.76100  1.0000
  O   O5        1.0  0.78200  0.75900  0.76200  1.0000
  O   O6        1.0  0.39800  0.06230  0.77200  1.0000
  Te  Te1       1.0  0.16700  0.83300  0.00000  1.0000
  Zn  Zn1       1.0  0.83300  0.16700  0.00000  1.0000
