data_image0
_chemical_formula_structural       IrLi4O6Te
_chemical_formula_sum              "Ir1 Li4 O6 Te1"
_cell_length_a       5.29163
_cell_length_b       5.29163
_cell_length_c       5.15129
_cell_angle_alpha    99.7859
_cell_angle_beta     99.7859
_cell_angle_gamma    119.946

_space_group_name_H-M_alt    "P 1"
_space_group_IT_number       1

loop_
  _space_group_symop_operation_xyz
  'x, y, z'

loop_
  _atom_site_type_symbol
  _atom_site_label
  _atom_site_symmetry_multiplicity
  _atom_site_fract_x
  _atom_site_fract_y
  _atom_site_fract_z
  _atom_site_occupancy
  Ir  Ir1       1.0  0.16600  0.83400  0.00000  1.0000
  Li  Li1       1.0  0.49900  0.50100  0.00000  1.0000
  Li  Li2       1.0  0.01400  0.98600  0.50000  1.0000
  Li  Li3       1.0  0.65500  0.34500  0.50000  1.0000
  Li  Li4       1.0  0.33500  0.66500  0.50000  1.0000
  O   O1        1.0  0.92400  0.58300  0.23800  1.0000
  O   O2        1.0  0.57300  0.92200  0.24000  1.0000
  O   O3        1.0  0.24200  0.23700  0.24600  1.0000
  O   O4        1.0  0.76300  0.75800  0.75400  1.0000
  O   O5        1.0  0.07790  0.42700  0.76000  1.0000
  O   O6        1.0  0.41700  0.07610  0.76200  1.0000
  Te  Te1       1.0  0.83400  0.16600  0.00000  1.0000
