data_image0
_chemical_formula_structural       Li4O6RhSi
_chemical_formula_sum              "Li4 O6 Rh1 Si1"
_cell_length_a       4.96227
_cell_length_b       4.9623
_cell_length_c       4.96627
_cell_angle_alpha    99.8264
_cell_angle_beta     99.8272
_cell_angle_gamma    119.886

_space_group_name_H-M_alt    "P 1"
_space_group_IT_number       1

loop_
  _space_group_symop_operation_xyz
  'x, y, z'

loop_
  _atom_site_type_symbol
  _atom_site_label
  _atom_site_symmetry_multiplicity
  _atom_site_fract_x
  _atom_site_fract_y
  _atom_site_fract_z
  _atom_site_occupancy
  Li  Li1       1.0  0.50000  0.50000  0.00000  1.0000
  Li  Li2       1.0  0.00000  0.00034  0.50000  1.0000
  Li  Li3       1.0  0.34000  0.66000  0.50000  1.0000
  Li  Li4       1.0  0.66100  0.33900  0.50000  1.0000
  O   O1        1.0  0.94600  0.60600  0.22000  1.0000
  O   O2        1.0  0.23500  0.20400  0.22500  1.0000
  O   O3        1.0  0.54500  0.91600  0.22500  1.0000
  O   O4        1.0  0.08360  0.45500  0.77500  1.0000
  O   O5        1.0  0.79600  0.76500  0.77500  1.0000
  O   O6        1.0  0.39400  0.05360  0.78000  1.0000
  Rh  Rh1       1.0  0.83200  0.16800  0.00000  1.0000
  Si  Si1       1.0  0.16700  0.83300  0.00000  1.0000
