data_image0
_chemical_formula_structural       Li4O6TeV
_chemical_formula_sum              "Li4 O6 Te1 V1"
_cell_length_a       5.24069
_cell_length_b       5.24069
_cell_length_c       5.13378
_cell_angle_alpha    99.881
_cell_angle_beta     99.881
_cell_angle_gamma    119.831

_space_group_name_H-M_alt    "P 1"
_space_group_IT_number       1

loop_
  _space_group_symop_operation_xyz
  'x, y, z'

loop_
  _atom_site_type_symbol
  _atom_site_label
  _atom_site_symmetry_multiplicity
  _atom_site_fract_x
  _atom_site_fract_y
  _atom_site_fract_z
  _atom_site_occupancy
  Li  Li1       1.0  0.50000  0.50000  0.00000  1.0000
  Li  Li2       1.0  0.65700  0.34300  0.50000  1.0000
  Li  Li3       1.0  0.33800  0.66200  0.50000  1.0000
  Li  Li4       1.0  0.00871  0.99100  0.50000  1.0000
  O   O1        1.0  0.92600  0.58300  0.23300  1.0000
  O   O2        1.0  0.57300  0.92700  0.23700  1.0000
  O   O3        1.0  0.23300  0.22800  0.24200  1.0000
  O   O4        1.0  0.77200  0.76700  0.75800  1.0000
  O   O5        1.0  0.07320  0.42700  0.76300  1.0000
  O   O6        1.0  0.41700  0.07370  0.76700  1.0000
  Te  Te1       1.0  0.83400  0.16600  0.00000  1.0000
  V   V1        1.0  0.16800  0.83200  0.00000  1.0000
