data_image0
_chemical_formula_structural       Li4O6SnZr
_chemical_formula_sum              "Li4 O6 Sn1 Zr1"
_cell_length_a       5.33643
_cell_length_b       5.33643
_cell_length_c       5.22408
_cell_angle_alpha    99.8964
_cell_angle_beta     99.8964
_cell_angle_gamma    119.863

_space_group_name_H-M_alt    "P 1"
_space_group_IT_number       1

loop_
  _space_group_symop_operation_xyz
  'x, y, z'

loop_
  _atom_site_type_symbol
  _atom_site_label
  _atom_site_symmetry_multiplicity
  _atom_site_fract_x
  _atom_site_fract_y
  _atom_site_fract_z
  _atom_site_occupancy
  Li  Li1       1.0  0.50000  0.50000  0.00000  1.0000
  Li  Li2       1.0  0.99200  0.00816  0.50000  1.0000
  Li  Li3       1.0  0.65800  0.34200  0.50000  1.0000
  Li  Li4       1.0  0.34800  0.65200  0.50000  1.0000
  O   O1        1.0  0.58500  0.92800  0.23800  1.0000
  O   O2        1.0  0.92500  0.57600  0.23900  1.0000
  O   O3        1.0  0.23100  0.23500  0.24300  1.0000
  O   O4        1.0  0.76500  0.76900  0.75700  1.0000
  O   O5        1.0  0.42400  0.07530  0.76100  1.0000
  O   O6        1.0  0.07180  0.41500  0.76200  1.0000
  Sn  Sn1       1.0  0.83300  0.16700  0.00000  1.0000
  Zr  Zr1       1.0  0.16800  0.83200  0.00000  1.0000
