data_image0
_chemical_formula_structural       GaHfLi4O6
_chemical_formula_sum              "Ga1 Hf1 Li4 O6"
_cell_length_a       5.17894
_cell_length_b       5.17894
_cell_length_c       5.10428
_cell_angle_alpha    99.5814
_cell_angle_beta     99.5816
_cell_angle_gamma    120.106

_space_group_name_H-M_alt    "P 1"
_space_group_IT_number       1

loop_
  _space_group_symop_operation_xyz
  'x, y, z'

loop_
  _atom_site_type_symbol
  _atom_site_label
  _atom_site_symmetry_multiplicity
  _atom_site_fract_x
  _atom_site_fract_y
  _atom_site_fract_z
  _atom_site_occupancy
  Ga  Ga1       1.0  0.16600  0.83400  0.00000  1.0000
  Hf  Hf1       1.0  0.83400  0.16600  0.00000  1.0000
  Li  Li1       1.0  0.49900  0.50100  0.00000  1.0000
  Li  Li2       1.0  0.01410  0.98600  0.50000  1.0000
  Li  Li3       1.0  0.34000  0.66000  0.50000  1.0000
  Li  Li4       1.0  0.65100  0.34900  0.50000  1.0000
  O   O1        1.0  0.93000  0.58800  0.23600  1.0000
  O   O2        1.0  0.56900  0.92200  0.23900  1.0000
  O   O3        1.0  0.23700  0.22900  0.24000  1.0000
  O   O4        1.0  0.77100  0.76300  0.76000  1.0000
  O   O5        1.0  0.07820  0.43100  0.76100  1.0000
  O   O6        1.0  0.41200  0.07040  0.76400  1.0000
