data_image0
_chemical_formula_structural       Li4MnO6Si
_chemical_formula_sum              "Li4 Mn1 O6 Si1"
_cell_length_a       4.84766
_cell_length_b       4.84766
_cell_length_c       4.9598
_cell_angle_alpha    99.5657
_cell_angle_beta     99.5657
_cell_angle_gamma    119.95

_space_group_name_H-M_alt    "P 1"
_space_group_IT_number       1

loop_
  _space_group_symop_operation_xyz
  'x, y, z'

loop_
  _atom_site_type_symbol
  _atom_site_label
  _atom_site_symmetry_multiplicity
  _atom_site_fract_x
  _atom_site_fract_y
  _atom_site_fract_z
  _atom_site_occupancy
  Li  Li1       1.0  0.50000  0.50000  0.00000  1.0000
  Li  Li2       1.0  0.99900  0.00055  0.50000  1.0000
  Li  Li3       1.0  0.66000  0.34000  0.50000  1.0000
  Li  Li4       1.0  0.34100  0.65900  0.50000  1.0000
  Mn  Mn1       1.0  0.83300  0.16700  0.00000  1.0000
  O   O1        1.0  0.94400  0.59100  0.21800  1.0000
  O   O2        1.0  0.55800  0.92700  0.22100  1.0000
  O   O3        1.0  0.22200  0.20500  0.22200  1.0000
  O   O4        1.0  0.79500  0.77800  0.77800  1.0000
  O   O5        1.0  0.07260  0.44200  0.77900  1.0000
  O   O6        1.0  0.40900  0.05600  0.78200  1.0000
  Si  Si1       1.0  0.16700  0.83300  0.00000  1.0000
