data_image0
_chemical_formula_structural       AsLi4MnO6
_chemical_formula_sum              "As1 Li4 Mn1 O6"
_cell_length_a       5.05436
_cell_length_b       5.05423
_cell_length_c       4.99215
_cell_angle_alpha    98.9283
_cell_angle_beta     98.9266
_cell_angle_gamma    121.221

_space_group_name_H-M_alt    "P 1"
_space_group_IT_number       1

loop_
  _space_group_symop_operation_xyz
  'x, y, z'

loop_
  _atom_site_type_symbol
  _atom_site_label
  _atom_site_symmetry_multiplicity
  _atom_site_fract_x
  _atom_site_fract_y
  _atom_site_fract_z
  _atom_site_occupancy
  As  As1       1.0  0.16200  0.83800  0.00000  1.0000
  Li  Li1       1.0  0.49900  0.50100  0.00000  1.0000
  Li  Li2       1.0  0.33800  0.66200  0.50000  1.0000
  Li  Li3       1.0  0.00829  0.99200  0.50000  1.0000
  Li  Li4       1.0  0.65900  0.34100  0.50000  1.0000
  Mn  Mn1       1.0  0.83100  0.16900  0.00000  1.0000
  O   O1        1.0  0.56100  0.92800  0.22100  1.0000
  O   O2        1.0  0.23900  0.21200  0.23100  1.0000
  O   O3        1.0  0.94700  0.60500  0.23100  1.0000
  O   O4        1.0  0.39500  0.05350  0.76900  1.0000
  O   O5        1.0  0.78800  0.76100  0.76900  1.0000
  O   O6        1.0  0.07220  0.43900  0.77900  1.0000
