data_image0
_chemical_formula_structural       Li4O6SiTe
_chemical_formula_sum              "Li4 O6 Si1 Te1"
_cell_length_a       5.24912
_cell_length_b       5.24912
_cell_length_c       5.06143
_cell_angle_alpha    99.0985
_cell_angle_beta     99.0985
_cell_angle_gamma    121.106

_space_group_name_H-M_alt    "P 1"
_space_group_IT_number       1

loop_
  _space_group_symop_operation_xyz
  'x, y, z'

loop_
  _atom_site_type_symbol
  _atom_site_label
  _atom_site_symmetry_multiplicity
  _atom_site_fract_x
  _atom_site_fract_y
  _atom_site_fract_z
  _atom_site_occupancy
  Li  Li1       1.0  0.50000  0.50000  0.00000  1.0000
  Li  Li2       1.0  0.03030  0.97000  0.50000  1.0000
  Li  Li3       1.0  0.65200  0.34800  0.50000  1.0000
  Li  Li4       1.0  0.32000  0.68000  0.50000  1.0000
  O   O1        1.0  0.94500  0.61400  0.21700  1.0000
  O   O2        1.0  0.51800  0.90400  0.22700  1.0000
  O   O3        1.0  0.24100  0.18900  0.22800  1.0000
  O   O4        1.0  0.81100  0.75900  0.77200  1.0000
  O   O5        1.0  0.09570  0.48200  0.77300  1.0000
  O   O6        1.0  0.38600  0.05550  0.78300  1.0000
  Si  Si1       1.0  0.16600  0.83400  0.00000  1.0000
  Te  Te1       1.0  0.83500  0.16500  0.00000  1.0000
