data_image0
_chemical_formula_structural       Li4O6RhSn
_chemical_formula_sum              "Li4 O6 Rh1 Sn1"
_cell_length_a       5.22089
_cell_length_b       5.22089
_cell_length_c       5.11984
_cell_angle_alpha    99.6651
_cell_angle_beta     99.6651
_cell_angle_gamma    120.062

_space_group_name_H-M_alt    "P 1"
_space_group_IT_number       1

loop_
  _space_group_symop_operation_xyz
  'x, y, z'

loop_
  _atom_site_type_symbol
  _atom_site_label
  _atom_site_symmetry_multiplicity
  _atom_site_fract_x
  _atom_site_fract_y
  _atom_site_fract_z
  _atom_site_occupancy
  Li  Li1       1.0  0.50100  0.49900  0.00000  1.0000
  Li  Li2       1.0  0.98300  0.01700  0.50000  1.0000
  Li  Li3       1.0  0.66500  0.33500  0.50000  1.0000
  Li  Li4       1.0  0.34700  0.65300  0.50000  1.0000
  O   O1        1.0  0.58600  0.92800  0.23700  1.0000
  O   O2        1.0  0.92200  0.56900  0.23800  1.0000
  O   O3        1.0  0.23000  0.23600  0.24100  1.0000
  O   O4        1.0  0.76400  0.77000  0.75900  1.0000
  O   O5        1.0  0.43100  0.07840  0.76200  1.0000
  O   O6        1.0  0.07250  0.41400  0.76300  1.0000
  Rh  Rh1       1.0  0.83300  0.16700  0.00000  1.0000
  Sn  Sn1       1.0  0.16700  0.83300  0.00000  1.0000
