data_image0
_chemical_formula_structural       Li4O6SiTc
_chemical_formula_sum              "Li4 O6 Si1 Tc1"
_cell_length_a       4.99695
_cell_length_b       4.99695
_cell_length_c       4.9928
_cell_angle_alpha    99.7471
_cell_angle_beta     99.7471
_cell_angle_gamma    120.017

_space_group_name_H-M_alt    "P 1"
_space_group_IT_number       1

loop_
  _space_group_symop_operation_xyz
  'x, y, z'

loop_
  _atom_site_type_symbol
  _atom_site_label
  _atom_site_symmetry_multiplicity
  _atom_site_fract_x
  _atom_site_fract_y
  _atom_site_fract_z
  _atom_site_occupancy
  Li  Li1       1.0  0.49900  0.50100  0.00000  1.0000
  Li  Li2       1.0  0.65800  0.34200  0.50000  1.0000
  Li  Li3       1.0  0.33700  0.66300  0.50000  1.0000
  Li  Li4       1.0  0.00857  0.99100  0.50000  1.0000
  O   O1        1.0  0.94600  0.60700  0.21800  1.0000
  O   O2        1.0  0.54400  0.91700  0.22500  1.0000
  O   O3        1.0  0.23400  0.20300  0.22500  1.0000
  O   O4        1.0  0.79700  0.76600  0.77500  1.0000
  O   O5        1.0  0.08290  0.45600  0.77500  1.0000
  O   O6        1.0  0.39300  0.05370  0.78200  1.0000
  Si  Si1       1.0  0.16700  0.83300  0.00000  1.0000
  Tc  Tc1       1.0  0.83300  0.16700  0.00000  1.0000
