data_image0
_chemical_formula_structural       AlAsLi4O6
_chemical_formula_sum              "Al1 As1 Li4 O6"
_cell_length_a       4.90539
_cell_length_b       4.90539
_cell_length_c       5.00877
_cell_angle_alpha    99.586
_cell_angle_beta     99.586
_cell_angle_gamma    119.925

_space_group_name_H-M_alt    "P 1"
_space_group_IT_number       1

loop_
  _space_group_symop_operation_xyz
  'x, y, z'

loop_
  _atom_site_type_symbol
  _atom_site_label
  _atom_site_symmetry_multiplicity
  _atom_site_fract_x
  _atom_site_fract_y
  _atom_site_fract_z
  _atom_site_occupancy
  Al  Al1       1.0  0.83300  0.16700  0.00000  1.0000
  As  As1       1.0  0.16700  0.83300  0.00000  1.0000
  Li  Li1       1.0  0.50000  0.50000  0.00000  1.0000
  Li  Li2       1.0  0.00342  0.99700  0.50000  1.0000
  Li  Li3       1.0  0.33900  0.66100  0.50000  1.0000
  Li  Li4       1.0  0.65800  0.34200  0.50000  1.0000
  O   O1        1.0  0.93900  0.58300  0.22000  1.0000
  O   O2        1.0  0.56800  0.93200  0.22300  1.0000
  O   O3        1.0  0.21800  0.21100  0.22400  1.0000
  O   O4        1.0  0.78900  0.78200  0.77600  1.0000
  O   O5        1.0  0.06810  0.43200  0.77700  1.0000
  O   O6        1.0  0.41700  0.06090  0.78000  1.0000
