data_image0
_chemical_formula_structural       Li4O6SnTe
_chemical_formula_sum              "Li4 O6 Sn1 Te1"
_cell_length_a       5.41514
_cell_length_b       5.41514
_cell_length_c       5.27549
_cell_angle_alpha    99.9328
_cell_angle_beta     99.9328
_cell_angle_gamma    120.031

_space_group_name_H-M_alt    "P 1"
_space_group_IT_number       1

loop_
  _space_group_symop_operation_xyz
  'x, y, z'

loop_
  _atom_site_type_symbol
  _atom_site_label
  _atom_site_symmetry_multiplicity
  _atom_site_fract_x
  _atom_site_fract_y
  _atom_site_fract_z
  _atom_site_occupancy
  Li  Li1       1.0  0.49800  0.50200  0.00000  1.0000
  Li  Li2       1.0  0.00533  0.99500  0.50000  1.0000
  Li  Li3       1.0  0.34400  0.65600  0.50000  1.0000
  Li  Li4       1.0  0.65400  0.34600  0.50000  1.0000
  O   O1        1.0  0.92700  0.58900  0.23600  1.0000
  O   O2        1.0  0.56600  0.91800  0.24200  1.0000
  O   O3        1.0  0.24800  0.23000  0.25000  1.0000
  O   O4        1.0  0.77000  0.75200  0.75000  1.0000
  O   O5        1.0  0.08170  0.43400  0.75800  1.0000
  O   O6        1.0  0.41100  0.07320  0.76400  1.0000
  Sn  Sn1       1.0  0.16600  0.83400  0.00000  1.0000
  Te  Te1       1.0  0.83100  0.16900  0.00000  1.0000
