data_image0
_chemical_formula_structural       GeHfLi4O6
_chemical_formula_sum              "Ge1 Hf1 Li4 O6"
_cell_length_a       5.1637
_cell_length_b       5.1637
_cell_length_c       5.1107
_cell_angle_alpha    99.5061
_cell_angle_beta     99.5061
_cell_angle_gamma    120.168

_space_group_name_H-M_alt    "P 1"
_space_group_IT_number       1

loop_
  _space_group_symop_operation_xyz
  'x, y, z'

loop_
  _atom_site_type_symbol
  _atom_site_label
  _atom_site_symmetry_multiplicity
  _atom_site_fract_x
  _atom_site_fract_y
  _atom_site_fract_z
  _atom_site_occupancy
  Ge  Ge1       1.0  0.16700  0.83300  0.00000  1.0000
  Hf  Hf1       1.0  0.83400  0.16600  0.00000  1.0000
  Li  Li1       1.0  0.49900  0.50100  0.00000  1.0000
  Li  Li2       1.0  0.65100  0.34900  0.50000  1.0000
  Li  Li3       1.0  0.33400  0.66600  0.50000  1.0000
  Li  Li4       1.0  0.02070  0.97900  0.50000  1.0000
  O   O1        1.0  0.93800  0.59600  0.22700  1.0000
  O   O2        1.0  0.55400  0.92100  0.23200  1.0000
  O   O3        1.0  0.23200  0.21400  0.23400  1.0000
  O   O4        1.0  0.78600  0.76800  0.76600  1.0000
  O   O5        1.0  0.07860  0.44600  0.76800  1.0000
  O   O6        1.0  0.40400  0.06180  0.77300  1.0000
