data_image0
_chemical_formula_structural       BiLi4O6Pr
_chemical_formula_sum              "Bi1 Li4 O6 Pr1"
_cell_length_a       5.71449
_cell_length_b       5.71449
_cell_length_c       5.29411
_cell_angle_alpha    98.6675
_cell_angle_beta     98.6675
_cell_angle_gamma    121.56

_space_group_name_H-M_alt    "P 1"
_space_group_IT_number       1

loop_
  _space_group_symop_operation_xyz
  'x, y, z'

loop_
  _atom_site_type_symbol
  _atom_site_label
  _atom_site_symmetry_multiplicity
  _atom_site_fract_x
  _atom_site_fract_y
  _atom_site_fract_z
  _atom_site_occupancy
  Bi  Bi1       1.0  0.16700  0.83300  0.00000  1.0000
  Li  Li1       1.0  0.50200  0.49800  0.00000  1.0000
  Li  Li2       1.0  0.03640  0.96400  0.50000  1.0000
  Li  Li3       1.0  0.63000  0.37000  0.50000  1.0000
  Li  Li4       1.0  0.33200  0.66800  0.50000  1.0000
  O   O1        1.0  0.91700  0.60000  0.24200  1.0000
  O   O2        1.0  0.53300  0.88700  0.24800  1.0000
  O   O3        1.0  0.25200  0.21900  0.24900  1.0000
  O   O4        1.0  0.78100  0.74800  0.75100  1.0000
  O   O5        1.0  0.11300  0.46700  0.75200  1.0000
  O   O6        1.0  0.40000  0.08320  0.75800  1.0000
  Pr  Pr1       1.0  0.83600  0.16400  0.00000  1.0000
