data_image0
_chemical_formula_structural       Li4MoO6Si
_chemical_formula_sum              "Li4 Mo1 O6 Si1"
_cell_length_a       5.02083
_cell_length_b       5.02083
_cell_length_c       4.99992
_cell_angle_alpha    99.8898
_cell_angle_beta     99.8898
_cell_angle_gamma    119.762

_space_group_name_H-M_alt    "P 1"
_space_group_IT_number       1

loop_
  _space_group_symop_operation_xyz
  'x, y, z'

loop_
  _atom_site_type_symbol
  _atom_site_label
  _atom_site_symmetry_multiplicity
  _atom_site_fract_x
  _atom_site_fract_y
  _atom_site_fract_z
  _atom_site_occupancy
  Li  Li1       1.0  0.49800  0.50200  0.00000  1.0000
  Li  Li2       1.0  0.00945  0.99100  0.50000  1.0000
  Li  Li3       1.0  0.65900  0.34100  0.50000  1.0000
  Li  Li4       1.0  0.33700  0.66300  0.50000  1.0000
  Mo  Mo1       1.0  0.83200  0.16800  0.00000  1.0000
  O   O1        1.0  0.94800  0.60800  0.21800  1.0000
  O   O2        1.0  0.54200  0.91600  0.22500  1.0000
  O   O3        1.0  0.23400  0.20300  0.22600  1.0000
  O   O4        1.0  0.79700  0.76600  0.77400  1.0000
  O   O5        1.0  0.08430  0.45800  0.77500  1.0000
  O   O6        1.0  0.39200  0.05210  0.78200  1.0000
  Si  Si1       1.0  0.16700  0.83300  0.00000  1.0000
