data_image0
_chemical_formula_structural       AlLi4O6Si
_chemical_formula_sum              "Al1 Li4 O6 Si1"
_cell_length_a       4.83366
_cell_length_b       4.83368
_cell_length_c       4.91351
_cell_angle_alpha    99.6329
_cell_angle_beta     99.6332
_cell_angle_gamma    120.019

_space_group_name_H-M_alt    "P 1"
_space_group_IT_number       1

loop_
  _space_group_symop_operation_xyz
  'x, y, z'

loop_
  _atom_site_type_symbol
  _atom_site_label
  _atom_site_symmetry_multiplicity
  _atom_site_fract_x
  _atom_site_fract_y
  _atom_site_fract_z
  _atom_site_occupancy
  Al  Al1       1.0  0.16600  0.83400  0.00000  1.0000
  Li  Li1       1.0  0.50000  0.50000  0.00000  1.0000
  Li  Li2       1.0  0.99900  0.00147  0.50000  1.0000
  Li  Li3       1.0  0.65700  0.34300  0.50000  1.0000
  Li  Li4       1.0  0.34400  0.65600  0.50000  1.0000
  O   O1        1.0  0.58900  0.94100  0.21700  1.0000
  O   O2        1.0  0.92600  0.55800  0.22100  1.0000
  O   O3        1.0  0.20700  0.22200  0.22200  1.0000
  O   O4        1.0  0.77800  0.79300  0.77800  1.0000
  O   O5        1.0  0.44200  0.07410  0.77900  1.0000
  O   O6        1.0  0.05910  0.41100  0.78300  1.0000
  Si  Si1       1.0  0.83400  0.16600  0.00000  1.0000
