data_image0
_chemical_formula_structural       Li4O6SnTc
_chemical_formula_sum              "Li4 O6 Sn1 Tc1"
_cell_length_a       5.24071
_cell_length_b       5.24071
_cell_length_c       5.16204
_cell_angle_alpha    99.819
_cell_angle_beta     99.819
_cell_angle_gamma    119.891

_space_group_name_H-M_alt    "P 1"
_space_group_IT_number       1

loop_
  _space_group_symop_operation_xyz
  'x, y, z'

loop_
  _atom_site_type_symbol
  _atom_site_label
  _atom_site_symmetry_multiplicity
  _atom_site_fract_x
  _atom_site_fract_y
  _atom_site_fract_z
  _atom_site_occupancy
  Li  Li1       1.0  0.50000  0.50000  0.00000  1.0000
  Li  Li2       1.0  0.99200  0.00843  0.50000  1.0000
  Li  Li3       1.0  0.66100  0.33900  0.50000  1.0000
  Li  Li4       1.0  0.34500  0.65500  0.50000  1.0000
  O   O1        1.0  0.58600  0.92900  0.23700  1.0000
  O   O2        1.0  0.92400  0.57300  0.23700  1.0000
  O   O3        1.0  0.23000  0.23500  0.24100  1.0000
  O   O4        1.0  0.76500  0.77000  0.75900  1.0000
  O   O5        1.0  0.42700  0.07580  0.76300  1.0000
  O   O6        1.0  0.07070  0.41400  0.76300  1.0000
  Sn  Sn1       1.0  0.16700  0.83300  0.00000  1.0000
  Tc  Tc1       1.0  0.83300  0.16700  0.00000  1.0000
