data_image0
_chemical_formula_structural       AlFeLi4O6
_chemical_formula_sum              "Al1 Fe1 Li4 O6"
_cell_length_a       4.882
_cell_length_b       4.882
_cell_length_c       4.97012
_cell_angle_alpha    99.5614
_cell_angle_beta     99.5614
_cell_angle_gamma    119.963

_space_group_name_H-M_alt    "P 1"
_space_group_IT_number       1

loop_
  _space_group_symop_operation_xyz
  'x, y, z'

loop_
  _atom_site_type_symbol
  _atom_site_label
  _atom_site_symmetry_multiplicity
  _atom_site_fract_x
  _atom_site_fract_y
  _atom_site_fract_z
  _atom_site_occupancy
  Al  Al1       1.0  0.16700  0.83300  0.00000  1.0000
  Fe  Fe1       1.0  0.83300  0.16700  0.00000  1.0000
  Li  Li1       1.0  0.50000  0.50000  0.00000  1.0000
  Li  Li2       1.0  0.98900  0.01090  0.50000  1.0000
  Li  Li3       1.0  0.66300  0.33700  0.50000  1.0000
  Li  Li4       1.0  0.34400  0.65600  0.50000  1.0000
  O   O1        1.0  0.57900  0.93500  0.22300  1.0000
  O   O2        1.0  0.93300  0.57100  0.22600  1.0000
  O   O3        1.0  0.21600  0.21800  0.22800  1.0000
  O   O4        1.0  0.78200  0.78400  0.77200  1.0000
  O   O5        1.0  0.42900  0.06680  0.77400  1.0000
  O   O6        1.0  0.06480  0.42100  0.77700  1.0000
