data_image0
_chemical_formula_structural       Li4NiO6Si
_chemical_formula_sum              "Li4 Ni1 O6 Si1"
_cell_length_a       4.78131
_cell_length_b       4.78131
_cell_length_c       4.92868
_cell_angle_alpha    99.4893
_cell_angle_beta     99.4893
_cell_angle_gamma    119.996

_space_group_name_H-M_alt    "P 1"
_space_group_IT_number       1

loop_
  _space_group_symop_operation_xyz
  'x, y, z'

loop_
  _atom_site_type_symbol
  _atom_site_label
  _atom_site_symmetry_multiplicity
  _atom_site_fract_x
  _atom_site_fract_y
  _atom_site_fract_z
  _atom_site_occupancy
  Li  Li1       1.0  0.50000  0.50000  0.00000  1.0000
  Li  Li2       1.0  0.99200  0.00779  0.50000  1.0000
  Li  Li3       1.0  0.66200  0.33800  0.50000  1.0000
  Li  Li4       1.0  0.34300  0.65700  0.50000  1.0000
  Ni  Ni1       1.0  0.83300  0.16700  0.00000  1.0000
  O   O1        1.0  0.94300  0.58500  0.21700  1.0000
  O   O2        1.0  0.56200  0.93000  0.21800  1.0000
  O   O3        1.0  0.21800  0.20500  0.22100  1.0000
  O   O4        1.0  0.79500  0.78200  0.77900  1.0000
  O   O5        1.0  0.06980  0.43800  0.78200  1.0000
  O   O6        1.0  0.41500  0.05720  0.78300  1.0000
  Si  Si1       1.0  0.16700  0.83300  0.00000  1.0000
