data_image0
_chemical_formula_structural       GeLi4O6Ru
_chemical_formula_sum              "Ge1 Li4 O6 Ru1"
_cell_length_a       5.06832
_cell_length_b       5.06832
_cell_length_c       5.03647
_cell_angle_alpha    99.8174
_cell_angle_beta     99.8174
_cell_angle_gamma    119.904

_space_group_name_H-M_alt    "P 1"
_space_group_IT_number       1

loop_
  _space_group_symop_operation_xyz
  'x, y, z'

loop_
  _atom_site_type_symbol
  _atom_site_label
  _atom_site_symmetry_multiplicity
  _atom_site_fract_x
  _atom_site_fract_y
  _atom_site_fract_z
  _atom_site_occupancy
  Ge  Ge1       1.0  0.16700  0.83300  0.00000  1.0000
  Li  Li1       1.0  0.50000  0.50000  0.00000  1.0000
  Li  Li2       1.0  0.99900  0.00050  0.50000  1.0000
  Li  Li3       1.0  0.66100  0.33900  0.50000  1.0000
  Li  Li4       1.0  0.34000  0.66000  0.50000  1.0000
  O   O1        1.0  0.93600  0.59000  0.22800  1.0000
  O   O2        1.0  0.56500  0.92300  0.23000  1.0000
  O   O3        1.0  0.23200  0.21900  0.23200  1.0000
  O   O4        1.0  0.78100  0.76800  0.76800  1.0000
  O   O5        1.0  0.07670  0.43500  0.77000  1.0000
  O   O6        1.0  0.41000  0.06440  0.77200  1.0000
  Ru  Ru1       1.0  0.83300  0.16700  0.00000  1.0000
