data_image0
_chemical_formula_structural       AsCuLi4O6
_chemical_formula_sum              "As1 Cu1 Li4 O6"
_cell_length_a       5.02545
_cell_length_b       5.02542
_cell_length_c       4.96415
_cell_angle_alpha    98.6584
_cell_angle_beta     98.6579
_cell_angle_gamma    121.607

_space_group_name_H-M_alt    "P 1"
_space_group_IT_number       1

loop_
  _space_group_symop_operation_xyz
  'x, y, z'

loop_
  _atom_site_type_symbol
  _atom_site_label
  _atom_site_symmetry_multiplicity
  _atom_site_fract_x
  _atom_site_fract_y
  _atom_site_fract_z
  _atom_site_occupancy
  As  As1       1.0  0.15900  0.84100  0.00000  1.0000
  Cu  Cu1       1.0  0.82800  0.17200  0.00000  1.0000
  Li  Li1       1.0  0.49900  0.50100  0.00000  1.0000
  Li  Li2       1.0  0.99900  0.00099  0.50000  1.0000
  Li  Li3       1.0  0.34300  0.65700  0.50000  1.0000
  Li  Li4       1.0  0.66200  0.33800  0.50000  1.0000
  O   O1        1.0  0.56800  0.93400  0.21400  1.0000
  O   O2        1.0  0.24400  0.21500  0.23200  1.0000
  O   O3        1.0  0.95400  0.60800  0.23700  1.0000
  O   O4        1.0  0.39200  0.04630  0.76300  1.0000
  O   O5        1.0  0.78500  0.75600  0.76800  1.0000
  O   O6        1.0  0.06620  0.43200  0.78600  1.0000
