data_image0
_chemical_formula_structural       Li4O6SiZr
_chemical_formula_sum              "Li4 O6 Si1 Zr1"
_cell_length_a       5.13741
_cell_length_b       5.13741
_cell_length_c       5.03203
_cell_angle_alpha    99.1765
_cell_angle_beta     99.1765
_cell_angle_gamma    120.572

_space_group_name_H-M_alt    "P 1"
_space_group_IT_number       1

loop_
  _space_group_symop_operation_xyz
  'x, y, z'

loop_
  _atom_site_type_symbol
  _atom_site_label
  _atom_site_symmetry_multiplicity
  _atom_site_fract_x
  _atom_site_fract_y
  _atom_site_fract_z
  _atom_site_occupancy
  Li  Li1       1.0  0.50000  0.50000  0.00000  1.0000
  Li  Li2       1.0  0.67200  0.32800  0.50000  1.0000
  Li  Li3       1.0  0.35000  0.65000  0.50000  1.0000
  Li  Li4       1.0  0.97100  0.02870  0.50000  1.0000
  O   O1        1.0  0.60900  0.94600  0.21800  1.0000
  O   O2        1.0  0.91300  0.53000  0.22600  1.0000
  O   O3        1.0  0.19700  0.23300  0.22700  1.0000
  O   O4        1.0  0.76700  0.80300  0.77300  1.0000
  O   O5        1.0  0.47000  0.08730  0.77400  1.0000
  O   O6        1.0  0.05380  0.39100  0.78200  1.0000
  Si  Si1       1.0  0.83300  0.16700  0.00000  1.0000
  Zr  Zr1       1.0  0.16500  0.83500  0.00000  1.0000
