data_image0
_chemical_formula_structural       GaLi4O6Si
_chemical_formula_sum              "Ga1 Li4 O6 Si1"
_cell_length_a       4.91531
_cell_length_b       4.91531
_cell_length_c       4.97661
_cell_angle_alpha    99.7521
_cell_angle_beta     99.7521
_cell_angle_gamma    119.987

_space_group_name_H-M_alt    "P 1"
_space_group_IT_number       1

loop_
  _space_group_symop_operation_xyz
  'x, y, z'

loop_
  _atom_site_type_symbol
  _atom_site_label
  _atom_site_symmetry_multiplicity
  _atom_site_fract_x
  _atom_site_fract_y
  _atom_site_fract_z
  _atom_site_occupancy
  Ga  Ga1       1.0  0.16600  0.83400  0.00000  1.0000
  Li  Li1       1.0  0.50000  0.50000  0.00000  1.0000
  Li  Li2       1.0  0.65900  0.34100  0.50000  1.0000
  Li  Li3       1.0  0.34100  0.65900  0.50000  1.0000
  Li  Li4       1.0  0.99800  0.00174  0.50000  1.0000
  O   O1        1.0  0.60200  0.94600  0.21800  1.0000
  O   O2        1.0  0.92000  0.54900  0.22400  1.0000
  O   O3        1.0  0.20400  0.22900  0.22500  1.0000
  O   O4        1.0  0.77100  0.79600  0.77500  1.0000
  O   O5        1.0  0.45100  0.07990  0.77600  1.0000
  O   O6        1.0  0.05350  0.39800  0.78200  1.0000
  Si  Si1       1.0  0.83300  0.16700  0.00000  1.0000
