data_image0
_chemical_formula_structural       HfLi4O6Si
_chemical_formula_sum              "Hf1 Li4 O6 Si1"
_cell_length_a       5.08867
_cell_length_b       5.08868
_cell_length_c       5.02981
_cell_angle_alpha    99.2541
_cell_angle_beta     99.2541
_cell_angle_gamma    120.408

_space_group_name_H-M_alt    "P 1"
_space_group_IT_number       1

loop_
  _space_group_symop_operation_xyz
  'x, y, z'

loop_
  _atom_site_type_symbol
  _atom_site_label
  _atom_site_symmetry_multiplicity
  _atom_site_fract_x
  _atom_site_fract_y
  _atom_site_fract_z
  _atom_site_occupancy
  Hf  Hf1       1.0  0.83400  0.16600  0.00000  1.0000
  Li  Li1       1.0  0.49900  0.50100  0.00000  1.0000
  Li  Li2       1.0  0.02610  0.97400  0.50000  1.0000
  Li  Li3       1.0  0.33000  0.67000  0.50000  1.0000
  Li  Li4       1.0  0.65100  0.34900  0.50000  1.0000
  O   O1        1.0  0.94600  0.60600  0.21800  1.0000
  O   O2        1.0  0.53500  0.91600  0.22500  1.0000
  O   O3        1.0  0.23100  0.19800  0.22600  1.0000
  O   O4        1.0  0.80200  0.76900  0.77400  1.0000
  O   O5        1.0  0.08420  0.46500  0.77500  1.0000
  O   O6        1.0  0.39400  0.05410  0.78200  1.0000
  Si  Si1       1.0  0.16700  0.83300  0.00000  1.0000
