data_image0
_chemical_formula_structural       FeLi4O6Si
_chemical_formula_sum              "Fe1 Li4 O6 Si1"
_cell_length_a       4.89939
_cell_length_b       4.89939
_cell_length_c       4.94091
_cell_angle_alpha    98.9975
_cell_angle_beta     98.9975
_cell_angle_gamma    120.988

_space_group_name_H-M_alt    "P 1"
_space_group_IT_number       1

loop_
  _space_group_symop_operation_xyz
  'x, y, z'

loop_
  _atom_site_type_symbol
  _atom_site_label
  _atom_site_symmetry_multiplicity
  _atom_site_fract_x
  _atom_site_fract_y
  _atom_site_fract_z
  _atom_site_occupancy
  Fe  Fe1       1.0  0.83100  0.16900  0.00000  1.0000
  Li  Li1       1.0  0.50100  0.49900  0.00000  1.0000
  Li  Li2       1.0  0.00383  0.99600  0.50000  1.0000
  Li  Li3       1.0  0.65800  0.34200  0.50000  1.0000
  Li  Li4       1.0  0.34300  0.65700  0.50000  1.0000
  O   O1        1.0  0.56000  0.93200  0.21600  1.0000
  O   O2        1.0  0.95200  0.60100  0.22300  1.0000
  O   O3        1.0  0.22900  0.20700  0.22500  1.0000
  O   O4        1.0  0.79400  0.77100  0.77500  1.0000
  O   O5        1.0  0.39900  0.04830  0.77700  1.0000
  O   O6        1.0  0.06820  0.44000  0.78400  1.0000
  Si  Si1       1.0  0.16200  0.83800  0.00000  1.0000
