data_image0
_chemical_formula_structural       Li4NiO6Te
_chemical_formula_sum              "Li4 Ni1 O6 Te1"
_cell_length_a       5.11626
_cell_length_b       5.11626
_cell_length_c       5.10455
_cell_angle_alpha    99.8666
_cell_angle_beta     99.8666
_cell_angle_gamma    119.795

_space_group_name_H-M_alt    "P 1"
_space_group_IT_number       1

loop_
  _space_group_symop_operation_xyz
  'x, y, z'

loop_
  _atom_site_type_symbol
  _atom_site_label
  _atom_site_symmetry_multiplicity
  _atom_site_fract_x
  _atom_site_fract_y
  _atom_site_fract_z
  _atom_site_occupancy
  Li  Li1       1.0  0.50000  0.50000  0.00000  1.0000
  Li  Li2       1.0  0.66300  0.33700  0.50000  1.0000
  Li  Li3       1.0  0.34000  0.66000  0.50000  1.0000
  Li  Li4       1.0  0.99700  0.00319  0.50000  1.0000
  Ni  Ni1       1.0  0.83300  0.16700  0.00000  1.0000
  O   O1        1.0  0.93600  0.59600  0.22900  1.0000
  O   O2        1.0  0.56100  0.91900  0.23600  1.0000
  O   O3        1.0  0.23800  0.22000  0.23600  1.0000
  O   O4        1.0  0.78000  0.76200  0.76400  1.0000
  O   O5        1.0  0.08110  0.43900  0.76400  1.0000
  O   O6        1.0  0.40400  0.06410  0.77100  1.0000
  Te  Te1       1.0  0.16700  0.83300  0.00000  1.0000
