data_image0
_chemical_formula_structural       Li4O6RuSn
_chemical_formula_sum              "Li4 O6 Ru1 Sn1"
_cell_length_a       5.23549
_cell_length_b       5.23559
_cell_length_c       5.12392
_cell_angle_alpha    99.771
_cell_angle_beta     99.7731
_cell_angle_gamma    119.951

_space_group_name_H-M_alt    "P 1"
_space_group_IT_number       1

loop_
  _space_group_symop_operation_xyz
  'x, y, z'

loop_
  _atom_site_type_symbol
  _atom_site_label
  _atom_site_symmetry_multiplicity
  _atom_site_fract_x
  _atom_site_fract_y
  _atom_site_fract_z
  _atom_site_occupancy
  Li  Li1       1.0  0.50000  0.50000  0.00000  1.0000
  Li  Li2       1.0  0.98500  0.01450  0.50000  1.0000
  Li  Li3       1.0  0.34600  0.65400  0.50000  1.0000
  Li  Li4       1.0  0.66400  0.33600  0.50000  1.0000
  O   O1        1.0  0.58700  0.92800  0.23600  1.0000
  O   O2        1.0  0.92200  0.56800  0.23700  1.0000
  O   O3        1.0  0.22900  0.23600  0.24000  1.0000
  O   O4        1.0  0.76400  0.77100  0.76000  1.0000
  O   O5        1.0  0.43200  0.07850  0.76300  1.0000
  O   O6        1.0  0.07160  0.41300  0.76400  1.0000
  Ru  Ru1       1.0  0.83300  0.16700  0.00000  1.0000
  Sn  Sn1       1.0  0.16700  0.83300  0.00000  1.0000
