data_image0
_chemical_formula_structural       AlLi4O6Sn
_chemical_formula_sum              "Al1 Li4 O6 Sn1"
_cell_length_a       5.13183
_cell_length_b       5.13183
_cell_length_c       5.04896
_cell_angle_alpha    99.6806
_cell_angle_beta     99.6806
_cell_angle_gamma    120.163

_space_group_name_H-M_alt    "P 1"
_space_group_IT_number       1

loop_
  _space_group_symop_operation_xyz
  'x, y, z'

loop_
  _atom_site_type_symbol
  _atom_site_label
  _atom_site_symmetry_multiplicity
  _atom_site_fract_x
  _atom_site_fract_y
  _atom_site_fract_z
  _atom_site_occupancy
  Al  Al1       1.0  0.16600  0.83400  0.00000  1.0000
  Li  Li1       1.0  0.50000  0.50000  0.00000  1.0000
  Li  Li2       1.0  0.65200  0.34800  0.50000  1.0000
  Li  Li3       1.0  0.34100  0.65900  0.50000  1.0000
  Li  Li4       1.0  0.01170  0.98800  0.50000  1.0000
  O   O1        1.0  0.93700  0.59800  0.23000  1.0000
  O   O2        1.0  0.55500  0.91800  0.23400  1.0000
  O   O3        1.0  0.23600  0.21800  0.23400  1.0000
  O   O4        1.0  0.78200  0.76400  0.76600  1.0000
  O   O5        1.0  0.08210  0.44500  0.76600  1.0000
  O   O6        1.0  0.40200  0.06290  0.77000  1.0000
  Sn  Sn1       1.0  0.83400  0.16600  0.00000  1.0000
