data_image0
_chemical_formula_structural       AlHfLi4O6
_chemical_formula_sum              "Al1 Hf1 Li4 O6"
_cell_length_a       5.11923
_cell_length_b       5.11921
_cell_length_c       5.06131
_cell_angle_alpha    99.5793
_cell_angle_beta     99.5788
_cell_angle_gamma    120.131

_space_group_name_H-M_alt    "P 1"
_space_group_IT_number       1

loop_
  _space_group_symop_operation_xyz
  'x, y, z'

loop_
  _atom_site_type_symbol
  _atom_site_label
  _atom_site_symmetry_multiplicity
  _atom_site_fract_x
  _atom_site_fract_y
  _atom_site_fract_z
  _atom_site_occupancy
  Al  Al1       1.0  0.16600  0.83400  0.00000  1.0000
  Hf  Hf1       1.0  0.83400  0.16600  0.00000  1.0000
  Li  Li1       1.0  0.49900  0.50100  0.00000  1.0000
  Li  Li2       1.0  0.01390  0.98600  0.50000  1.0000
  Li  Li3       1.0  0.34000  0.66000  0.50000  1.0000
  Li  Li4       1.0  0.65200  0.34800  0.50000  1.0000
  O   O1        1.0  0.93700  0.59700  0.22900  1.0000
  O   O2        1.0  0.55600  0.91900  0.23300  1.0000
  O   O3        1.0  0.23600  0.21800  0.23400  1.0000
  O   O4        1.0  0.78200  0.76400  0.76600  1.0000
  O   O5        1.0  0.08060  0.44400  0.76700  1.0000
  O   O6        1.0  0.40300  0.06270  0.77100  1.0000
