data_image0
_chemical_formula_structural       Li4MoO6Sn
_chemical_formula_sum              "Li4 Mo1 O6 Sn1"
_cell_length_a       5.27146
_cell_length_b       5.27146
_cell_length_c       5.16171
_cell_angle_alpha    99.9719
_cell_angle_beta     99.9719
_cell_angle_gamma    119.776

_space_group_name_H-M_alt    "P 1"
_space_group_IT_number       1

loop_
  _space_group_symop_operation_xyz
  'x, y, z'

loop_
  _atom_site_type_symbol
  _atom_site_label
  _atom_site_symmetry_multiplicity
  _atom_site_fract_x
  _atom_site_fract_y
  _atom_site_fract_z
  _atom_site_occupancy
  Li  Li1       1.0  0.50000  0.50000  0.00000  1.0000
  Li  Li2       1.0  0.99400  0.00577  0.50000  1.0000
  Li  Li3       1.0  0.65900  0.34100  0.50000  1.0000
  Li  Li4       1.0  0.34500  0.65500  0.50000  1.0000
  Mo  Mo1       1.0  0.83200  0.16800  0.00000  1.0000
  O   O1        1.0  0.58500  0.92800  0.23600  1.0000
  O   O2        1.0  0.92500  0.57500  0.23700  1.0000
  O   O3        1.0  0.23100  0.23500  0.24100  1.0000
  O   O4        1.0  0.76500  0.76900  0.75900  1.0000
  O   O5        1.0  0.42500  0.07530  0.76300  1.0000
  O   O6        1.0  0.07160  0.41500  0.76400  1.0000
  Sn  Sn1       1.0  0.16700  0.83300  0.00000  1.0000
