data_image0
_chemical_formula_structural       FeGeLi4O6
_chemical_formula_sum              "Fe1 Ge1 Li4 O6"
_cell_length_a       5.00058
_cell_length_b       5.00052
_cell_length_c       5.00465
_cell_angle_alpha    99.0118
_cell_angle_beta     99.0107
_cell_angle_gamma    120.978

_space_group_name_H-M_alt    "P 1"
_space_group_IT_number       1

loop_
  _space_group_symop_operation_xyz
  'x, y, z'

loop_
  _atom_site_type_symbol
  _atom_site_label
  _atom_site_symmetry_multiplicity
  _atom_site_fract_x
  _atom_site_fract_y
  _atom_site_fract_z
  _atom_site_occupancy
  Fe  Fe1       1.0  0.83100  0.16900  0.00000  1.0000
  Ge  Ge1       1.0  0.16100  0.83900  0.00000  1.0000
  Li  Li1       1.0  0.50100  0.49900  0.00000  1.0000
  Li  Li2       1.0  0.00037  0.00000  0.50000  1.0000
  Li  Li3       1.0  0.34300  0.65700  0.50000  1.0000
  Li  Li4       1.0  0.65800  0.34200  0.50000  1.0000
  O   O1        1.0  0.57900  0.93800  0.22100  1.0000
  O   O2        1.0  0.94200  0.58800  0.23200  1.0000
  O   O3        1.0  0.23000  0.22100  0.23300  1.0000
  O   O4        1.0  0.77900  0.77000  0.76700  1.0000
  O   O5        1.0  0.41200  0.05770  0.76800  1.0000
  O   O6        1.0  0.06240  0.42100  0.77900  1.0000
