data_image0
_chemical_formula_structural       Li4O6PaTi
_chemical_formula_sum              "Li4 O6 Pa1 Ti1"
_cell_length_a       5.38528
_cell_length_b       5.38528
_cell_length_c       5.18606
_cell_angle_alpha    99.114
_cell_angle_beta     99.114
_cell_angle_gamma    120.229

_space_group_name_H-M_alt    "P 1"
_space_group_IT_number       1

loop_
  _space_group_symop_operation_xyz
  'x, y, z'

loop_
  _atom_site_type_symbol
  _atom_site_label
  _atom_site_symmetry_multiplicity
  _atom_site_fract_x
  _atom_site_fract_y
  _atom_site_fract_z
  _atom_site_occupancy
  Li  Li1       1.0  0.50200  0.49800  0.00000  1.0000
  Li  Li2       1.0  0.97100  0.02900  0.50000  1.0000
  Li  Li3       1.0  0.65700  0.34300  0.50000  1.0000
  Li  Li4       1.0  0.35700  0.64300  0.50000  1.0000
  O   O1        1.0  0.60200  0.93100  0.23000  1.0000
  O   O2        1.0  0.91200  0.55600  0.23700  1.0000
  O   O3        1.0  0.23600  0.25300  0.25500  1.0000
  O   O4        1.0  0.74700  0.76400  0.74500  1.0000
  O   O5        1.0  0.44400  0.08770  0.76300  1.0000
  O   O6        1.0  0.06870  0.39800  0.77000  1.0000
  Pa  Pa1       1.0  0.16300  0.83700  0.00000  1.0000
  Ti  Ti1       1.0  0.84000  0.16000  0.00000  1.0000
