data_image0
_chemical_formula_structural       Li4O6PbSn
_chemical_formula_sum              "Li4 O6 Pb1 Sn1"
_cell_length_a       5.39802
_cell_length_b       5.39802
_cell_length_c       5.28349
_cell_angle_alpha    99.9779
_cell_angle_beta     99.9779
_cell_angle_gamma    119.806

_space_group_name_H-M_alt    "P 1"
_space_group_IT_number       1

loop_
  _space_group_symop_operation_xyz
  'x, y, z'

loop_
  _atom_site_type_symbol
  _atom_site_label
  _atom_site_symmetry_multiplicity
  _atom_site_fract_x
  _atom_site_fract_y
  _atom_site_fract_z
  _atom_site_occupancy
  Li  Li1       1.0  0.50000  0.50000  0.00000  1.0000
  Li  Li2       1.0  0.65800  0.34200  0.50000  1.0000
  Li  Li3       1.0  0.34000  0.66000  0.50000  1.0000
  Li  Li4       1.0  0.00335  0.99700  0.50000  1.0000
  O   O1        1.0  0.93100  0.59600  0.24000  1.0000
  O   O2        1.0  0.56900  0.91900  0.24400  1.0000
  O   O3        1.0  0.24400  0.23100  0.24600  1.0000
  O   O4        1.0  0.76900  0.75600  0.75400  1.0000
  O   O5        1.0  0.08070  0.43100  0.75600  1.0000
  O   O6        1.0  0.40400  0.06860  0.76000  1.0000
  Pb  Pb1       1.0  0.83300  0.16700  0.00000  1.0000
  Sn  Sn1       1.0  0.16700  0.83300  0.00000  1.0000
