data_image0
_chemical_formula_structural       CrLi4O6Sn
_chemical_formula_sum              "Cr1 Li4 O6 Sn1"
_cell_length_a       5.15342
_cell_length_b       5.15342
_cell_length_c       5.11771
_cell_angle_alpha    99.6465
_cell_angle_beta     99.6465
_cell_angle_gamma    119.76

_space_group_name_H-M_alt    "P 1"
_space_group_IT_number       1

loop_
  _space_group_symop_operation_xyz
  'x, y, z'

loop_
  _atom_site_type_symbol
  _atom_site_label
  _atom_site_symmetry_multiplicity
  _atom_site_fract_x
  _atom_site_fract_y
  _atom_site_fract_z
  _atom_site_occupancy
  Cr  Cr1       1.0  0.17100  0.82900  0.00000  1.0000
  Li  Li1       1.0  0.50400  0.49600  0.00000  1.0000
  Li  Li2       1.0  0.02440  0.97600  0.50000  1.0000
  Li  Li3       1.0  0.64900  0.35100  0.50000  1.0000
  Li  Li4       1.0  0.33200  0.66800  0.50000  1.0000
  O   O1        1.0  0.55000  0.92100  0.23300  1.0000
  O   O2        1.0  0.23000  0.21600  0.23400  1.0000
  O   O3        1.0  0.93200  0.58900  0.23400  1.0000
  O   O4        1.0  0.41100  0.06840  0.76600  1.0000
  O   O5        1.0  0.78400  0.77000  0.76600  1.0000
  O   O6        1.0  0.07890  0.45000  0.76700  1.0000
  Sn  Sn1       1.0  0.83200  0.16800  0.00000  1.0000
