data_image0
_chemical_formula_structural       HfLi4O6Sn
_chemical_formula_sum              "Hf1 Li4 O6 Sn1"
_cell_length_a       5.30301
_cell_length_b       5.30301
_cell_length_c       5.21297
_cell_angle_alpha    99.9201
_cell_angle_beta     99.9201
_cell_angle_gamma    119.81

_space_group_name_H-M_alt    "P 1"
_space_group_IT_number       1

loop_
  _space_group_symop_operation_xyz
  'x, y, z'

loop_
  _atom_site_type_symbol
  _atom_site_label
  _atom_site_symmetry_multiplicity
  _atom_site_fract_x
  _atom_site_fract_y
  _atom_site_fract_z
  _atom_site_occupancy
  Hf  Hf1       1.0  0.16700  0.83300  0.00000  1.0000
  Li  Li1       1.0  0.50000  0.50000  0.00000  1.0000
  Li  Li2       1.0  0.99500  0.00509  0.50000  1.0000
  Li  Li3       1.0  0.65800  0.34200  0.50000  1.0000
  Li  Li4       1.0  0.34700  0.65300  0.50000  1.0000
  O   O1        1.0  0.58000  0.92800  0.23700  1.0000
  O   O2        1.0  0.92800  0.58100  0.23800  1.0000
  O   O3        1.0  0.23100  0.23100  0.24200  1.0000
  O   O4        1.0  0.76900  0.76900  0.75800  1.0000
  O   O5        1.0  0.41900  0.07200  0.76200  1.0000
  O   O6        1.0  0.07240  0.42000  0.76300  1.0000
  Sn  Sn1       1.0  0.83300  0.16700  0.00000  1.0000
