data_image0
_chemical_formula_structural       GaLi4NiO6
_chemical_formula_sum              "Ga1 Li4 Ni1 O6"
_cell_length_a       4.9535
_cell_length_b       4.9535
_cell_length_c       4.95993
_cell_angle_alpha    99.7618
_cell_angle_beta     99.7618
_cell_angle_gamma    120.209

_space_group_name_H-M_alt    "P 1"
_space_group_IT_number       1

loop_
  _space_group_symop_operation_xyz
  'x, y, z'

loop_
  _atom_site_type_symbol
  _atom_site_label
  _atom_site_symmetry_multiplicity
  _atom_site_fract_x
  _atom_site_fract_y
  _atom_site_fract_z
  _atom_site_occupancy
  Ga  Ga1       1.0  0.16500  0.83500  0.00000  1.0000
  Li  Li1       1.0  0.50100  0.49900  0.00000  1.0000
  Li  Li2       1.0  0.99300  0.00698  0.50000  1.0000
  Li  Li3       1.0  0.66200  0.33800  0.50000  1.0000
  Li  Li4       1.0  0.34300  0.65700  0.50000  1.0000
  Ni  Ni1       1.0  0.83400  0.16600  0.00000  1.0000
  O   O1        1.0  0.59200  0.93800  0.22400  1.0000
  O   O2        1.0  0.92300  0.55900  0.23000  1.0000
  O   O3        1.0  0.21600  0.23100  0.23200  1.0000
  O   O4        1.0  0.76900  0.78400  0.76800  1.0000
  O   O5        1.0  0.44100  0.07720  0.77000  1.0000
  O   O6        1.0  0.06230  0.40800  0.77600  1.0000
