data_image0
_chemical_formula_structural       AsHoLi4O6
_chemical_formula_sum              "As1 Ho1 Li4 O6"
_cell_length_a       5.3598
_cell_length_b       5.3598
_cell_length_c       5.08543
_cell_angle_alpha    98.9597
_cell_angle_beta     98.9597
_cell_angle_gamma    121.282

_space_group_name_H-M_alt    "P 1"
_space_group_IT_number       1

loop_
  _space_group_symop_operation_xyz
  'x, y, z'

loop_
  _atom_site_type_symbol
  _atom_site_label
  _atom_site_symmetry_multiplicity
  _atom_site_fract_x
  _atom_site_fract_y
  _atom_site_fract_z
  _atom_site_occupancy
  As  As1       1.0  0.16800  0.83200  0.00000  1.0000
  Ho  Ho1       1.0  0.83800  0.16200  0.00000  1.0000
  Li  Li1       1.0  0.50300  0.49700  0.00000  1.0000
  Li  Li2       1.0  0.03480  0.96500  0.50000  1.0000
  Li  Li3       1.0  0.64600  0.35400  0.50000  1.0000
  Li  Li4       1.0  0.31200  0.68800  0.50000  1.0000
  O   O1        1.0  0.94000  0.61100  0.22300  1.0000
  O   O2        1.0  0.24400  0.19300  0.23200  1.0000
  O   O3        1.0  0.52000  0.90000  0.23300  1.0000
  O   O4        1.0  0.09970  0.48000  0.76700  1.0000
  O   O5        1.0  0.80700  0.75600  0.76800  1.0000
  O   O6        1.0  0.38900  0.05960  0.77700  1.0000
