data_image0
_chemical_formula_structural       Li4O6OsTe
_chemical_formula_sum              "Li4 O6 Os1 Te1"
_cell_length_a       5.35143
_cell_length_b       5.35143
_cell_length_c       5.06052
_cell_angle_alpha    100.039
_cell_angle_beta     100.039
_cell_angle_gamma    120.049

_space_group_name_H-M_alt    "P 1"
_space_group_IT_number       1

loop_
  _space_group_symop_operation_xyz
  'x, y, z'

loop_
  _atom_site_type_symbol
  _atom_site_label
  _atom_site_symmetry_multiplicity
  _atom_site_fract_x
  _atom_site_fract_y
  _atom_site_fract_z
  _atom_site_occupancy
  Li  Li1       1.0  0.49900  0.50100  0.00000  1.0000
  Li  Li2       1.0  0.01560  0.98400  0.50000  1.0000
  Li  Li3       1.0  0.65500  0.34500  0.50000  1.0000
  Li  Li4       1.0  0.33300  0.66700  0.50000  1.0000
  O   O1        1.0  0.57600  0.92200  0.23400  1.0000
  O   O2        1.0  0.92200  0.57800  0.23400  1.0000
  O   O3        1.0  0.23400  0.23400  0.23900  1.0000
  O   O4        1.0  0.76600  0.76600  0.76100  1.0000
  O   O5        1.0  0.42200  0.07760  0.76600  1.0000
  O   O6        1.0  0.07800  0.42400  0.76600  1.0000
  Os  Os1       1.0  0.16700  0.83300  0.00000  1.0000
  Te  Te1       1.0  0.83300  0.16700  0.00000  1.0000
