data_image0
_chemical_formula_structural       FeLi4O6Sn
_chemical_formula_sum              "Fe1 Li4 O6 Sn1"
_cell_length_a       5.17769
_cell_length_b       5.17769
_cell_length_c       5.08336
_cell_angle_alpha    99.1392
_cell_angle_beta     99.1392
_cell_angle_gamma    120.904

_space_group_name_H-M_alt    "P 1"
_space_group_IT_number       1

loop_
  _space_group_symop_operation_xyz
  'x, y, z'

loop_
  _atom_site_type_symbol
  _atom_site_label
  _atom_site_symmetry_multiplicity
  _atom_site_fract_x
  _atom_site_fract_y
  _atom_site_fract_z
  _atom_site_occupancy
  Fe  Fe1       1.0  0.83200  0.16800  0.00000  1.0000
  Li  Li1       1.0  0.50100  0.49900  0.00000  1.0000
  Li  Li2       1.0  0.98900  0.01050  0.50000  1.0000
  Li  Li3       1.0  0.65900  0.34100  0.50000  1.0000
  Li  Li4       1.0  0.34700  0.65300  0.50000  1.0000
  O   O1        1.0  0.60100  0.94300  0.22300  1.0000
  O   O2        1.0  0.22900  0.23800  0.24200  1.0000
  O   O3        1.0  0.92800  0.56700  0.24200  1.0000
  O   O4        1.0  0.43300  0.07190  0.75800  1.0000
  O   O5        1.0  0.76200  0.77100  0.75800  1.0000
  O   O6        1.0  0.05740  0.39900  0.77700  1.0000
  Sn  Sn1       1.0  0.16200  0.83800  0.00000  1.0000
