data_image0
_chemical_formula_structural       AsLi4O6Ti
_chemical_formula_sum              "As1 Li4 O6 Ti1"
_cell_length_a       5.08118
_cell_length_b       5.08118
_cell_length_c       5.05702
_cell_angle_alpha    99.8177
_cell_angle_beta     99.8175
_cell_angle_gamma    119.894

_space_group_name_H-M_alt    "P 1"
_space_group_IT_number       1

loop_
  _space_group_symop_operation_xyz
  'x, y, z'

loop_
  _atom_site_type_symbol
  _atom_site_label
  _atom_site_symmetry_multiplicity
  _atom_site_fract_x
  _atom_site_fract_y
  _atom_site_fract_z
  _atom_site_occupancy
  As  As1       1.0  0.16800  0.83200  0.00000  1.0000
  Li  Li1       1.0  0.50000  0.50000  0.00000  1.0000
  Li  Li2       1.0  0.00306  0.99700  0.50000  1.0000
  Li  Li3       1.0  0.33800  0.66200  0.50000  1.0000
  Li  Li4       1.0  0.66000  0.34000  0.50000  1.0000
  O   O1        1.0  0.93600  0.58600  0.22700  1.0000
  O   O2        1.0  0.56900  0.92800  0.23000  1.0000
  O   O3        1.0  0.22700  0.21900  0.23300  1.0000
  O   O4        1.0  0.78100  0.77300  0.76700  1.0000
  O   O5        1.0  0.07220  0.43100  0.77000  1.0000
  O   O6        1.0  0.41400  0.06390  0.77300  1.0000
  Ti  Ti1       1.0  0.83300  0.16700  0.00000  1.0000
