data_image0
_chemical_formula_structural       AlLi4O6Ti
_chemical_formula_sum              "Al1 Li4 O6 Ti1"
_cell_length_a       4.9715
_cell_length_b       4.9715
_cell_length_c       5.00144
_cell_angle_alpha    99.6844
_cell_angle_beta     99.6844
_cell_angle_gamma    119.955

_space_group_name_H-M_alt    "P 1"
_space_group_IT_number       1

loop_
  _space_group_symop_operation_xyz
  'x, y, z'

loop_
  _atom_site_type_symbol
  _atom_site_label
  _atom_site_symmetry_multiplicity
  _atom_site_fract_x
  _atom_site_fract_y
  _atom_site_fract_z
  _atom_site_occupancy
  Al  Al1       1.0  0.16600  0.83400  0.00000  1.0000
  Li  Li1       1.0  0.50000  0.50000  0.00000  1.0000
  Li  Li2       1.0  0.00017  0.00000  0.50000  1.0000
  Li  Li3       1.0  0.65900  0.34100  0.50000  1.0000
  Li  Li4       1.0  0.34200  0.65800  0.50000  1.0000
  O   O1        1.0  0.93400  0.58500  0.22800  1.0000
  O   O2        1.0  0.56900  0.92700  0.23000  1.0000
  O   O3        1.0  0.22800  0.22000  0.23200  1.0000
  O   O4        1.0  0.78000  0.77200  0.76800  1.0000
  O   O5        1.0  0.07320  0.43100  0.77000  1.0000
  O   O6        1.0  0.41500  0.06570  0.77200  1.0000
  Ti  Ti1       1.0  0.83300  0.16700  0.00000  1.0000
