data_image0
_chemical_formula_structural       GaLi4O6Te
_chemical_formula_sum              "Ga1 Li4 O6 Te1"
_cell_length_a       5.19871
_cell_length_b       5.19871
_cell_length_c       5.17656
_cell_angle_alpha    99.7465
_cell_angle_beta     99.7465
_cell_angle_gamma    119.933

_space_group_name_H-M_alt    "P 1"
_space_group_IT_number       1

loop_
  _space_group_symop_operation_xyz
  'x, y, z'

loop_
  _atom_site_type_symbol
  _atom_site_label
  _atom_site_symmetry_multiplicity
  _atom_site_fract_x
  _atom_site_fract_y
  _atom_site_fract_z
  _atom_site_occupancy
  Ga  Ga1       1.0  0.16700  0.83300  0.00000  1.0000
  Li  Li1       1.0  0.49900  0.50100  0.00000  1.0000
  Li  Li2       1.0  0.00532  0.99500  0.50000  1.0000
  Li  Li3       1.0  0.65800  0.34200  0.50000  1.0000
  Li  Li4       1.0  0.33800  0.66200  0.50000  1.0000
  O   O1        1.0  0.93300  0.58600  0.23400  1.0000
  O   O2        1.0  0.57200  0.92700  0.23600  1.0000
  O   O3        1.0  0.23300  0.22600  0.23900  1.0000
  O   O4        1.0  0.77400  0.76700  0.76100  1.0000
  O   O5        1.0  0.07350  0.42800  0.76400  1.0000
  O   O6        1.0  0.41400  0.06710  0.76600  1.0000
  Te  Te1       1.0  0.83300  0.16700  0.00000  1.0000
