data_image0
_chemical_formula_structural       GeLi4O6V
_chemical_formula_sum              "Ge1 Li4 O6 V1"
_cell_length_a       4.99901
_cell_length_b       4.99901
_cell_length_c       5.04509
_cell_angle_alpha    99.7528
_cell_angle_beta     99.7528
_cell_angle_gamma    119.834

_space_group_name_H-M_alt    "P 1"
_space_group_IT_number       1

loop_
  _space_group_symop_operation_xyz
  'x, y, z'

loop_
  _atom_site_type_symbol
  _atom_site_label
  _atom_site_symmetry_multiplicity
  _atom_site_fract_x
  _atom_site_fract_y
  _atom_site_fract_z
  _atom_site_occupancy
  Ge  Ge1       1.0  0.16700  0.83300  0.00000  1.0000
  Li  Li1       1.0  0.50000  0.50000  0.00000  1.0000
  Li  Li2       1.0  0.00000  0.00022  0.50000  1.0000
  Li  Li3       1.0  0.66000  0.34000  0.50000  1.0000
  Li  Li4       1.0  0.34000  0.66000  0.50000  1.0000
  O   O1        1.0  0.93800  0.58200  0.22500  1.0000
  O   O2        1.0  0.57100  0.93200  0.22700  1.0000
  O   O3        1.0  0.22100  0.21500  0.23000  1.0000
  O   O4        1.0  0.78500  0.77900  0.77000  1.0000
  O   O5        1.0  0.06780  0.42900  0.77300  1.0000
  O   O6        1.0  0.41800  0.06190  0.77500  1.0000
  V   V1        1.0  0.83200  0.16800  0.00000  1.0000
