data_image0
_chemical_formula_structural       CrLi4O6Te
_chemical_formula_sum              "Cr1 Li4 O6 Te1"
_cell_length_a       5.20769
_cell_length_b       5.20769
_cell_length_c       5.13063
_cell_angle_alpha    99.7363
_cell_angle_beta     99.7363
_cell_angle_gamma    119.99

_space_group_name_H-M_alt    "P 1"
_space_group_IT_number       1

loop_
  _space_group_symop_operation_xyz
  'x, y, z'

loop_
  _atom_site_type_symbol
  _atom_site_label
  _atom_site_symmetry_multiplicity
  _atom_site_fract_x
  _atom_site_fract_y
  _atom_site_fract_z
  _atom_site_occupancy
  Cr  Cr1       1.0  0.16700  0.83300  0.00000  1.0000
  Li  Li1       1.0  0.49900  0.50100  0.00000  1.0000
  Li  Li2       1.0  0.00999  0.99000  0.50000  1.0000
  Li  Li3       1.0  0.65600  0.34400  0.50000  1.0000
  Li  Li4       1.0  0.33700  0.66300  0.50000  1.0000
  O   O1        1.0  0.93000  0.58600  0.23400  1.0000
  O   O2        1.0  0.57000  0.92400  0.23500  1.0000
  O   O3        1.0  0.23400  0.22700  0.23900  1.0000
  O   O4        1.0  0.77300  0.76600  0.76100  1.0000
  O   O5        1.0  0.07630  0.43000  0.76500  1.0000
  O   O6        1.0  0.41400  0.07000  0.76600  1.0000
  Te  Te1       1.0  0.83300  0.16700  0.00000  1.0000
