data_image0
_chemical_formula_structural       AsLi4O6Tl
_chemical_formula_sum              "As1 Li4 O6 Tl1"
_cell_length_a       5.34726
_cell_length_b       5.34726
_cell_length_c       5.12147
_cell_angle_alpha    99.5747
_cell_angle_beta     99.5747
_cell_angle_gamma    120.76

_space_group_name_H-M_alt    "P 1"
_space_group_IT_number       1

loop_
  _space_group_symop_operation_xyz
  'x, y, z'

loop_
  _atom_site_type_symbol
  _atom_site_label
  _atom_site_symmetry_multiplicity
  _atom_site_fract_x
  _atom_site_fract_y
  _atom_site_fract_z
  _atom_site_occupancy
  As  As1       1.0  0.16800  0.83200  0.00000  1.0000
  Li  Li1       1.0  0.50100  0.49900  0.00000  1.0000
  Li  Li2       1.0  0.02540  0.97500  0.50000  1.0000
  Li  Li3       1.0  0.65700  0.34300  0.50000  1.0000
  Li  Li4       1.0  0.31400  0.68600  0.50000  1.0000
  O   O1        1.0  0.94300  0.62000  0.22200  1.0000
  O   O2        1.0  0.24900  0.19500  0.23600  1.0000
  O   O3        1.0  0.52100  0.90000  0.23600  1.0000
  O   O4        1.0  0.09980  0.47900  0.76400  1.0000
  O   O5        1.0  0.80500  0.75100  0.76400  1.0000
  O   O6        1.0  0.38100  0.05680  0.77800  1.0000
  Tl  Tl1       1.0  0.83700  0.16300  0.00000  1.0000
