data_image0
_chemical_formula_structural       BiInLi4O6
_chemical_formula_sum              "Bi1 In1 Li4 O6"
_cell_length_a       5.40439
_cell_length_b       5.40439
_cell_length_c       5.26389
_cell_angle_alpha    99.9223
_cell_angle_beta     99.9223
_cell_angle_gamma    119.85

_space_group_name_H-M_alt    "P 1"
_space_group_IT_number       1

loop_
  _space_group_symop_operation_xyz
  'x, y, z'

loop_
  _atom_site_type_symbol
  _atom_site_label
  _atom_site_symmetry_multiplicity
  _atom_site_fract_x
  _atom_site_fract_y
  _atom_site_fract_z
  _atom_site_occupancy
  Bi  Bi1       1.0  0.16700  0.83300  0.00000  1.0000
  In  In1       1.0  0.83300  0.16700  0.00000  1.0000
  Li  Li1       1.0  0.50000  0.50000  0.00000  1.0000
  Li  Li2       1.0  0.00036  0.00000  0.50000  1.0000
  Li  Li3       1.0  0.65700  0.34300  0.50000  1.0000
  Li  Li4       1.0  0.34400  0.65600  0.50000  1.0000
  O   O1        1.0  0.92600  0.59200  0.24200  1.0000
  O   O2        1.0  0.57400  0.91900  0.24700  1.0000
  O   O3        1.0  0.24400  0.23600  0.24800  1.0000
  O   O4        1.0  0.76400  0.75600  0.75200  1.0000
  O   O5        1.0  0.08110  0.42600  0.75300  1.0000
  O   O6        1.0  0.40800  0.07350  0.75800  1.0000
