data_image0
_chemical_formula_structural       GaGeLi4O6
_chemical_formula_sum              "Ga1 Ge1 Li4 O6"
_cell_length_a       5.01282
_cell_length_b       5.01282
_cell_length_c       5.0315
_cell_angle_alpha    99.7391
_cell_angle_beta     99.7391
_cell_angle_gamma    120.007

_space_group_name_H-M_alt    "P 1"
_space_group_IT_number       1

loop_
  _space_group_symop_operation_xyz
  'x, y, z'

loop_
  _atom_site_type_symbol
  _atom_site_label
  _atom_site_symmetry_multiplicity
  _atom_site_fract_x
  _atom_site_fract_y
  _atom_site_fract_z
  _atom_site_occupancy
  Ga  Ga1       1.0  0.83400  0.16600  0.00000  1.0000
  Ge  Ge1       1.0  0.16700  0.83300  0.00000  1.0000
  Li  Li1       1.0  0.50000  0.50000  0.00000  1.0000
  Li  Li2       1.0  0.65900  0.34100  0.50000  1.0000
  Li  Li3       1.0  0.34200  0.65800  0.50000  1.0000
  Li  Li4       1.0  0.99900  0.00052  0.50000  1.0000
  O   O1        1.0  0.93600  0.58800  0.22800  1.0000
  O   O2        1.0  0.56600  0.92500  0.23100  1.0000
  O   O3        1.0  0.22900  0.21900  0.23300  1.0000
  O   O4        1.0  0.78100  0.77100  0.76700  1.0000
  O   O5        1.0  0.07480  0.43400  0.76900  1.0000
  O   O6        1.0  0.41200  0.06400  0.77200  1.0000
