data_image0
_chemical_formula_structural       CrGeLi4O6
_chemical_formula_sum              "Cr1 Ge1 Li4 O6"
_cell_length_a       4.95627
_cell_length_b       4.95627
_cell_length_c       5.04848
_cell_angle_alpha    99.9437
_cell_angle_beta     99.9437
_cell_angle_gamma    119.308

_space_group_name_H-M_alt    "P 1"
_space_group_IT_number       1

loop_
  _space_group_symop_operation_xyz
  'x, y, z'

loop_
  _atom_site_type_symbol
  _atom_site_label
  _atom_site_symmetry_multiplicity
  _atom_site_fract_x
  _atom_site_fract_y
  _atom_site_fract_z
  _atom_site_occupancy
  Cr  Cr1       1.0  0.82800  0.17200  0.00000  1.0000
  Ge  Ge1       1.0  0.16800  0.83200  0.00000  1.0000
  Li  Li1       1.0  0.49700  0.50300  0.00000  1.0000
  Li  Li2       1.0  0.99400  0.00594  0.50000  1.0000
  Li  Li3       1.0  0.66200  0.33800  0.50000  1.0000
  Li  Li4       1.0  0.34500  0.65500  0.50000  1.0000
  O   O1        1.0  0.93700  0.57600  0.22700  1.0000
  O   O2        1.0  0.21900  0.21500  0.22800  1.0000
  O   O3        1.0  0.57000  0.92900  0.22800  1.0000
  O   O4        1.0  0.07100  0.43000  0.77200  1.0000
  O   O5        1.0  0.78500  0.78100  0.77200  1.0000
  O   O6        1.0  0.42400  0.06260  0.77300  1.0000
