data_image0
_chemical_formula_structural       Li4O6PtSi
_chemical_formula_sum              "Li4 O6 Pt1 Si1"
_cell_length_a       4.99628
_cell_length_b       4.99629
_cell_length_c       4.99031
_cell_angle_alpha    99.7585
_cell_angle_beta     99.7588
_cell_angle_gamma    120.021

_space_group_name_H-M_alt    "P 1"
_space_group_IT_number       1

loop_
  _space_group_symop_operation_xyz
  'x, y, z'

loop_
  _atom_site_type_symbol
  _atom_site_label
  _atom_site_symmetry_multiplicity
  _atom_site_fract_x
  _atom_site_fract_y
  _atom_site_fract_z
  _atom_site_occupancy
  Li  Li1       1.0  0.50000  0.50000  0.00000  1.0000
  Li  Li2       1.0  0.00150  0.99900  0.50000  1.0000
  Li  Li3       1.0  0.33800  0.66200  0.50000  1.0000
  Li  Li4       1.0  0.66100  0.33900  0.50000  1.0000
  O   O1        1.0  0.94700  0.60900  0.21900  1.0000
  O   O2        1.0  0.54300  0.91500  0.22500  1.0000
  O   O3        1.0  0.23700  0.20400  0.22600  1.0000
  O   O4        1.0  0.79600  0.76300  0.77400  1.0000
  O   O5        1.0  0.08520  0.45700  0.77500  1.0000
  O   O6        1.0  0.39100  0.05350  0.78100  1.0000
  Pt  Pt1       1.0  0.83300  0.16700  0.00000  1.0000
  Si  Si1       1.0  0.16700  0.83300  0.00000  1.0000
