data_image0
_chemical_formula_structural       IrLi4O6Sn
_chemical_formula_sum              "Ir1 Li4 O6 Sn1"
_cell_length_a       5.25199
_cell_length_b       5.25199
_cell_length_c       5.12129
_cell_angle_alpha    99.7925
_cell_angle_beta     99.7925
_cell_angle_gamma    119.966

_space_group_name_H-M_alt    "P 1"
_space_group_IT_number       1

loop_
  _space_group_symop_operation_xyz
  'x, y, z'

loop_
  _atom_site_type_symbol
  _atom_site_label
  _atom_site_symmetry_multiplicity
  _atom_site_fract_x
  _atom_site_fract_y
  _atom_site_fract_z
  _atom_site_occupancy
  Ir  Ir1       1.0  0.16700  0.83300  0.00000  1.0000
  Li  Li1       1.0  0.49900  0.50100  0.00000  1.0000
  Li  Li2       1.0  0.01520  0.98500  0.50000  1.0000
  Li  Li3       1.0  0.65400  0.34600  0.50000  1.0000
  Li  Li4       1.0  0.33600  0.66400  0.50000  1.0000
  O   O1        1.0  0.92700  0.58600  0.23700  1.0000
  O   O2        1.0  0.57000  0.92200  0.23700  1.0000
  O   O3        1.0  0.23700  0.23100  0.24000  1.0000
  O   O4        1.0  0.76900  0.76300  0.76000  1.0000
  O   O5        1.0  0.07840  0.43000  0.76300  1.0000
  O   O6        1.0  0.41400  0.07280  0.76300  1.0000
  Sn  Sn1       1.0  0.83300  0.16700  0.00000  1.0000
