data_image0
_chemical_formula_structural       BiLi4O6Ti
_chemical_formula_sum              "Bi1 Li4 O6 Ti1"
_cell_length_a       5.37481
_cell_length_b       5.37481
_cell_length_c       5.17456
_cell_angle_alpha    99.5322
_cell_angle_beta     99.5322
_cell_angle_gamma    120.375

_space_group_name_H-M_alt    "P 1"
_space_group_IT_number       1

loop_
  _space_group_symop_operation_xyz
  'x, y, z'

loop_
  _atom_site_type_symbol
  _atom_site_label
  _atom_site_symmetry_multiplicity
  _atom_site_fract_x
  _atom_site_fract_y
  _atom_site_fract_z
  _atom_site_occupancy
  Bi  Bi1       1.0  0.16500  0.83500  0.00000  1.0000
  Li  Li1       1.0  0.49900  0.50100  0.00000  1.0000
  Li  Li2       1.0  0.97800  0.02170  0.50000  1.0000
  Li  Li3       1.0  0.34900  0.65100  0.50000  1.0000
  Li  Li4       1.0  0.66600  0.33400  0.50000  1.0000
  O   O1        1.0  0.60600  0.93500  0.23400  1.0000
  O   O2        1.0  0.91000  0.54300  0.24100  1.0000
  O   O3        1.0  0.21800  0.24600  0.24300  1.0000
  O   O4        1.0  0.75400  0.78200  0.75700  1.0000
  O   O5        1.0  0.45700  0.08990  0.75900  1.0000
  O   O6        1.0  0.06520  0.39400  0.76600  1.0000
  Ti  Ti1       1.0  0.83200  0.16800  0.00000  1.0000
