data_image0
_chemical_formula_structural       GeLi4O6Os
_chemical_formula_sum              "Ge1 Li4 O6 Os1"
_cell_length_a       5.11098
_cell_length_b       5.11097
_cell_length_c       5.02912
_cell_angle_alpha    99.907
_cell_angle_beta     99.9062
_cell_angle_gamma    119.906

_space_group_name_H-M_alt    "P 1"
_space_group_IT_number       1

loop_
  _space_group_symop_operation_xyz
  'x, y, z'

loop_
  _atom_site_type_symbol
  _atom_site_label
  _atom_site_symmetry_multiplicity
  _atom_site_fract_x
  _atom_site_fract_y
  _atom_site_fract_z
  _atom_site_occupancy
  Ge  Ge1       1.0  0.16700  0.83300  0.00000  1.0000
  Li  Li1       1.0  0.50000  0.50000  0.00000  1.0000
  Li  Li2       1.0  0.33900  0.66100  0.50000  1.0000
  Li  Li3       1.0  0.00039  0.00000  0.50000  1.0000
  Li  Li4       1.0  0.66100  0.33900  0.50000  1.0000
  O   O1        1.0  0.93400  0.58900  0.22700  1.0000
  O   O2        1.0  0.56600  0.92300  0.23000  1.0000
  O   O3        1.0  0.23200  0.22000  0.23200  1.0000
  O   O4        1.0  0.78000  0.76800  0.76800  1.0000
  O   O5        1.0  0.07740  0.43400  0.77000  1.0000
  O   O6        1.0  0.41100  0.06570  0.77300  1.0000
  Os  Os1       1.0  0.83300  0.16700  0.00000  1.0000
