data_image0
_chemical_formula_structural       AsBLi4O6
_chemical_formula_sum              "As1 B1 Li4 O6"
_cell_length_a       5.07247
_cell_length_b       5.07247
_cell_length_c       4.86521
_cell_angle_alpha    97.7565
_cell_angle_beta     97.7565
_cell_angle_gamma    125.962

_space_group_name_H-M_alt    "P 1"
_space_group_IT_number       1

loop_
  _space_group_symop_operation_xyz
  'x, y, z'

loop_
  _atom_site_type_symbol
  _atom_site_label
  _atom_site_symmetry_multiplicity
  _atom_site_fract_x
  _atom_site_fract_y
  _atom_site_fract_z
  _atom_site_occupancy
  As  As1       1.0  0.15400  0.84600  0.00000  1.0000
  B   B1        1.0  0.77200  0.22800  0.00000  1.0000
  Li  Li1       1.0  0.48200  0.51800  0.00000  1.0000
  Li  Li2       1.0  0.98100  0.01900  0.50000  1.0000
  Li  Li3       1.0  0.67100  0.32900  0.50000  1.0000
  Li  Li4       1.0  0.35600  0.64400  0.50000  1.0000
  O   O1        1.0  0.62100  0.97100  0.18000  1.0000
  O   O2        1.0  0.92900  0.55700  0.22000  1.0000
  O   O3        1.0  0.27000  0.20800  0.25000  1.0000
  O   O4        1.0  0.79200  0.73000  0.75000  1.0000
  O   O5        1.0  0.44300  0.07080  0.78000  1.0000
  O   O6        1.0  0.02900  0.37900  0.82000  1.0000
