data_image0
_chemical_formula_structural       GaLi4O6Pb
_chemical_formula_sum              "Ga1 Li4 O6 Pb1"
_cell_length_a       5.26868
_cell_length_b       5.26868
_cell_length_c       5.16465
_cell_angle_alpha    99.7987
_cell_angle_beta     99.7987
_cell_angle_gamma    120.027

_space_group_name_H-M_alt    "P 1"
_space_group_IT_number       1

loop_
  _space_group_symop_operation_xyz
  'x, y, z'

loop_
  _atom_site_type_symbol
  _atom_site_label
  _atom_site_symmetry_multiplicity
  _atom_site_fract_x
  _atom_site_fract_y
  _atom_site_fract_z
  _atom_site_occupancy
  Ga  Ga1       1.0  0.16700  0.83300  0.00000  1.0000
  Li  Li1       1.0  0.50000  0.50000  0.00000  1.0000
  Li  Li2       1.0  0.65600  0.34400  0.50000  1.0000
  Li  Li3       1.0  0.33900  0.66100  0.50000  1.0000
  Li  Li4       1.0  0.00774  0.99200  0.50000  1.0000
  O   O1        1.0  0.93500  0.60300  0.23800  1.0000
  O   O2        1.0  0.24800  0.22700  0.24400  1.0000
  O   O3        1.0  0.55900  0.91400  0.24400  1.0000
  O   O4        1.0  0.08560  0.44100  0.75600  1.0000
  O   O5        1.0  0.77300  0.75200  0.75600  1.0000
  O   O6        1.0  0.39700  0.06520  0.76200  1.0000
  Pb  Pb1       1.0  0.83400  0.16600  0.00000  1.0000
