data_image0
_chemical_formula_structural       AlLi4O6Pb
_chemical_formula_sum              "Al1 Li4 O6 Pb1"
_cell_length_a       5.21597
_cell_length_b       5.21591
_cell_length_c       5.1224
_cell_angle_alpha    99.5798
_cell_angle_beta     99.5792
_cell_angle_gamma    120.288

_space_group_name_H-M_alt    "P 1"
_space_group_IT_number       1

loop_
  _space_group_symop_operation_xyz
  'x, y, z'

loop_
  _atom_site_type_symbol
  _atom_site_label
  _atom_site_symmetry_multiplicity
  _atom_site_fract_x
  _atom_site_fract_y
  _atom_site_fract_z
  _atom_site_occupancy
  Al  Al1       1.0  0.16600  0.83400  0.00000  1.0000
  Li  Li1       1.0  0.50000  0.50000  0.00000  1.0000
  Li  Li2       1.0  0.01430  0.98600  0.50000  1.0000
  Li  Li3       1.0  0.65400  0.34600  0.50000  1.0000
  Li  Li4       1.0  0.33800  0.66200  0.50000  1.0000
  O   O1        1.0  0.94100  0.61000  0.23100  1.0000
  O   O2        1.0  0.24500  0.21400  0.23800  1.0000
  O   O3        1.0  0.54300  0.91000  0.23800  1.0000
  O   O4        1.0  0.08960  0.45700  0.76200  1.0000
  O   O5        1.0  0.78600  0.75500  0.76200  1.0000
  O   O6        1.0  0.39000  0.05920  0.76900  1.0000
  Pb  Pb1       1.0  0.83400  0.16600  0.00000  1.0000
