data_image0
_chemical_formula_structural       GeLi4O6Te
_chemical_formula_sum              "Ge1 Li4 O6 Te1"
_cell_length_a       5.30696
_cell_length_b       5.30696
_cell_length_c       5.15134
_cell_angle_alpha    99.3735
_cell_angle_beta     99.3737
_cell_angle_gamma    120.636

_space_group_name_H-M_alt    "P 1"
_space_group_IT_number       1

loop_
  _space_group_symop_operation_xyz
  'x, y, z'

loop_
  _atom_site_type_symbol
  _atom_site_label
  _atom_site_symmetry_multiplicity
  _atom_site_fract_x
  _atom_site_fract_y
  _atom_site_fract_z
  _atom_site_occupancy
  Ge  Ge1       1.0  0.16600  0.83400  0.00000  1.0000
  Li  Li1       1.0  0.49900  0.50100  0.00000  1.0000
  Li  Li2       1.0  0.02390  0.97600  0.50000  1.0000
  Li  Li3       1.0  0.65300  0.34700  0.50000  1.0000
  Li  Li4       1.0  0.32800  0.67200  0.50000  1.0000
  O   O1        1.0  0.93700  0.60500  0.22700  1.0000
  O   O2        1.0  0.53700  0.91000  0.23500  1.0000
  O   O3        1.0  0.24300  0.20700  0.23700  1.0000
  O   O4        1.0  0.79300  0.75700  0.76300  1.0000
  O   O5        1.0  0.09020  0.46300  0.76500  1.0000
  O   O6        1.0  0.39500  0.06260  0.77300  1.0000
  Te  Te1       1.0  0.83400  0.16600  0.00000  1.0000
