data_image0
_chemical_formula_structural       Li4O6SbTl
_chemical_formula_sum              "Li4 O6 Sb1 Tl1"
_cell_length_a       5.4206
_cell_length_b       5.4206
_cell_length_c       5.25031
_cell_angle_alpha    100.068
_cell_angle_beta     100.068
_cell_angle_gamma    119.957

_space_group_name_H-M_alt    "P 1"
_space_group_IT_number       1

loop_
  _space_group_symop_operation_xyz
  'x, y, z'

loop_
  _atom_site_type_symbol
  _atom_site_label
  _atom_site_symmetry_multiplicity
  _atom_site_fract_x
  _atom_site_fract_y
  _atom_site_fract_z
  _atom_site_occupancy
  Li  Li1       1.0  0.50100  0.50000  0.00000  1.0000
  Li  Li2       1.0  0.01280  0.98700  0.50000  1.0000
  Li  Li3       1.0  0.33300  0.66700  0.50000  1.0000
  Li  Li4       1.0  0.65700  0.34300  0.50000  1.0000
  O   O1        1.0  0.93600  0.61300  0.23300  1.0000
  O   O2        1.0  0.54500  0.90700  0.24500  1.0000
  O   O3        1.0  0.25200  0.21800  0.24600  1.0000
  O   O4        1.0  0.78200  0.74800  0.75400  1.0000
  O   O5        1.0  0.09310  0.45500  0.75500  1.0000
  O   O6        1.0  0.38700  0.06420  0.76700  1.0000
  Sb  Sb1       1.0  0.16700  0.83300  0.00000  1.0000
  Tl  Tl1       1.0  0.83400  0.16600  0.00000  1.0000
