data_image0
_chemical_formula_structural       Li4O6OsSn
_chemical_formula_sum              "Li4 O6 Os1 Sn1"
_cell_length_a       5.28255
_cell_length_b       5.28255
_cell_length_c       5.10968
_cell_angle_alpha    99.8938
_cell_angle_beta     99.8938
_cell_angle_gamma    119.917

_space_group_name_H-M_alt    "P 1"
_space_group_IT_number       1

loop_
  _space_group_symop_operation_xyz
  'x, y, z'

loop_
  _atom_site_type_symbol
  _atom_site_label
  _atom_site_symmetry_multiplicity
  _atom_site_fract_x
  _atom_site_fract_y
  _atom_site_fract_z
  _atom_site_occupancy
  Li  Li1       1.0  0.50000  0.50000  0.00000  1.0000
  Li  Li2       1.0  0.01400  0.98600  0.50000  1.0000
  Li  Li3       1.0  0.65400  0.34600  0.50000  1.0000
  Li  Li4       1.0  0.33700  0.66300  0.50000  1.0000
  O   O1        1.0  0.92800  0.58800  0.23500  1.0000
  O   O2        1.0  0.56700  0.92100  0.23600  1.0000
  O   O3        1.0  0.23700  0.22900  0.23900  1.0000
  O   O4        1.0  0.77100  0.76300  0.76100  1.0000
  O   O5        1.0  0.07940  0.43300  0.76400  1.0000
  O   O6        1.0  0.41200  0.07200  0.76500  1.0000
  Os  Os1       1.0  0.16700  0.83300  0.00000  1.0000
  Sn  Sn1       1.0  0.83300  0.16700  0.00000  1.0000
