data_image0
_chemical_formula_structural       Li4O6SbY
_chemical_formula_sum              "Li4 O6 Sb1 Y1"
_cell_length_a       5.47693
_cell_length_b       5.47693
_cell_length_c       5.21342
_cell_angle_alpha    99.2337
_cell_angle_beta     99.2337
_cell_angle_gamma    120.788

_space_group_name_H-M_alt    "P 1"
_space_group_IT_number       1

loop_
  _space_group_symop_operation_xyz
  'x, y, z'

loop_
  _atom_site_type_symbol
  _atom_site_label
  _atom_site_symmetry_multiplicity
  _atom_site_fract_x
  _atom_site_fract_y
  _atom_site_fract_z
  _atom_site_occupancy
  Li  Li1       1.0  0.50000  0.50000  0.00000  1.0000
  Li  Li2       1.0  0.02920  0.97100  0.50000  1.0000
  Li  Li3       1.0  0.64400  0.35600  0.50000  1.0000
  Li  Li4       1.0  0.32700  0.67300  0.50000  1.0000
  O   O1        1.0  0.93300  0.60300  0.23400  1.0000
  O   O2        1.0  0.53900  0.90400  0.23900  1.0000
  O   O3        1.0  0.24400  0.21100  0.24000  1.0000
  O   O4        1.0  0.78900  0.75600  0.76000  1.0000
  O   O5        1.0  0.09560  0.46100  0.76100  1.0000
  O   O6        1.0  0.39700  0.06720  0.76600  1.0000
  Sb  Sb1       1.0  0.16700  0.83300  0.00000  1.0000
  Y   Y1        1.0  0.83500  0.16500  0.00000  1.0000
