data_image0
_chemical_formula_structural       CrLi4O6Si
_chemical_formula_sum              "Cr1 Li4 O6 Si1"
_cell_length_a       4.85337
_cell_length_b       4.85336
_cell_length_c       4.97929
_cell_angle_alpha    99.9166
_cell_angle_beta     99.9166
_cell_angle_gamma    119.317

_space_group_name_H-M_alt    "P 1"
_space_group_IT_number       1

loop_
  _space_group_symop_operation_xyz
  'x, y, z'

loop_
  _atom_site_type_symbol
  _atom_site_label
  _atom_site_symmetry_multiplicity
  _atom_site_fract_x
  _atom_site_fract_y
  _atom_site_fract_z
  _atom_site_occupancy
  Cr  Cr1       1.0  0.17200  0.82800  0.00000  1.0000
  Li  Li1       1.0  0.50300  0.49700  0.00000  1.0000
  Li  Li2       1.0  0.00239  0.99800  0.50000  1.0000
  Li  Li3       1.0  0.65500  0.34500  0.50000  1.0000
  Li  Li4       1.0  0.33900  0.66100  0.50000  1.0000
  O   O1        1.0  0.59100  0.94700  0.21900  1.0000
  O   O2        1.0  0.20300  0.22100  0.22200  1.0000
  O   O3        1.0  0.92400  0.55300  0.22300  1.0000
  O   O4        1.0  0.44700  0.07610  0.77700  1.0000
  O   O5        1.0  0.77900  0.79700  0.77800  1.0000
  O   O6        1.0  0.05250  0.40900  0.78100  1.0000
  Si  Si1       1.0  0.83200  0.16800  0.00000  1.0000
