data_image0
_chemical_formula_structural       BiLi4O6V
_chemical_formula_sum              "Bi1 Li4 O6 V1"
_cell_length_a       5.27745
_cell_length_b       5.27745
_cell_length_c       5.17812
_cell_angle_alpha    99.6611
_cell_angle_beta     99.6611
_cell_angle_gamma    120.111

_space_group_name_H-M_alt    "P 1"
_space_group_IT_number       1

loop_
  _space_group_symop_operation_xyz
  'x, y, z'

loop_
  _atom_site_type_symbol
  _atom_site_label
  _atom_site_symmetry_multiplicity
  _atom_site_fract_x
  _atom_site_fract_y
  _atom_site_fract_z
  _atom_site_occupancy
  Bi  Bi1       1.0  0.16700  0.83300  0.00000  1.0000
  Li  Li1       1.0  0.50100  0.49900  0.00000  1.0000
  Li  Li2       1.0  0.99100  0.00918  0.50000  1.0000
  Li  Li3       1.0  0.66000  0.34000  0.50000  1.0000
  Li  Li4       1.0  0.34500  0.65500  0.50000  1.0000
  O   O1        1.0  0.59200  0.92900  0.23700  1.0000
  O   O2        1.0  0.91800  0.56800  0.24000  1.0000
  O   O3        1.0  0.23000  0.24100  0.24300  1.0000
  O   O4        1.0  0.75900  0.77000  0.75700  1.0000
  O   O5        1.0  0.43200  0.08170  0.76000  1.0000
  O   O6        1.0  0.07110  0.40800  0.76300  1.0000
  V   V1        1.0  0.83300  0.16600  0.00000  1.0000
