data_image0
_chemical_formula_structural       GeLi4MnO6
_chemical_formula_sum              "Ge1 Li4 Mn1 O6"
_cell_length_a       4.95151
_cell_length_b       4.95151
_cell_length_c       5.02307
_cell_angle_alpha    99.6356
_cell_angle_beta     99.6356
_cell_angle_gamma    119.923

_space_group_name_H-M_alt    "P 1"
_space_group_IT_number       1

loop_
  _space_group_symop_operation_xyz
  'x, y, z'

loop_
  _atom_site_type_symbol
  _atom_site_label
  _atom_site_symmetry_multiplicity
  _atom_site_fract_x
  _atom_site_fract_y
  _atom_site_fract_z
  _atom_site_occupancy
  Ge  Ge1       1.0  0.16700  0.83300  0.00000  1.0000
  Li  Li1       1.0  0.50000  0.50000  0.00000  1.0000
  Li  Li2       1.0  0.99600  0.00358  0.50000  1.0000
  Li  Li3       1.0  0.66100  0.33900  0.50000  1.0000
  Li  Li4       1.0  0.34200  0.65800  0.50000  1.0000
  Mn  Mn1       1.0  0.83300  0.16700  0.00000  1.0000
  O   O1        1.0  0.93500  0.57800  0.22600  1.0000
  O   O2        1.0  0.57500  0.93300  0.22600  1.0000
  O   O3        1.0  0.22000  0.21800  0.22900  1.0000
  O   O4        1.0  0.78200  0.78000  0.77100  1.0000
  O   O5        1.0  0.06710  0.42500  0.77400  1.0000
  O   O6        1.0  0.42200  0.06540  0.77400  1.0000
