data_image0
_chemical_formula_structural       Li4MnNpO6
_chemical_formula_sum              "Li4 Mn1 Np1 O6"
_cell_length_a       5.35723
_cell_length_b       5.35723
_cell_length_c       5.09299
_cell_angle_alpha    98.2159
_cell_angle_beta     98.2159
_cell_angle_gamma    121.694

_space_group_name_H-M_alt    "P 1"
_space_group_IT_number       1

loop_
  _space_group_symop_operation_xyz
  'x, y, z'

loop_
  _atom_site_type_symbol
  _atom_site_label
  _atom_site_symmetry_multiplicity
  _atom_site_fract_x
  _atom_site_fract_y
  _atom_site_fract_z
  _atom_site_occupancy
  Li  Li1       1.0  0.49900  0.50100  0.00000  1.0000
  Li  Li2       1.0  0.97700  0.02270  0.50000  1.0000
  Li  Li3       1.0  0.65700  0.34300  0.50000  1.0000
  Li  Li4       1.0  0.36000  0.64000  0.50000  1.0000
  Mn  Mn1       1.0  0.83700  0.16300  0.00000  1.0000
  Np  Np1       1.0  0.16500  0.83500  0.00000  1.0000
  O   O1        1.0  0.60400  0.93700  0.23400  1.0000
  O   O2        1.0  0.91900  0.57200  0.24300  1.0000
  O   O3        1.0  0.24000  0.24900  0.24700  1.0000
  O   O4        1.0  0.75100  0.76000  0.75300  1.0000
  O   O5        1.0  0.42800  0.08090  0.75700  1.0000
  O   O6        1.0  0.06250  0.39600  0.76600  1.0000
