data_image0
_chemical_formula_structural       BiCrLi4O6
_chemical_formula_sum              "Bi1 Cr1 Li4 O6"
_cell_length_a       5.24973
_cell_length_b       5.24973
_cell_length_c       5.17389
_cell_angle_alpha    99.6114
_cell_angle_beta     99.6114
_cell_angle_gamma    120.066

_space_group_name_H-M_alt    "P 1"
_space_group_IT_number       1

loop_
  _space_group_symop_operation_xyz
  'x, y, z'

loop_
  _atom_site_type_symbol
  _atom_site_label
  _atom_site_symmetry_multiplicity
  _atom_site_fract_x
  _atom_site_fract_y
  _atom_site_fract_z
  _atom_site_occupancy
  Bi  Bi1       1.0  0.16700  0.83300  0.00000  1.0000
  Cr  Cr1       1.0  0.83300  0.16700  0.00000  1.0000
  Li  Li1       1.0  0.50100  0.49900  0.00000  1.0000
  Li  Li2       1.0  0.98600  0.01430  0.50000  1.0000
  Li  Li3       1.0  0.66400  0.33600  0.50000  1.0000
  Li  Li4       1.0  0.34600  0.65400  0.50000  1.0000
  O   O1        1.0  0.59300  0.93200  0.23700  1.0000
  O   O2        1.0  0.92000  0.56400  0.23900  1.0000
  O   O3        1.0  0.22600  0.23900  0.24100  1.0000
  O   O4        1.0  0.76100  0.77400  0.75900  1.0000
  O   O5        1.0  0.43600  0.08000  0.76100  1.0000
  O   O6        1.0  0.06780  0.40700  0.76300  1.0000
