data_image0
_chemical_formula_structural       GaLi4O6Zr
_chemical_formula_sum              "Ga1 Li4 O6 Zr1"
_cell_length_a       5.20873
_cell_length_b       5.20873
_cell_length_c       5.1136
_cell_angle_alpha    99.543
_cell_angle_beta     99.543
_cell_angle_gamma    120.164

_space_group_name_H-M_alt    "P 1"
_space_group_IT_number       1

loop_
  _space_group_symop_operation_xyz
  'x, y, z'

loop_
  _atom_site_type_symbol
  _atom_site_label
  _atom_site_symmetry_multiplicity
  _atom_site_fract_x
  _atom_site_fract_y
  _atom_site_fract_z
  _atom_site_occupancy
  Ga  Ga1       1.0  0.83400  0.16600  0.00000  1.0000
  Li  Li1       1.0  0.50100  0.49900  0.00000  1.0000
  Li  Li2       1.0  0.98500  0.01510  0.50000  1.0000
  Li  Li3       1.0  0.66000  0.34000  0.50000  1.0000
  Li  Li4       1.0  0.35000  0.65000  0.50000  1.0000
  O   O1        1.0  0.59300  0.93100  0.23600  1.0000
  O   O2        1.0  0.91900  0.56400  0.24100  1.0000
  O   O3        1.0  0.22900  0.24100  0.24100  1.0000
  O   O4        1.0  0.75900  0.77100  0.75900  1.0000
  O   O5        1.0  0.43600  0.08110  0.75900  1.0000
  O   O6        1.0  0.06940  0.40700  0.76400  1.0000
  Zr  Zr1       1.0  0.16600  0.83400  0.00000  1.0000
