data_image0
_chemical_formula_structural       AlLi4MnO6
_chemical_formula_sum              "Al1 Li4 Mn1 O6"
_cell_length_a       4.91839
_cell_length_b       4.91839
_cell_length_c       4.96849
_cell_angle_alpha    99.6332
_cell_angle_beta     99.6332
_cell_angle_gamma    120.137

_space_group_name_H-M_alt    "P 1"
_space_group_IT_number       1

loop_
  _space_group_symop_operation_xyz
  'x, y, z'

loop_
  _atom_site_type_symbol
  _atom_site_label
  _atom_site_symmetry_multiplicity
  _atom_site_fract_x
  _atom_site_fract_y
  _atom_site_fract_z
  _atom_site_occupancy
  Al  Al1       1.0  0.16500  0.83500  0.00000  1.0000
  Li  Li1       1.0  0.50100  0.49900  0.00000  1.0000
  Li  Li2       1.0  0.99700  0.00286  0.50000  1.0000
  Li  Li3       1.0  0.65800  0.34200  0.50000  1.0000
  Li  Li4       1.0  0.34400  0.65600  0.50000  1.0000
  Mn  Mn1       1.0  0.83300  0.16700  0.00000  1.0000
  O   O1        1.0  0.57400  0.93000  0.22500  1.0000
  O   O2        1.0  0.93300  0.57700  0.22600  1.0000
  O   O3        1.0  0.22200  0.22000  0.22800  1.0000
  O   O4        1.0  0.78000  0.77800  0.77200  1.0000
  O   O5        1.0  0.42300  0.06710  0.77400  1.0000
  O   O6        1.0  0.06980  0.42600  0.77500  1.0000
