data_image0
_chemical_formula_structural       GaLi4O6Sn
_chemical_formula_sum              "Ga1 Li4 O6 Sn1"
_cell_length_a       5.19003
_cell_length_b       5.18979
_cell_length_c       5.09884
_cell_angle_alpha    99.7245
_cell_angle_beta     99.7203
_cell_angle_gamma    120.096

_space_group_name_H-M_alt    "P 1"
_space_group_IT_number       1

loop_
  _space_group_symop_operation_xyz
  'x, y, z'

loop_
  _atom_site_type_symbol
  _atom_site_label
  _atom_site_symmetry_multiplicity
  _atom_site_fract_x
  _atom_site_fract_y
  _atom_site_fract_z
  _atom_site_occupancy
  Ga  Ga1       1.0  0.16600  0.83400  0.00000  1.0000
  Li  Li1       1.0  0.50000  0.50000  0.00000  1.0000
  Li  Li2       1.0  0.34000  0.66000  0.50000  1.0000
  Li  Li3       1.0  0.65300  0.34700  0.50000  1.0000
  Li  Li4       1.0  0.01100  0.98900  0.50000  1.0000
  O   O1        1.0  0.93100  0.58900  0.23600  1.0000
  O   O2        1.0  0.56800  0.92200  0.23800  1.0000
  O   O3        1.0  0.23600  0.22800  0.24000  1.0000
  O   O4        1.0  0.77200  0.76400  0.76000  1.0000
  O   O5        1.0  0.07840  0.43200  0.76200  1.0000
  O   O6        1.0  0.41100  0.06950  0.76400  1.0000
  Sn  Sn1       1.0  0.83400  0.16600  0.00000  1.0000
