data_image0
_chemical_formula_structural       AlGaLi4O6
_chemical_formula_sum              "Al1 Ga1 Li4 O6"
_cell_length_a       4.9778
_cell_length_b       4.97769
_cell_length_c       4.96949
_cell_angle_alpha    99.7496
_cell_angle_beta     99.7488
_cell_angle_gamma    120.014

_space_group_name_H-M_alt    "P 1"
_space_group_IT_number       1

loop_
  _space_group_symop_operation_xyz
  'x, y, z'

loop_
  _atom_site_type_symbol
  _atom_site_label
  _atom_site_symmetry_multiplicity
  _atom_site_fract_x
  _atom_site_fract_y
  _atom_site_fract_z
  _atom_site_occupancy
  Al  Al1       1.0  0.16600  0.83400  0.00013  1.0000
  Ga  Ga1       1.0  0.83400  0.16600  0.00000  1.0000
  Li  Li1       1.0  0.50000  0.50000  0.00017  1.0000
  Li  Li2       1.0  0.99800  0.00229  0.50000  1.0000
  Li  Li3       1.0  0.34400  0.65600  0.50000  1.0000
  Li  Li4       1.0  0.65900  0.34100  0.50000  1.0000
  O   O1        1.0  0.93400  0.58900  0.23000  1.0000
  O   O2        1.0  0.56600  0.92300  0.23100  1.0000
  O   O3        1.0  0.23200  0.22100  0.23300  1.0000
  O   O4        1.0  0.77900  0.76800  0.76700  1.0000
  O   O5        1.0  0.07740  0.43400  0.76900  1.0000
  O   O6        1.0  0.41100  0.06580  0.77000  1.0000
