data_image0
_chemical_formula_structural       GeLi4O6Zr
_chemical_formula_sum              "Ge1 Li4 O6 Zr1"
_cell_length_a       5.2042
_cell_length_b       5.2042
_cell_length_c       5.11915
_cell_angle_alpha    99.4936
_cell_angle_beta     99.4936
_cell_angle_gamma    120.245

_space_group_name_H-M_alt    "P 1"
_space_group_IT_number       1

loop_
  _space_group_symop_operation_xyz
  'x, y, z'

loop_
  _atom_site_type_symbol
  _atom_site_label
  _atom_site_symmetry_multiplicity
  _atom_site_fract_x
  _atom_site_fract_y
  _atom_site_fract_z
  _atom_site_occupancy
  Ge  Ge1       1.0  0.16700  0.83300  0.00000  1.0000
  Li  Li1       1.0  0.50000  0.50000  0.00000  1.0000
  Li  Li2       1.0  0.02250  0.97800  0.50000  1.0000
  Li  Li3       1.0  0.65100  0.34900  0.50000  1.0000
  Li  Li4       1.0  0.33300  0.66700  0.50000  1.0000
  O   O1        1.0  0.93900  0.60000  0.22700  1.0000
  O   O2        1.0  0.55000  0.91900  0.23400  1.0000
  O   O3        1.0  0.23500  0.21300  0.23500  1.0000
  O   O4        1.0  0.78700  0.76500  0.76500  1.0000
  O   O5        1.0  0.08140  0.45000  0.76600  1.0000
  O   O6        1.0  0.40000  0.06100  0.77300  1.0000
  Zr  Zr1       1.0  0.83400  0.16600  0.00000  1.0000
