data_image0
_chemical_formula_structural       GeLi4NiO6
_chemical_formula_sum              "Ge1 Li4 Ni1 O6"
_cell_length_a       4.8921
_cell_length_b       4.8921
_cell_length_c       4.99035
_cell_angle_alpha    99.5122
_cell_angle_beta     99.5122
_cell_angle_gamma    120.002

_space_group_name_H-M_alt    "P 1"
_space_group_IT_number       1

loop_
  _space_group_symop_operation_xyz
  'x, y, z'

loop_
  _atom_site_type_symbol
  _atom_site_label
  _atom_site_symmetry_multiplicity
  _atom_site_fract_x
  _atom_site_fract_y
  _atom_site_fract_z
  _atom_site_occupancy
  Ge  Ge1       1.0  0.16700  0.83300  0.00000  1.0000
  Li  Li1       1.0  0.50100  0.49900  0.00000  1.0000
  Li  Li2       1.0  0.98700  0.01250  0.50000  1.0000
  Li  Li3       1.0  0.34400  0.65600  0.50000  1.0000
  Li  Li4       1.0  0.66400  0.33600  0.50000  1.0000
  Ni  Ni1       1.0  0.83300  0.16700  0.00000  1.0000
  O   O1        1.0  0.58000  0.93600  0.22300  1.0000
  O   O2        1.0  0.93200  0.57000  0.22500  1.0000
  O   O3        1.0  0.21600  0.21900  0.22800  1.0000
  O   O4        1.0  0.78100  0.78400  0.77200  1.0000
  O   O5        1.0  0.43000  0.06760  0.77500  1.0000
  O   O6        1.0  0.06450  0.42000  0.77700  1.0000
