data_image0
_chemical_formula_structural       Li4O6SbSm
_chemical_formula_sum              "Li4 O6 Sb1 Sm1"
_cell_length_a       5.58839
_cell_length_b       5.58839
_cell_length_c       5.21355
_cell_angle_alpha    98.7436
_cell_angle_beta     98.7436
_cell_angle_gamma    121.573

_space_group_name_H-M_alt    "P 1"
_space_group_IT_number       1

loop_
  _space_group_symop_operation_xyz
  'x, y, z'

loop_
  _atom_site_type_symbol
  _atom_site_label
  _atom_site_symmetry_multiplicity
  _atom_site_fract_x
  _atom_site_fract_y
  _atom_site_fract_z
  _atom_site_occupancy
  Li  Li1       1.0  0.50300  0.49700  0.00000  1.0000
  Li  Li2       1.0  0.03480  0.96500  0.50000  1.0000
  Li  Li3       1.0  0.63600  0.36400  0.50000  1.0000
  Li  Li4       1.0  0.31100  0.68900  0.50000  1.0000
  O   O1        1.0  0.93100  0.60400  0.23500  1.0000
  O   O2        1.0  0.24800  0.20200  0.23800  1.0000
  O   O3        1.0  0.52800  0.89300  0.24000  1.0000
  O   O4        1.0  0.10700  0.47200  0.76000  1.0000
  O   O5        1.0  0.79800  0.75200  0.76200  1.0000
  O   O6        1.0  0.39600  0.06860  0.76500  1.0000
  Sb  Sb1       1.0  0.16900  0.83100  0.00000  1.0000
  Sm  Sm1       1.0  0.83800  0.16200  0.00000  1.0000
