data_image0
_chemical_formula_structural       AlLi4O6Zr
_chemical_formula_sum              "Al1 Li4 O6 Zr1"
_cell_length_a       5.15762
_cell_length_b       5.15762
_cell_length_c       5.07241
_cell_angle_alpha    99.5419
_cell_angle_beta     99.5419
_cell_angle_gamma    120.211

_space_group_name_H-M_alt    "P 1"
_space_group_IT_number       1

loop_
  _space_group_symop_operation_xyz
  'x, y, z'

loop_
  _atom_site_type_symbol
  _atom_site_label
  _atom_site_symmetry_multiplicity
  _atom_site_fract_x
  _atom_site_fract_y
  _atom_site_fract_z
  _atom_site_occupancy
  Al  Al1       1.0  0.83400  0.16600  0.00000  1.0000
  Li  Li1       1.0  0.50100  0.49900  0.00000  1.0000
  Li  Li2       1.0  0.98400  0.01560  0.50000  1.0000
  Li  Li3       1.0  0.66000  0.34000  0.50000  1.0000
  Li  Li4       1.0  0.34800  0.65200  0.50000  1.0000
  O   O1        1.0  0.60100  0.93800  0.22900  1.0000
  O   O2        1.0  0.91700  0.55100  0.23500  1.0000
  O   O3        1.0  0.21700  0.23900  0.23500  1.0000
  O   O4        1.0  0.76100  0.78300  0.76500  1.0000
  O   O5        1.0  0.44900  0.08340  0.76500  1.0000
  O   O6        1.0  0.06180  0.39900  0.77100  1.0000
  Zr  Zr1       1.0  0.16600  0.83400  0.00000  1.0000
