data_image0
_chemical_formula_structural       BiFeLi4O6
_chemical_formula_sum              "Bi1 Fe1 Li4 O6"
_cell_length_a       5.25389
_cell_length_b       5.25389
_cell_length_c       5.1895
_cell_angle_alpha    99.6721
_cell_angle_beta     99.6721
_cell_angle_gamma    119.977

_space_group_name_H-M_alt    "P 1"
_space_group_IT_number       1

loop_
  _space_group_symop_operation_xyz
  'x, y, z'

loop_
  _atom_site_type_symbol
  _atom_site_label
  _atom_site_symmetry_multiplicity
  _atom_site_fract_x
  _atom_site_fract_y
  _atom_site_fract_z
  _atom_site_occupancy
  Bi  Bi1       1.0  0.16700  0.83300  0.00000  1.0000
  Fe  Fe1       1.0  0.83300  0.16700  0.00000  1.0000
  Li  Li1       1.0  0.50000  0.50000  0.00000  1.0000
  Li  Li2       1.0  0.98800  0.01200  0.50000  1.0000
  Li  Li3       1.0  0.66300  0.33700  0.50000  1.0000
  Li  Li4       1.0  0.34600  0.65400  0.50000  1.0000
  O   O1        1.0  0.59000  0.93100  0.23800  1.0000
  O   O2        1.0  0.92200  0.56900  0.23900  1.0000
  O   O3        1.0  0.22800  0.23800  0.24200  1.0000
  O   O4        1.0  0.76200  0.77200  0.75800  1.0000
  O   O5        1.0  0.43100  0.07800  0.76100  1.0000
  O   O6        1.0  0.06890  0.41000  0.76200  1.0000
