data_image0
_chemical_formula_structural       CrGaLi4O6
_chemical_formula_sum              "Cr1 Ga1 Li4 O6"
_cell_length_a       4.98526
_cell_length_b       4.98526
_cell_length_c       5.01167
_cell_angle_alpha    99.6114
_cell_angle_beta     99.6114
_cell_angle_gamma    120.11

_space_group_name_H-M_alt    "P 1"
_space_group_IT_number       1

loop_
  _space_group_symop_operation_xyz
  'x, y, z'

loop_
  _atom_site_type_symbol
  _atom_site_label
  _atom_site_symmetry_multiplicity
  _atom_site_fract_x
  _atom_site_fract_y
  _atom_site_fract_z
  _atom_site_occupancy
  Cr  Cr1       1.0  0.16700  0.83300  0.00000  1.0000
  Ga  Ga1       1.0  0.83500  0.16500  0.00000  1.0000
  Li  Li1       1.0  0.49900  0.50100  0.00000  1.0000
  Li  Li2       1.0  0.00345  0.99700  0.50000  1.0000
  Li  Li3       1.0  0.65900  0.34100  0.50000  1.0000
  Li  Li4       1.0  0.33900  0.66100  0.50000  1.0000
  O   O1        1.0  0.94000  0.59200  0.22400  1.0000
  O   O2        1.0  0.56600  0.92900  0.23100  1.0000
  O   O3        1.0  0.22700  0.21600  0.23400  1.0000
  O   O4        1.0  0.78400  0.77300  0.76600  1.0000
  O   O5        1.0  0.07120  0.43400  0.76900  1.0000
  O   O6        1.0  0.40800  0.05980  0.77600  1.0000
