data_image0
_chemical_formula_structural       AlGeLi4O6
_chemical_formula_sum              "Al1 Ge1 Li4 O6"
_cell_length_a       4.94266
_cell_length_b       4.94262
_cell_length_c       4.97226
_cell_angle_alpha    99.6843
_cell_angle_beta     99.6839
_cell_angle_gamma    120.028

_space_group_name_H-M_alt    "P 1"
_space_group_IT_number       1

loop_
  _space_group_symop_operation_xyz
  'x, y, z'

loop_
  _atom_site_type_symbol
  _atom_site_label
  _atom_site_symmetry_multiplicity
  _atom_site_fract_x
  _atom_site_fract_y
  _atom_site_fract_z
  _atom_site_occupancy
  Al  Al1       1.0  0.83400  0.16600  0.00000  1.0000
  Ge  Ge1       1.0  0.16600  0.83400  0.00000  1.0000
  Li  Li1       1.0  0.50000  0.50000  0.00000  1.0000
  Li  Li2       1.0  0.00000  0.00000  0.50000  1.0000
  Li  Li3       1.0  0.34300  0.65700  0.50000  1.0000
  Li  Li4       1.0  0.65700  0.34300  0.50000  1.0000
  O   O1        1.0  0.93100  0.57600  0.22500  1.0000
  O   O2        1.0  0.57600  0.93200  0.22600  1.0000
  O   O3        1.0  0.22100  0.22100  0.22800  1.0000
  O   O4        1.0  0.77900  0.77900  0.77200  1.0000
  O   O5        1.0  0.06850  0.42400  0.77400  1.0000
  O   O6        1.0  0.42400  0.06880  0.77500  1.0000
