data_image0
_chemical_formula_structural       BiLi4O6Tl
_chemical_formula_sum              "Bi1 Li4 O6 Tl1"
_cell_length_a       5.48785
_cell_length_b       5.48785
_cell_length_c       5.30752
_cell_angle_alpha    100.025
_cell_angle_beta     100.025
_cell_angle_gamma    119.906

_space_group_name_H-M_alt    "P 1"
_space_group_IT_number       1

loop_
  _space_group_symop_operation_xyz
  'x, y, z'

loop_
  _atom_site_type_symbol
  _atom_site_label
  _atom_site_symmetry_multiplicity
  _atom_site_fract_x
  _atom_site_fract_y
  _atom_site_fract_z
  _atom_site_occupancy
  Bi  Bi1       1.0  0.16800  0.83200  0.00000  1.0000
  Li  Li1       1.0  0.50100  0.49900  0.00000  1.0000
  Li  Li2       1.0  0.00539  0.99500  0.50000  1.0000
  Li  Li3       1.0  0.65700  0.34300  0.50000  1.0000
  Li  Li4       1.0  0.34100  0.65900  0.50000  1.0000
  O   O1        1.0  0.92700  0.60300  0.24300  1.0000
  O   O2        1.0  0.56200  0.91100  0.25300  1.0000
  O   O3        1.0  0.25500  0.23500  0.25300  1.0000
  O   O4        1.0  0.76500  0.74500  0.74700  1.0000
  O   O5        1.0  0.08950  0.43800  0.74700  1.0000
  O   O6        1.0  0.39700  0.07340  0.75700  1.0000
  Tl  Tl1       1.0  0.83300  0.16700  0.00000  1.0000
