data_image0
_chemical_formula_structural       Li4O6SnV
_chemical_formula_sum              "Li4 O6 Sn1 V1"
_cell_length_a       5.18802
_cell_length_b       5.18802
_cell_length_c       5.1082
_cell_angle_alpha    99.2998
_cell_angle_beta     99.2998
_cell_angle_gamma    120.712

_space_group_name_H-M_alt    "P 1"
_space_group_IT_number       1

loop_
  _space_group_symop_operation_xyz
  'x, y, z'

loop_
  _atom_site_type_symbol
  _atom_site_label
  _atom_site_symmetry_multiplicity
  _atom_site_fract_x
  _atom_site_fract_y
  _atom_site_fract_z
  _atom_site_occupancy
  Li  Li1       1.0  0.49700  0.50300  0.00000  1.0000
  Li  Li2       1.0  0.00591  0.99400  0.50000  1.0000
  Li  Li3       1.0  0.65800  0.34200  0.50000  1.0000
  Li  Li4       1.0  0.34000  0.66000  0.50000  1.0000
  O   O1        1.0  0.94100  0.59800  0.22700  1.0000
  O   O2        1.0  0.56800  0.92400  0.23800  1.0000
  O   O3        1.0  0.23600  0.22300  0.23900  1.0000
  O   O4        1.0  0.77700  0.76400  0.76100  1.0000
  O   O5        1.0  0.07560  0.43200  0.76200  1.0000
  O   O6        1.0  0.40200  0.05920  0.77300  1.0000
  Sn  Sn1       1.0  0.83500  0.16500  0.00000  1.0000
  V   V1        1.0  0.16400  0.83600  0.00000  1.0000
