data_image0
_chemical_formula_structural       Li4O6TiU
_chemical_formula_sum              "Li4 O6 Ti1 U1"
_cell_length_a       5.49534
_cell_length_b       5.49534
_cell_length_c       5.1035
_cell_angle_alpha    98.8236
_cell_angle_beta     98.8236
_cell_angle_gamma    121.425

_space_group_name_H-M_alt    "P 1"
_space_group_IT_number       1

loop_
  _space_group_symop_operation_xyz
  'x, y, z'

loop_
  _atom_site_type_symbol
  _atom_site_label
  _atom_site_symmetry_multiplicity
  _atom_site_fract_x
  _atom_site_fract_y
  _atom_site_fract_z
  _atom_site_occupancy
  Li  Li1       1.0  0.49800  0.50200  0.00000  1.0000
  Li  Li2       1.0  0.96400  0.03620  0.50000  1.0000
  Li  Li3       1.0  0.67600  0.32400  0.50000  1.0000
  Li  Li4       1.0  0.36000  0.64000  0.50000  1.0000
  O   O1        1.0  0.60200  0.93100  0.23300  1.0000
  O   O2        1.0  0.90200  0.53300  0.23700  1.0000
  O   O3        1.0  0.20700  0.24400  0.23800  1.0000
  O   O4        1.0  0.75600  0.79300  0.76200  1.0000
  O   O5        1.0  0.46700  0.09830  0.76300  1.0000
  O   O6        1.0  0.06930  0.39800  0.76700  1.0000
  Ti  Ti1       1.0  0.83400  0.16600  0.00000  1.0000
  U   U1        1.0  0.16400  0.83600  0.00000  1.0000
