data_image0
_chemical_formula_structural       Au3Ce3Mg3
_chemical_formula_sum              "Au3 Ce3 Mg3"
_cell_length_a       7.81336
_cell_length_b       7.81336
_cell_length_c       4.25292
_cell_angle_alpha    90
_cell_angle_beta     90
_cell_angle_gamma    120

_space_group_name_H-M_alt    "P 1"
_space_group_IT_number       1

loop_
  _space_group_symop_operation_xyz
  'x, y, z'

loop_
  _atom_site_type_symbol
  _atom_site_label
  _atom_site_symmetry_multiplicity
  _atom_site_fract_x
  _atom_site_fract_y
  _atom_site_fract_z
  _atom_site_occupancy
  Au  Au1       1.0  0.00000  0.00000  0.00000  1.0000
  Au  Au2       1.0  0.66700  0.33300  0.50000  1.0000
  Au  Au3       1.0  0.33300  0.66700  0.50000  1.0000
  Ce  Ce1       1.0  0.58700  0.00000  0.00000  1.0000
  Ce  Ce2       1.0  0.41300  0.41300  0.00000  1.0000
  Ce  Ce3       1.0  0.00000  0.58700  0.00000  1.0000
  Mg  Mg1       1.0  0.23900  0.00000  0.50000  1.0000
  Mg  Mg2       1.0  0.00000  0.23900  0.50000  1.0000
  Mg  Mg3       1.0  0.76100  0.76100  0.50000  1.0000
