data_image0
_chemical_formula_structural       Bi2C8N8Rb2S8
_chemical_formula_sum              "Bi2 C8 N8 Rb2 S8"
_cell_length_a       11.1483
_cell_length_b       7.65064
_cell_length_c       6.44524
_cell_angle_alpha    90
_cell_angle_beta     90
_cell_angle_gamma    90

_space_group_name_H-M_alt    "P 1"
_space_group_IT_number       1

loop_
  _space_group_symop_operation_xyz
  'x, y, z'

loop_
  _atom_site_type_symbol
  _atom_site_label
  _atom_site_symmetry_multiplicity
  _atom_site_fract_x
  _atom_site_fract_y
  _atom_site_fract_z
  _atom_site_occupancy
  Bi  Bi1       1.0  0.00000  0.00000  0.01820  1.0000
  Bi  Bi2       1.0  0.50000  0.50000  0.98200  1.0000
  C   C1        1.0  0.75700  0.29800  0.11200  1.0000
  C   C2        1.0  0.24300  0.70200  0.11200  1.0000
  C   C3        1.0  0.37000  0.46400  0.43300  1.0000
  C   C4        1.0  0.63000  0.53600  0.43300  1.0000
  C   C5        1.0  0.87000  0.03630  0.56700  1.0000
  C   C6        1.0  0.13000  0.96400  0.56700  1.0000
  C   C7        1.0  0.25700  0.20200  0.88800  1.0000
  C   C8        1.0  0.74300  0.79800  0.88800  1.0000
  N   N1        1.0  0.65400  0.27300  0.07490  1.0000
  N   N2        1.0  0.34600  0.72700  0.07490  1.0000
  N   N3        1.0  0.39600  0.37300  0.28900  1.0000
  N   N4        1.0  0.60400  0.62700  0.28900  1.0000
  N   N5        1.0  0.89600  0.12700  0.71100  1.0000
  N   N6        1.0  0.10400  0.87300  0.71100  1.0000
  N   N7        1.0  0.15400  0.22700  0.92500  1.0000
  N   N8        1.0  0.84600  0.77300  0.92500  1.0000
  Rb  Rb1       1.0  0.50000  0.00000  0.32100  1.0000
  Rb  Rb2       1.0  0.00000  0.50000  0.67900  1.0000
  S   S1        1.0  0.89700  0.33700  0.16500  1.0000
  S   S2        1.0  0.10300  0.66300  0.16500  1.0000
  S   S3        1.0  0.16600  0.09310  0.37800  1.0000
  S   S4        1.0  0.83400  0.90700  0.37800  1.0000
  S   S5        1.0  0.66600  0.40700  0.62200  1.0000
  S   S6        1.0  0.33400  0.59300  0.62200  1.0000
  S   S7        1.0  0.39700  0.16300  0.83500  1.0000
  S   S8        1.0  0.60300  0.83700  0.83500  1.0000
