data_image0
_chemical_formula_structural       Br8Te16
_chemical_formula_sum              "Br8 Te16"
_cell_length_a       15.7761
_cell_length_b       13.2542
_cell_length_c       4.04819
_cell_angle_alpha    90
_cell_angle_beta     90
_cell_angle_gamma    90

_space_group_name_H-M_alt    "P 1"
_space_group_IT_number       1

loop_
  _space_group_symop_operation_xyz
  'x, y, z'

loop_
  _atom_site_type_symbol
  _atom_site_label
  _atom_site_symmetry_multiplicity
  _atom_site_fract_x
  _atom_site_fract_y
  _atom_site_fract_z
  _atom_site_occupancy
  Br  Br1       1.0  0.94200  0.60800  0.25000  1.0000
  Br  Br2       1.0  0.65600  0.63900  0.25000  1.0000
  Br  Br3       1.0  0.15600  0.86100  0.25000  1.0000
  Br  Br4       1.0  0.44200  0.89200  0.25000  1.0000
  Br  Br5       1.0  0.55800  0.10800  0.75000  1.0000
  Br  Br6       1.0  0.84400  0.13900  0.75000  1.0000
  Br  Br7       1.0  0.34400  0.36100  0.75000  1.0000
  Br  Br8       1.0  0.05840  0.39200  0.75000  1.0000
  Te  Te1       1.0  0.31500  0.19800  0.25000  1.0000
  Te  Te2       1.0  0.07750  0.23400  0.25000  1.0000
  Te  Te3       1.0  0.57800  0.26600  0.25000  1.0000
  Te  Te4       1.0  0.81500  0.30200  0.25000  1.0000
  Te  Te5       1.0  0.21900  0.55200  0.25000  1.0000
  Te  Te6       1.0  0.40900  0.58100  0.25000  1.0000
  Te  Te7       1.0  0.90900  0.91900  0.25000  1.0000
  Te  Te8       1.0  0.71900  0.94800  0.25000  1.0000
  Te  Te9       1.0  0.28100  0.05170  0.75000  1.0000
  Te  Te10      1.0  0.09090  0.08110  0.75000  1.0000
  Te  Te11      1.0  0.59100  0.41900  0.75000  1.0000
  Te  Te12      1.0  0.78100  0.44800  0.75000  1.0000
  Te  Te13      1.0  0.18500  0.69800  0.75000  1.0000
  Te  Te14      1.0  0.42200  0.73400  0.75000  1.0000
  Te  Te15      1.0  0.92200  0.76600  0.75000  1.0000
  Te  Te16      1.0  0.68500  0.80200  0.75000  1.0000
