data_image0
_chemical_formula_structural       Co12Mg2P7
_chemical_formula_sum              "Co12 Mg2 P7"
_cell_length_a       8.94459
_cell_length_b       8.94436
_cell_length_c       3.45328
_cell_angle_alpha    90
_cell_angle_beta     90
_cell_angle_gamma    119.994

_space_group_name_H-M_alt    "P 1"
_space_group_IT_number       1

loop_
  _space_group_symop_operation_xyz
  'x, y, z'

loop_
  _atom_site_type_symbol
  _atom_site_label
  _atom_site_symmetry_multiplicity
  _atom_site_fract_x
  _atom_site_fract_y
  _atom_site_fract_z
  _atom_site_occupancy
  Co  Co1       1.0  0.44300  0.06650  0.00000  1.0000
  Co  Co2       1.0  0.15300  0.27400  0.00000  1.0000
  Co  Co3       1.0  0.93400  0.37700  0.00000  1.0000
  Co  Co4       1.0  0.62400  0.55700  0.00000  1.0000
  Co  Co5       1.0  0.12200  0.84700  0.00000  1.0000
  Co  Co6       1.0  0.72600  0.87800  0.00000  1.0000
  Co  Co7       1.0  0.23900  0.10500  0.50000  1.0000
  Co  Co8       1.0  0.89500  0.13400  0.50000  1.0000
  Co  Co9       1.0  0.38200  0.44200  0.50000  1.0000
  Co  Co10      1.0  0.06040  0.61800  0.50000  1.0000
  Co  Co11      1.0  0.86600  0.76100  0.50000  1.0000
  Co  Co12      1.0  0.55800  0.94000  0.50000  1.0000
  Mg  Mg1       1.0  0.33300  0.66700  0.00000  1.0000
  Mg  Mg2       1.0  0.66700  0.33300  0.50000  1.0000
  P   P1        1.0  0.00000  0.00000  0.00000  1.0000
  P   P2        1.0  0.71000  0.11600  0.00000  1.0000
  P   P3        1.0  0.40600  0.29000  0.00000  1.0000
  P   P4        1.0  0.88400  0.59400  0.00000  1.0000
  P   P5        1.0  0.11300  0.40600  0.50000  1.0000
  P   P6        1.0  0.59400  0.70700  0.50000  1.0000
  P   P7        1.0  0.29300  0.88700  0.50000  1.0000
