data_image0
_chemical_formula_structural       CoLi4NbO6
_chemical_formula_sum              "Co1 Li4 Nb1 O6"
_cell_length_a       5.10286
_cell_length_b       5.10286
_cell_length_c       5.07944
_cell_angle_alpha    99.2153
_cell_angle_beta     99.2153
_cell_angle_gamma    120.467

_space_group_name_H-M_alt    "P 1"
_space_group_IT_number       1

loop_
  _space_group_symop_operation_xyz
  'x, y, z'

loop_
  _atom_site_type_symbol
  _atom_site_label
  _atom_site_symmetry_multiplicity
  _atom_site_fract_x
  _atom_site_fract_y
  _atom_site_fract_z
  _atom_site_occupancy
  Co  Co1       1.0  0.83300  0.16700  0.00000  1.0000
  Li  Li1       1.0  0.50100  0.49900  0.00000  1.0000
  Li  Li2       1.0  0.99200  0.00781  0.50000  1.0000
  Li  Li3       1.0  0.66300  0.33700  0.50000  1.0000
  Li  Li4       1.0  0.34500  0.65500  0.50000  1.0000
  Nb  Nb1       1.0  0.16000  0.84000  0.00000  1.0000
  O   O1        1.0  0.58500  0.93100  0.22700  1.0000
  O   O2        1.0  0.93000  0.58400  0.24000  1.0000
  O   O3        1.0  0.23900  0.23300  0.24300  1.0000
  O   O4        1.0  0.76700  0.76100  0.75700  1.0000
  O   O5        1.0  0.41600  0.06970  0.76000  1.0000
  O   O6        1.0  0.06940  0.41500  0.77300  1.0000
