data_image0
_chemical_formula_structural       Co2F8Li2
_chemical_formula_sum              "Co2 F8 Li2"
_cell_length_a       5.34454
_cell_length_b       4.576
_cell_length_c       5.4614
_cell_angle_alpha    90
_cell_angle_beta     114.402
_cell_angle_gamma    90

_space_group_name_H-M_alt    "P 1"
_space_group_IT_number       1

loop_
  _space_group_symop_operation_xyz
  'x, y, z'

loop_
  _atom_site_type_symbol
  _atom_site_label
  _atom_site_symmetry_multiplicity
  _atom_site_fract_x
  _atom_site_fract_y
  _atom_site_fract_z
  _atom_site_occupancy
  Co  Co1       1.0  0.00000  0.00000  0.00000  1.0000
  Co  Co2       1.0  0.00000  0.50000  0.50000  1.0000
  F   F1        1.0  0.33300  0.80400  0.13500  1.0000
  F   F2        1.0  0.84600  0.70500  0.15300  1.0000
  F   F3        1.0  0.15400  0.20500  0.34700  1.0000
  F   F4        1.0  0.66700  0.30400  0.36500  1.0000
  F   F5        1.0  0.33300  0.69600  0.63500  1.0000
  F   F6        1.0  0.84600  0.79500  0.65300  1.0000
  F   F7        1.0  0.15400  0.29500  0.84700  1.0000
  F   F8        1.0  0.66700  0.19600  0.86500  1.0000
  Li  Li1       1.0  0.50000  0.50000  0.00000  1.0000
  Li  Li2       1.0  0.50000  0.00000  0.50000  1.0000
