data_image0
_chemical_formula_structural       Li4MoO6U
_chemical_formula_sum              "Li4 Mo1 O6 U1"
_cell_length_a       5.37628
_cell_length_b       5.37628
_cell_length_c       5.22448
_cell_angle_alpha    99.2218
_cell_angle_beta     99.2218
_cell_angle_gamma    120.353

_space_group_name_H-M_alt    "P 1"
_space_group_IT_number       1

loop_
  _space_group_symop_operation_xyz
  'x, y, z'

loop_
  _atom_site_type_symbol
  _atom_site_label
  _atom_site_symmetry_multiplicity
  _atom_site_fract_x
  _atom_site_fract_y
  _atom_site_fract_z
  _atom_site_occupancy
  Li  Li1       1.0  0.50100  0.49900  0.00000  1.0000
  Li  Li2       1.0  0.97800  0.02160  0.50000  1.0000
  Li  Li3       1.0  0.65800  0.34200  0.50000  1.0000
  Li  Li4       1.0  0.35600  0.64400  0.50000  1.0000
  Mo  Mo1       1.0  0.83400  0.16600  0.00000  1.0000
  O   O1        1.0  0.59200  0.92000  0.24400  1.0000
  O   O2        1.0  0.90800  0.56000  0.24500  1.0000
  O   O3        1.0  0.23600  0.24900  0.24600  1.0000
  O   O4        1.0  0.75100  0.76400  0.75400  1.0000
  O   O5        1.0  0.44000  0.09240  0.75500  1.0000
  O   O6        1.0  0.08020  0.40800  0.75600  1.0000
  U   U1        1.0  0.16700  0.83300  0.00000  1.0000
