data_image0
_chemical_formula_structural       Co6MgP4
_chemical_formula_sum              "Co6 Mg1 P4"
_cell_length_a       6.54736
_cell_length_b       6.54609
_cell_length_c       3.34921
_cell_angle_alpha    90
_cell_angle_beta     90
_cell_angle_gamma    120.006

_space_group_name_H-M_alt    "P 1"
_space_group_IT_number       1

loop_
  _space_group_symop_operation_xyz
  'x, y, z'

loop_
  _atom_site_type_symbol
  _atom_site_label
  _atom_site_symmetry_multiplicity
  _atom_site_fract_x
  _atom_site_fract_y
  _atom_site_fract_z
  _atom_site_occupancy
  Co  Co1       1.0  0.53500  0.07020  0.00000  1.0000
  Co  Co2       1.0  0.53500  0.46500  0.00000  1.0000
  Co  Co3       1.0  0.93000  0.46500  0.00000  1.0000
  Co  Co4       1.0  0.19900  0.39800  0.50000  1.0000
  Co  Co5       1.0  0.19900  0.80100  0.50000  1.0000
  Co  Co6       1.0  0.60200  0.80100  0.50000  1.0000
  Mg  Mg1       1.0  0.00000  0.00000  0.00000  1.0000
  P   P1        1.0  0.33300  0.66700  0.00000  1.0000
  P   P2        1.0  0.37400  0.18700  0.50000  1.0000
  P   P3        1.0  0.81300  0.18700  0.50000  1.0000
  P   P4        1.0  0.81300  0.62600  0.50000  1.0000
