data_image0
_chemical_formula_structural       Co2Li12O8
_chemical_formula_sum              "Co2 Li12 O8"
_cell_length_a       6.5119
_cell_length_b       6.5119
_cell_length_c       4.63305
_cell_angle_alpha    90
_cell_angle_beta     90
_cell_angle_gamma    90

_space_group_name_H-M_alt    "P 1"
_space_group_IT_number       1

loop_
  _space_group_symop_operation_xyz
  'x, y, z'

loop_
  _atom_site_type_symbol
  _atom_site_label
  _atom_site_symmetry_multiplicity
  _atom_site_fract_x
  _atom_site_fract_y
  _atom_site_fract_z
  _atom_site_occupancy
  Co  Co1       1.0  0.25000  0.75000  0.25000  1.0000
  Co  Co2       1.0  0.75000  0.25000  0.75000  1.0000
  Li  Li1       1.0  0.25000  0.25000  0.20400  1.0000
  Li  Li2       1.0  0.53200  0.03180  0.25000  1.0000
  Li  Li3       1.0  0.96800  0.03180  0.25000  1.0000
  Li  Li4       1.0  0.53200  0.46800  0.25000  1.0000
  Li  Li5       1.0  0.96800  0.46800  0.25000  1.0000
  Li  Li6       1.0  0.75000  0.75000  0.29600  1.0000
  Li  Li7       1.0  0.25000  0.25000  0.70400  1.0000
  Li  Li8       1.0  0.03180  0.53200  0.75000  1.0000
  Li  Li9       1.0  0.46800  0.53200  0.75000  1.0000
  Li  Li10      1.0  0.03180  0.96800  0.75000  1.0000
  Li  Li11      1.0  0.46800  0.96800  0.75000  1.0000
  Li  Li12      1.0  0.75000  0.75000  0.79600  1.0000
  O   O1        1.0  0.51400  0.75000  0.03500  1.0000
  O   O2        1.0  0.98600  0.75000  0.03500  1.0000
  O   O3        1.0  0.25000  0.01370  0.46500  1.0000
  O   O4        1.0  0.25000  0.48600  0.46500  1.0000
  O   O5        1.0  0.75000  0.51400  0.53500  1.0000
  O   O6        1.0  0.75000  0.98600  0.53500  1.0000
  O   O7        1.0  0.01370  0.25000  0.96500  1.0000
  O   O8        1.0  0.48600  0.25000  0.96500  1.0000
