data_image0
_chemical_formula_structural       Li3Mn2O6
_chemical_formula_sum              "Li3 Mn2 O6"
_cell_length_a       4.89971
_cell_length_b       4.89971
_cell_length_c       4.96185
_cell_angle_alpha    99.6656
_cell_angle_beta     99.6656
_cell_angle_gamma    119.807

_space_group_name_H-M_alt    "P 1"
_space_group_IT_number       1

loop_
  _space_group_symop_operation_xyz
  'x, y, z'

loop_
  _atom_site_type_symbol
  _atom_site_label
  _atom_site_symmetry_multiplicity
  _atom_site_fract_x
  _atom_site_fract_y
  _atom_site_fract_z
  _atom_site_occupancy
  Li  Li1       1.0  0.64900  0.35100  0.50000  1.0000
  Li  Li2       1.0  0.35100  0.64900  0.50000  1.0000
  Li  Li3       1.0  0.00000  0.00000  0.50000  1.0000
  Mn  Mn1       1.0  0.83200  0.16800  0.00000  1.0000
  Mn  Mn2       1.0  0.16800  0.83200  0.00000  1.0000
  O   O1        1.0  0.94500  0.57900  0.23300  1.0000
  O   O2        1.0  0.57900  0.94500  0.23300  1.0000
  O   O3        1.0  0.21300  0.21300  0.23400  1.0000
  O   O4        1.0  0.78700  0.78700  0.76600  1.0000
  O   O5        1.0  0.42100  0.05520  0.76700  1.0000
  O   O6        1.0  0.05520  0.42100  0.76700  1.0000
