data_image0
_chemical_formula_structural       Co2Li3O6
_chemical_formula_sum              "Co2 Li3 O6"
_cell_length_a       4.87286
_cell_length_b       4.87286
_cell_length_c       4.9224
_cell_angle_alpha    98.6059
_cell_angle_beta     98.6059
_cell_angle_gamma    121.41

_space_group_name_H-M_alt    "P 1"
_space_group_IT_number       1

loop_
  _space_group_symop_operation_xyz
  'x, y, z'

loop_
  _atom_site_type_symbol
  _atom_site_label
  _atom_site_symmetry_multiplicity
  _atom_site_fract_x
  _atom_site_fract_y
  _atom_site_fract_z
  _atom_site_occupancy
  Co  Co1       1.0  0.83900  0.16100  0.00000  1.0000
  Co  Co2       1.0  0.16100  0.83900  0.00000  1.0000
  Li  Li1       1.0  0.50000  0.50000  0.00000  1.0000
  Li  Li2       1.0  0.65900  0.34100  0.50000  1.0000
  Li  Li3       1.0  0.34100  0.65900  0.50000  1.0000
  O   O1        1.0  0.93600  0.56800  0.21900  1.0000
  O   O2        1.0  0.56800  0.93600  0.21900  1.0000
  O   O3        1.0  0.21700  0.21700  0.22200  1.0000
  O   O4        1.0  0.78300  0.78300  0.77900  1.0000
  O   O5        1.0  0.43200  0.06360  0.78100  1.0000
  O   O6        1.0  0.06360  0.43200  0.78100  1.0000
