data_image0
_chemical_formula_structural       Co2H10Mg4
_chemical_formula_sum              "Co2 H10 Mg4"
_cell_length_a       4.39179
_cell_length_b       4.39179
_cell_length_c       6.49669
_cell_angle_alpha    90
_cell_angle_beta     90
_cell_angle_gamma    90

_space_group_name_H-M_alt    "P 1"
_space_group_IT_number       1

loop_
  _space_group_symop_operation_xyz
  'x, y, z'

loop_
  _atom_site_type_symbol
  _atom_site_label
  _atom_site_symmetry_multiplicity
  _atom_site_fract_x
  _atom_site_fract_y
  _atom_site_fract_z
  _atom_site_occupancy
  Co  Co1       1.0  0.25000  0.25000  0.25700  1.0000
  Co  Co2       1.0  0.75000  0.75000  0.74300  1.0000
  H   H1        1.0  0.00483  0.00483  0.22800  1.0000
  H   H2        1.0  0.49500  0.00483  0.22800  1.0000
  H   H3        1.0  0.00483  0.49500  0.22800  1.0000
  H   H4        1.0  0.49500  0.49500  0.22800  1.0000
  H   H5        1.0  0.25000  0.25000  0.49800  1.0000
  H   H6        1.0  0.75000  0.75000  0.50200  1.0000
  H   H7        1.0  0.50500  0.50500  0.77200  1.0000
  H   H8        1.0  0.99500  0.50500  0.77200  1.0000
  H   H9        1.0  0.50500  0.99500  0.77200  1.0000
  H   H10       1.0  0.99500  0.99500  0.77200  1.0000
  Mg  Mg1       1.0  0.75000  0.25000  0.00000  1.0000
  Mg  Mg2       1.0  0.25000  0.75000  0.00000  1.0000
  Mg  Mg3       1.0  0.75000  0.25000  0.50000  1.0000
  Mg  Mg4       1.0  0.25000  0.75000  0.50000  1.0000
