data_image0
_chemical_formula_structural       Li4O6SbV
_chemical_formula_sum              "Li4 O6 Sb1 V1"
_cell_length_a       5.15747
_cell_length_b       5.15748
_cell_length_c       5.14096
_cell_angle_alpha    100.077
_cell_angle_beta     100.077
_cell_angle_gamma    119.293

_space_group_name_H-M_alt    "P 1"
_space_group_IT_number       1

loop_
  _space_group_symop_operation_xyz
  'x, y, z'

loop_
  _atom_site_type_symbol
  _atom_site_label
  _atom_site_symmetry_multiplicity
  _atom_site_fract_x
  _atom_site_fract_y
  _atom_site_fract_z
  _atom_site_occupancy
  Li  Li1       1.0  0.49800  0.50200  0.00000  1.0000
  Li  Li2       1.0  0.99000  0.00960  0.50000  1.0000
  Li  Li3       1.0  0.34600  0.65400  0.50000  1.0000
  Li  Li4       1.0  0.66300  0.33700  0.50000  1.0000
  O   O1        1.0  0.93100  0.58000  0.23000  1.0000
  O   O2        1.0  0.23000  0.22500  0.23600  1.0000
  O   O3        1.0  0.57100  0.92300  0.23900  1.0000
  O   O4        1.0  0.07720  0.42900  0.76100  1.0000
  O   O5        1.0  0.77500  0.77000  0.76400  1.0000
  O   O6        1.0  0.42000  0.06860  0.77000  1.0000
  Sb  Sb1       1.0  0.16800  0.83200  0.00000  1.0000
  V   V1        1.0  0.83000  0.17000  0.00000  1.0000
