data_image0
_chemical_formula_structural       AsCeLi4O6
_chemical_formula_sum              "As1 Ce1 Li4 O6"
_cell_length_a       5.75337
_cell_length_b       5.75337
_cell_length_c       5.08477
_cell_angle_alpha    97.9018
_cell_angle_beta     97.9018
_cell_angle_gamma    125.287

_space_group_name_H-M_alt    "P 1"
_space_group_IT_number       1

loop_
  _space_group_symop_operation_xyz
  'x, y, z'

loop_
  _atom_site_type_symbol
  _atom_site_label
  _atom_site_symmetry_multiplicity
  _atom_site_fract_x
  _atom_site_fract_y
  _atom_site_fract_z
  _atom_site_occupancy
  As  As1       1.0  0.16500  0.83500  0.00000  1.0000
  Ce  Ce1       1.0  0.84700  0.15300  0.00000  1.0000
  Li  Li1       1.0  0.53200  0.46800  0.00000  1.0000
  Li  Li2       1.0  0.64200  0.35800  0.50000  1.0000
  Li  Li3       1.0  0.28100  0.71900  0.50000  1.0000
  Li  Li4       1.0  0.04930  0.95100  0.50000  1.0000
  O   O1        1.0  0.93100  0.61100  0.22000  1.0000
  O   O2        1.0  0.25300  0.18000  0.23100  1.0000
  O   O3        1.0  0.49200  0.90100  0.23900  1.0000
  O   O4        1.0  0.09900  0.50800  0.76100  1.0000
  O   O5        1.0  0.82000  0.74700  0.76900  1.0000
  O   O6        1.0  0.38900  0.06930  0.78000  1.0000
