data_image0
_chemical_formula_structural       CoLi4O6W
_chemical_formula_sum              "Co1 Li4 O6 W1"
_cell_length_a       5.06931
_cell_length_b       5.06931
_cell_length_c       5.07095
_cell_angle_alpha    99.637
_cell_angle_beta     99.637
_cell_angle_gamma    119.991

_space_group_name_H-M_alt    "P 1"
_space_group_IT_number       1

loop_
  _space_group_symop_operation_xyz
  'x, y, z'

loop_
  _atom_site_type_symbol
  _atom_site_label
  _atom_site_symmetry_multiplicity
  _atom_site_fract_x
  _atom_site_fract_y
  _atom_site_fract_z
  _atom_site_occupancy
  Co  Co1       1.0  0.83500  0.16500  0.00000  1.0000
  Li  Li1       1.0  0.50000  0.50000  0.00000  1.0000
  Li  Li2       1.0  0.99400  0.00625  0.50000  1.0000
  Li  Li3       1.0  0.66300  0.33700  0.50000  1.0000
  Li  Li4       1.0  0.34400  0.65600  0.50000  1.0000
  O   O1        1.0  0.93400  0.60100  0.23400  1.0000
  O   O2        1.0  0.56000  0.91500  0.23700  1.0000
  O   O3        1.0  0.24600  0.22600  0.23900  1.0000
  O   O4        1.0  0.77400  0.75400  0.76100  1.0000
  O   O5        1.0  0.08490  0.44000  0.76300  1.0000
  O   O6        1.0  0.39900  0.06610  0.76600  1.0000
  W   W1        1.0  0.16600  0.83400  0.00000  1.0000
