data_image0
_chemical_formula_structural       Co2Mg3Nd4
_chemical_formula_sum              "Co2 Mg3 Nd4"
_cell_length_a       7.64783
_cell_length_b       3.80341
_cell_length_c       8.31827
_cell_angle_alpha    90
_cell_angle_beta     109.787
_cell_angle_gamma    90

_space_group_name_H-M_alt    "P 1"
_space_group_IT_number       1

loop_
  _space_group_symop_operation_xyz
  'x, y, z'

loop_
  _atom_site_type_symbol
  _atom_site_label
  _atom_site_symmetry_multiplicity
  _atom_site_fract_x
  _atom_site_fract_y
  _atom_site_fract_z
  _atom_site_occupancy
  Co  Co1       1.0  0.64900  0.00000  0.10600  1.0000
  Co  Co2       1.0  0.35100  0.00000  0.89400  1.0000
  Mg  Mg1       1.0  0.00000  0.00000  0.00000  1.0000
  Mg  Mg2       1.0  0.70700  0.00000  0.49900  1.0000
  Mg  Mg3       1.0  0.29300  0.00000  0.50100  1.0000
  Nd  Nd1       1.0  0.39600  0.50000  0.18300  1.0000
  Nd  Nd2       1.0  0.90400  0.50000  0.27600  1.0000
  Nd  Nd3       1.0  0.09560  0.50000  0.72400  1.0000
  Nd  Nd4       1.0  0.60400  0.50000  0.81700  1.0000
