data_image0
_chemical_formula_structural       Co8Li12Nb12O48
_chemical_formula_sum              "Co8 Li12 Nb12 O48"
_cell_length_a       9.84598
_cell_length_b       9.84598
_cell_length_c       9.84598
_cell_angle_alpha    109.471
_cell_angle_beta     109.471
_cell_angle_gamma    109.471

_space_group_name_H-M_alt    "P 1"
_space_group_IT_number       1

loop_
  _space_group_symop_operation_xyz
  'x, y, z'

loop_
  _atom_site_type_symbol
  _atom_site_label
  _atom_site_symmetry_multiplicity
  _atom_site_fract_x
  _atom_site_fract_y
  _atom_site_fract_z
  _atom_site_occupancy
  Co  Co1       1.0  0.00000  0.00000  0.00000  1.0000
  Co  Co2       1.0  0.50000  0.00000  0.00000  1.0000
  Co  Co3       1.0  0.00000  0.50000  0.00000  1.0000
  Co  Co4       1.0  0.50000  0.50000  0.00000  1.0000
  Co  Co5       1.0  0.00000  0.00000  0.50000  1.0000
  Co  Co6       1.0  0.50000  0.00000  0.50000  1.0000
  Co  Co7       1.0  0.00000  0.50000  0.50000  1.0000
  Co  Co8       1.0  0.50000  0.50000  0.50000  1.0000
  Li  Li1       1.0  0.75000  0.37500  0.12500  1.0000
  Li  Li2       1.0  0.87500  0.75000  0.12500  1.0000
  Li  Li3       1.0  0.12500  0.37500  0.25000  1.0000
  Li  Li4       1.0  0.62500  0.87500  0.25000  1.0000
  Li  Li5       1.0  0.25000  0.12500  0.37500  1.0000
  Li  Li6       1.0  0.62500  0.25000  0.37500  1.0000
  Li  Li7       1.0  0.37500  0.75000  0.62500  1.0000
  Li  Li8       1.0  0.75000  0.87500  0.62500  1.0000
  Li  Li9       1.0  0.37500  0.12500  0.75000  1.0000
  Li  Li10      1.0  0.87500  0.62500  0.75000  1.0000
  Li  Li11      1.0  0.12500  0.25000  0.87500  1.0000
  Li  Li12      1.0  0.25000  0.62500  0.87500  1.0000
  Nb  Nb1       1.0  0.25000  0.87500  0.12500  1.0000
  Nb  Nb2       1.0  0.37500  0.25000  0.12500  1.0000
  Nb  Nb3       1.0  0.87500  0.12500  0.25000  1.0000
  Nb  Nb4       1.0  0.37500  0.62500  0.25000  1.0000
  Nb  Nb5       1.0  0.12500  0.75000  0.37500  1.0000
  Nb  Nb6       1.0  0.75000  0.62500  0.37500  1.0000
  Nb  Nb7       1.0  0.87500  0.25000  0.62500  1.0000
  Nb  Nb8       1.0  0.25000  0.37500  0.62500  1.0000
  Nb  Nb9       1.0  0.62500  0.37500  0.75000  1.0000
  Nb  Nb10      1.0  0.12500  0.87500  0.75000  1.0000
  Nb  Nb11      1.0  0.75000  0.12500  0.87500  1.0000
  Nb  Nb12      1.0  0.62500  0.75000  0.87500  1.0000
  O   O1        1.0  0.21700  0.63000  0.04280  1.0000
  O   O2        1.0  0.32600  0.41300  0.04280  1.0000
  O   O3        1.0  0.63000  0.91300  0.08690  1.0000
  O   O4        1.0  0.95700  0.17400  0.08690  1.0000
  O   O5        1.0  0.87000  0.91300  0.08720  1.0000
  O   O6        1.0  0.71700  0.17400  0.08720  1.0000
  O   O7        1.0  0.04280  0.71700  0.13000  1.0000
  O   O8        1.0  0.58700  0.41300  0.13000  1.0000
  O   O9        1.0  0.45700  0.08690  0.17400  1.0000
  O   O10       1.0  0.21700  0.08720  0.17400  1.0000
  O   O11       1.0  0.13000  0.54300  0.21700  1.0000
  O   O12       1.0  0.58700  0.67400  0.21700  1.0000
  O   O13       1.0  0.45700  0.87000  0.28300  1.0000
  O   O14       1.0  0.32600  0.41300  0.28300  1.0000
  O   O15       1.0  0.91300  0.54300  0.32600  1.0000
  O   O16       1.0  0.91300  0.78300  0.32600  1.0000
  O   O17       1.0  0.58700  0.41300  0.37000  1.0000
  O   O18       1.0  0.28300  0.95700  0.37000  1.0000
  O   O19       1.0  0.08690  0.13000  0.41300  1.0000
  O   O20       1.0  0.82600  0.28300  0.41300  1.0000
  O   O21       1.0  0.82600  0.04280  0.41300  1.0000
  O   O22       1.0  0.08720  0.37000  0.41300  1.0000
  O   O23       1.0  0.58700  0.67400  0.45700  1.0000
  O   O24       1.0  0.37000  0.78300  0.45700  1.0000
  O   O25       1.0  0.41300  0.32600  0.54300  1.0000
  O   O26       1.0  0.63000  0.21700  0.54300  1.0000
  O   O27       1.0  0.91300  0.63000  0.58700  1.0000
  O   O28       1.0  0.17400  0.95700  0.58700  1.0000
  O   O29       1.0  0.91300  0.87000  0.58700  1.0000
  O   O30       1.0  0.17400  0.71700  0.58700  1.0000
  O   O31       1.0  0.41300  0.58700  0.63000  1.0000
  O   O32       1.0  0.71700  0.04280  0.63000  1.0000
  O   O33       1.0  0.08720  0.21700  0.67400  1.0000
  O   O34       1.0  0.08690  0.45700  0.67400  1.0000
  O   O35       1.0  0.67400  0.58700  0.71700  1.0000
  O   O36       1.0  0.54300  0.13000  0.71700  1.0000
  O   O37       1.0  0.41300  0.32600  0.78300  1.0000
  O   O38       1.0  0.87000  0.45700  0.78300  1.0000
  O   O39       1.0  0.78300  0.91300  0.82600  1.0000
  O   O40       1.0  0.54300  0.91300  0.82600  1.0000
  O   O41       1.0  0.95700  0.28300  0.87000  1.0000
  O   O42       1.0  0.41300  0.58700  0.87000  1.0000
  O   O43       1.0  0.28300  0.82600  0.91300  1.0000
  O   O44       1.0  0.13000  0.08690  0.91300  1.0000
  O   O45       1.0  0.04280  0.82600  0.91300  1.0000
  O   O46       1.0  0.37000  0.08720  0.91300  1.0000
  O   O47       1.0  0.78300  0.37000  0.95700  1.0000
  O   O48       1.0  0.67400  0.58700  0.95700  1.0000
