data_image0
_chemical_formula_structural       Co4Ga14Mg6
_chemical_formula_sum              "Co4 Ga14 Mg6"
_cell_length_a       6.53976
_cell_length_b       6.53976
_cell_length_c       9.38952
_cell_angle_alpha    92.3933
_cell_angle_beta     92.3933
_cell_angle_gamma    92.1646

_space_group_name_H-M_alt    "P 1"
_space_group_IT_number       1

loop_
  _space_group_symop_operation_xyz
  'x, y, z'

loop_
  _atom_site_type_symbol
  _atom_site_label
  _atom_site_symmetry_multiplicity
  _atom_site_fract_x
  _atom_site_fract_y
  _atom_site_fract_z
  _atom_site_occupancy
  Co  Co1       1.0  0.03090  0.48400  0.14500  1.0000
  Co  Co2       1.0  0.51600  0.96900  0.35500  1.0000
  Co  Co3       1.0  0.48400  0.03090  0.64500  1.0000
  Co  Co4       1.0  0.96900  0.51600  0.85500  1.0000
  Ga  Ga1       1.0  0.69300  0.43600  0.01840  1.0000
  Ga  Ga2       1.0  0.94500  0.80900  0.02580  1.0000
  Ga  Ga3       1.0  0.55500  0.89100  0.10200  1.0000
  Ga  Ga4       1.0  0.22900  0.77100  0.25000  1.0000
  Ga  Ga5       1.0  0.10900  0.44500  0.39800  1.0000
  Ga  Ga6       1.0  0.19100  0.05470  0.47400  1.0000
  Ga  Ga7       1.0  0.56400  0.30700  0.48200  1.0000
  Ga  Ga8       1.0  0.43600  0.69300  0.51800  1.0000
  Ga  Ga9       1.0  0.80900  0.94500  0.52600  1.0000
  Ga  Ga10      1.0  0.89100  0.55500  0.60200  1.0000
  Ga  Ga11      1.0  0.77100  0.22900  0.75000  1.0000
  Ga  Ga12      1.0  0.44500  0.10900  0.89800  1.0000
  Ga  Ga13      1.0  0.05470  0.19100  0.97400  1.0000
  Ga  Ga14      1.0  0.30700  0.56400  0.98200  1.0000
  Mg  Mg1       1.0  0.36000  0.25500  0.19700  1.0000
  Mg  Mg2       1.0  0.85200  0.14800  0.25000  1.0000
  Mg  Mg3       1.0  0.74500  0.64000  0.30300  1.0000
  Mg  Mg4       1.0  0.25500  0.36000  0.69700  1.0000
  Mg  Mg5       1.0  0.14800  0.85200  0.75000  1.0000
  Mg  Mg6       1.0  0.64000  0.74500  0.80300  1.0000
