data_image0
_chemical_formula_structural       CoLi4O6Sb
_chemical_formula_sum              "Co1 Li4 O6 Sb1"
_cell_length_a       5.12898
_cell_length_b       5.12898
_cell_length_c       5.12536
_cell_angle_alpha    99.8853
_cell_angle_beta     99.8853
_cell_angle_gamma    119.724

_space_group_name_H-M_alt    "P 1"
_space_group_IT_number       1

loop_
  _space_group_symop_operation_xyz
  'x, y, z'

loop_
  _atom_site_type_symbol
  _atom_site_label
  _atom_site_symmetry_multiplicity
  _atom_site_fract_x
  _atom_site_fract_y
  _atom_site_fract_z
  _atom_site_occupancy
  Co  Co1       1.0  0.83200  0.16800  0.00000  1.0000
  Li  Li1       1.0  0.50000  0.50000  0.00000  1.0000
  Li  Li2       1.0  0.98700  0.01280  0.50000  1.0000
  Li  Li3       1.0  0.66500  0.33500  0.50000  1.0000
  Li  Li4       1.0  0.34500  0.65500  0.50000  1.0000
  O   O1        1.0  0.92900  0.57700  0.22900  1.0000
  O   O2        1.0  0.22600  0.22300  0.23500  1.0000
  O   O3        1.0  0.57500  0.92700  0.23800  1.0000
  O   O4        1.0  0.07310  0.42500  0.76200  1.0000
  O   O5        1.0  0.77700  0.77400  0.76500  1.0000
  O   O6        1.0  0.42300  0.07080  0.77100  1.0000
  Sb  Sb1       1.0  0.16800  0.83200  0.00000  1.0000
