data_image0
_chemical_formula_structural       Co6LiP4
_chemical_formula_sum              "Co6 Li1 P4"
_cell_length_a       6.52952
_cell_length_b       6.53017
_cell_length_c       3.31195
_cell_angle_alpha    90
_cell_angle_beta     90
_cell_angle_gamma    119.997

_space_group_name_H-M_alt    "P 1"
_space_group_IT_number       1

loop_
  _space_group_symop_operation_xyz
  'x, y, z'

loop_
  _atom_site_type_symbol
  _atom_site_label
  _atom_site_symmetry_multiplicity
  _atom_site_fract_x
  _atom_site_fract_y
  _atom_site_fract_z
  _atom_site_occupancy
  Co  Co1       1.0  0.53600  0.07220  0.00000  1.0000
  Co  Co2       1.0  0.53600  0.46400  0.00000  1.0000
  Co  Co3       1.0  0.92800  0.46400  0.00000  1.0000
  Co  Co4       1.0  0.20000  0.39900  0.50000  1.0000
  Co  Co5       1.0  0.20000  0.80000  0.50000  1.0000
  Co  Co6       1.0  0.60100  0.80000  0.50000  1.0000
  Li  Li1       1.0  0.00000  0.00000  0.00000  1.0000
  P   P1        1.0  0.33300  0.66700  0.00000  1.0000
  P   P2        1.0  0.36700  0.18300  0.50000  1.0000
  P   P3        1.0  0.81700  0.18300  0.50000  1.0000
  P   P4        1.0  0.81700  0.63300  0.50000  1.0000
