data_image0
_chemical_formula_structural       CoLi4O6V
_chemical_formula_sum              "Co1 Li4 O6 V1"
_cell_length_a       4.90712
_cell_length_b       4.90712
_cell_length_c       4.98276
_cell_angle_alpha    99.5616
_cell_angle_beta     99.5616
_cell_angle_gamma    119.969

_space_group_name_H-M_alt    "P 1"
_space_group_IT_number       1

loop_
  _space_group_symop_operation_xyz
  'x, y, z'

loop_
  _atom_site_type_symbol
  _atom_site_label
  _atom_site_symmetry_multiplicity
  _atom_site_fract_x
  _atom_site_fract_y
  _atom_site_fract_z
  _atom_site_occupancy
  Co  Co1       1.0  0.83300  0.16700  0.00000  1.0000
  Li  Li1       1.0  0.50000  0.50000  0.00000  1.0000
  Li  Li2       1.0  0.99500  0.00493  0.50000  1.0000
  Li  Li3       1.0  0.66100  0.33900  0.50000  1.0000
  Li  Li4       1.0  0.34200  0.65800  0.50000  1.0000
  O   O1        1.0  0.93500  0.58200  0.22600  1.0000
  O   O2        1.0  0.57200  0.93000  0.22700  1.0000
  O   O3        1.0  0.22400  0.21900  0.23000  1.0000
  O   O4        1.0  0.78100  0.77600  0.77000  1.0000
  O   O5        1.0  0.07000  0.42800  0.77300  1.0000
  O   O6        1.0  0.41800  0.06480  0.77400  1.0000
  V   V1        1.0  0.16800  0.83200  0.00000  1.0000
