data_image0
_chemical_formula_structural       Cl4H8Na4O20
_chemical_formula_sum              "Cl4 H8 Na4 O20"
_cell_length_a       5.36384
_cell_length_b       7.91212
_cell_length_c       10.6606
_cell_angle_alpha    109.816
_cell_angle_beta     90
_cell_angle_gamma    109.814

_space_group_name_H-M_alt    "P 1"
_space_group_IT_number       1

loop_
  _space_group_symop_operation_xyz
  'x, y, z'

loop_
  _atom_site_type_symbol
  _atom_site_label
  _atom_site_symmetry_multiplicity
  _atom_site_fract_x
  _atom_site_fract_y
  _atom_site_fract_z
  _atom_site_occupancy
  Cl  Cl1       1.0  0.09580  0.25300  0.19400  1.0000
  Cl  Cl2       1.0  0.84300  0.74700  0.30600  1.0000
  Cl  Cl3       1.0  0.15700  0.25300  0.69400  1.0000
  Cl  Cl4       1.0  0.90400  0.74700  0.80600  1.0000
  H   H1        1.0  0.54900  0.21200  0.02750  1.0000
  H   H2        1.0  0.55900  0.70900  0.06890  1.0000
  H   H3        1.0  0.84900  0.29100  0.43100  1.0000
  H   H4        1.0  0.33600  0.78800  0.47200  1.0000
  H   H5        1.0  0.66400  0.21200  0.52800  1.0000
  H   H6        1.0  0.15100  0.70900  0.56900  1.0000
  H   H7        1.0  0.44100  0.29100  0.93100  1.0000
  H   H8        1.0  0.45100  0.78800  0.97200  1.0000
  Na  Na1       1.0  0.00000  0.50000  0.00000  1.0000
  Na  Na2       1.0  0.45400  0.00000  0.25000  1.0000
  Na  Na3       1.0  0.50000  0.50000  0.50000  1.0000
  Na  Na4       1.0  0.54600  0.00000  0.75000  1.0000
  O   O1        1.0  0.40900  0.74500  0.04840  1.0000
  O   O2        1.0  0.23400  0.12000  0.13300  1.0000
  O   O3        1.0  0.81100  0.15700  0.14800  1.0000
  O   O4        1.0  0.20300  0.42200  0.15800  1.0000
  O   O5        1.0  0.82800  0.69200  0.16000  1.0000
  O   O6        1.0  0.13600  0.30800  0.34000  1.0000
  O   O7        1.0  0.78100  0.57800  0.34200  1.0000
  O   O8        1.0  0.65400  0.84300  0.35200  1.0000
  O   O9        1.0  0.11400  0.88000  0.36700  1.0000
  O   O10       1.0  0.66400  0.25500  0.45200  1.0000
  O   O11       1.0  0.33600  0.74500  0.54800  1.0000
  O   O12       1.0  0.88600  0.12000  0.63300  1.0000
  O   O13       1.0  0.34600  0.15700  0.64800  1.0000
  O   O14       1.0  0.21900  0.42200  0.65800  1.0000
  O   O15       1.0  0.86400  0.69200  0.66000  1.0000
  O   O16       1.0  0.17200  0.30800  0.84000  1.0000
  O   O17       1.0  0.79700  0.57800  0.84200  1.0000
  O   O18       1.0  0.18900  0.84300  0.85200  1.0000
  O   O19       1.0  0.76600  0.88000  0.86700  1.0000
  O   O20       1.0  0.59100  0.25500  0.95200  1.0000
