data_image0
_chemical_formula_structural       Hf4S20Y8
_chemical_formula_sum              "Hf4 S20 Y8"
_cell_length_a       11.5279
_cell_length_b       7.73504
_cell_length_c       7.25241
_cell_angle_alpha    90
_cell_angle_beta     90
_cell_angle_gamma    90

_space_group_name_H-M_alt    "P 1"
_space_group_IT_number       1

loop_
  _space_group_symop_operation_xyz
  'x, y, z'

loop_
  _atom_site_type_symbol
  _atom_site_label
  _atom_site_symmetry_multiplicity
  _atom_site_fract_x
  _atom_site_fract_y
  _atom_site_fract_z
  _atom_site_occupancy
  Hf  Hf1       1.0  0.49400  0.75000  0.07590  1.0000
  Hf  Hf2       1.0  0.99400  0.75000  0.42400  1.0000
  Hf  Hf3       1.0  0.00628  0.25000  0.57600  1.0000
  Hf  Hf4       1.0  0.50600  0.25000  0.92400  1.0000
  S   S1        1.0  0.99600  0.75000  0.05360  1.0000
  S   S2        1.0  0.40700  0.03670  0.16100  1.0000
  S   S3        1.0  0.40700  0.46300  0.16100  1.0000
  S   S4        1.0  0.68100  0.25000  0.16700  1.0000
  S   S5        1.0  0.70700  0.75000  0.18800  1.0000
  S   S6        1.0  0.20700  0.75000  0.31200  1.0000
  S   S7        1.0  0.18100  0.25000  0.33300  1.0000
  S   S8        1.0  0.90700  0.03670  0.33900  1.0000
  S   S9        1.0  0.90700  0.46300  0.33900  1.0000
  S   S10       1.0  0.49600  0.75000  0.44600  1.0000
  S   S11       1.0  0.50400  0.25000  0.55400  1.0000
  S   S12       1.0  0.09300  0.53700  0.66100  1.0000
  S   S13       1.0  0.09300  0.96300  0.66100  1.0000
  S   S14       1.0  0.81900  0.75000  0.66700  1.0000
  S   S15       1.0  0.79300  0.25000  0.68800  1.0000
  S   S16       1.0  0.29300  0.25000  0.81200  1.0000
  S   S17       1.0  0.31900  0.75000  0.83300  1.0000
  S   S18       1.0  0.59300  0.53700  0.83900  1.0000
  S   S19       1.0  0.59300  0.96300  0.83900  1.0000
  S   S20       1.0  0.00352  0.25000  0.94600  1.0000
  Y   Y1        1.0  0.17900  0.50300  0.02350  1.0000
  Y   Y2        1.0  0.17900  0.99700  0.02350  1.0000
  Y   Y3        1.0  0.67900  0.50300  0.47700  1.0000
  Y   Y4        1.0  0.67900  0.99700  0.47700  1.0000
  Y   Y5        1.0  0.32100  0.00283  0.52300  1.0000
  Y   Y6        1.0  0.32100  0.49700  0.52300  1.0000
  Y   Y7        1.0  0.82100  0.00283  0.97700  1.0000
  Y   Y8        1.0  0.82100  0.49700  0.97700  1.0000
