data_image0
_chemical_formula_structural       Co4Mg4Pr16
_chemical_formula_sum              "Co4 Mg4 Pr16"
_cell_length_a       9.94679
_cell_length_b       9.94679
_cell_length_c       9.94679
_cell_angle_alpha    120
_cell_angle_beta     90
_cell_angle_gamma    120

_space_group_name_H-M_alt    "P 1"
_space_group_IT_number       1

loop_
  _space_group_symop_operation_xyz
  'x, y, z'

loop_
  _atom_site_type_symbol
  _atom_site_label
  _atom_site_symmetry_multiplicity
  _atom_site_fract_x
  _atom_site_fract_y
  _atom_site_fract_z
  _atom_site_occupancy
  Co  Co1       1.0  0.42200  0.28200  0.14100  1.0000
  Co  Co2       1.0  0.85900  0.28200  0.14100  1.0000
  Co  Co3       1.0  0.85900  0.71800  0.14100  1.0000
  Co  Co4       1.0  0.85900  0.71800  0.57800  1.0000
  Mg  Mg1       1.0  0.42100  0.84300  0.26400  1.0000
  Mg  Mg2       1.0  0.42100  0.15700  0.57900  1.0000
  Mg  Mg3       1.0  0.73600  0.15700  0.57900  1.0000
  Mg  Mg4       1.0  0.42100  0.84300  0.57900  1.0000
  Pr  Pr1       1.0  0.18800  0.00000  0.18800  1.0000
  Pr  Pr2       1.0  0.81200  0.00000  0.18800  1.0000
  Pr  Pr3       1.0  0.18800  0.37600  0.18800  1.0000
  Pr  Pr4       1.0  0.65500  0.31100  0.34500  1.0000
  Pr  Pr5       1.0  0.03380  0.68900  0.34500  1.0000
  Pr  Pr6       1.0  0.65500  0.68900  0.34500  1.0000
  Pr  Pr7       1.0  0.06140  0.12300  0.56100  1.0000
  Pr  Pr8       1.0  0.06140  0.50000  0.56100  1.0000
  Pr  Pr9       1.0  0.43900  0.50000  0.56100  1.0000
  Pr  Pr10      1.0  0.18800  1.00000  0.81200  1.0000
  Pr  Pr11      1.0  0.81200  1.00000  0.81200  1.0000
  Pr  Pr12      1.0  0.81200  0.62400  0.81200  1.0000
  Pr  Pr13      1.0  0.06140  0.50000  0.93900  1.0000
  Pr  Pr14      1.0  0.43900  0.50000  0.93900  1.0000
  Pr  Pr15      1.0  0.43900  0.87700  0.93900  1.0000
  Pr  Pr16      1.0  0.65500  0.31100  0.96600  1.0000
