data_image0
_chemical_formula_structural       Cu16S16Sn4
_chemical_formula_sum              "Cu16 S16 Sn4"
_cell_length_a       13.5586
_cell_length_b       7.65735
_cell_length_c       6.46205
_cell_angle_alpha    90
_cell_angle_beta     90
_cell_angle_gamma    90

_space_group_name_H-M_alt    "P 1"
_space_group_IT_number       1

loop_
  _space_group_symop_operation_xyz
  'x, y, z'

loop_
  _atom_site_type_symbol
  _atom_site_label
  _atom_site_symmetry_multiplicity
  _atom_site_fract_x
  _atom_site_fract_y
  _atom_site_fract_z
  _atom_site_occupancy
  Cu  Cu1       1.0  0.16500  0.75000  0.06650  1.0000
  Cu  Cu2       1.0  0.57300  0.75000  0.09880  1.0000
  Cu  Cu3       1.0  0.33400  0.51200  0.11700  1.0000
  Cu  Cu4       1.0  0.33400  0.98800  0.11700  1.0000
  Cu  Cu5       1.0  0.83400  0.51200  0.38300  1.0000
  Cu  Cu6       1.0  0.83400  0.98800  0.38300  1.0000
  Cu  Cu7       1.0  0.07260  0.75000  0.40100  1.0000
  Cu  Cu8       1.0  0.66500  0.75000  0.43400  1.0000
  Cu  Cu9       1.0  0.33500  0.25000  0.56600  1.0000
  Cu  Cu10      1.0  0.92700  0.25000  0.59900  1.0000
  Cu  Cu11      1.0  0.16600  0.01180  0.61700  1.0000
  Cu  Cu12      1.0  0.16600  0.48800  0.61700  1.0000
  Cu  Cu13      1.0  0.66600  0.01180  0.88300  1.0000
  Cu  Cu14      1.0  0.66600  0.48800  0.88300  1.0000
  Cu  Cu15      1.0  0.42700  0.25000  0.90100  1.0000
  Cu  Cu16      1.0  0.83500  0.25000  0.93400  1.0000
  S   S1        1.0  0.41900  0.75000  0.22900  1.0000
  S   S2        1.0  0.67600  0.50200  0.24200  1.0000
  S   S3        1.0  0.67600  0.99800  0.24200  1.0000
  S   S4        1.0  0.90900  0.25000  0.24800  1.0000
  S   S5        1.0  0.40900  0.25000  0.25200  1.0000
  S   S6        1.0  0.17600  0.50200  0.25800  1.0000
  S   S7        1.0  0.17600  0.99800  0.25800  1.0000
  S   S8        1.0  0.91900  0.75000  0.27100  1.0000
  S   S9        1.0  0.08140  0.25000  0.72900  1.0000
  S   S10       1.0  0.82400  0.00244  0.74200  1.0000
  S   S11       1.0  0.82400  0.49800  0.74200  1.0000
  S   S12       1.0  0.59100  0.75000  0.74800  1.0000
  S   S13       1.0  0.09080  0.75000  0.75200  1.0000
  S   S14       1.0  0.32400  0.00244  0.75800  1.0000
  S   S15       1.0  0.32400  0.49800  0.75800  1.0000
  S   S16       1.0  0.58100  0.25000  0.77100  1.0000
  Sn  Sn1       1.0  0.08240  0.25000  0.11300  1.0000
  Sn  Sn2       1.0  0.58200  0.25000  0.38700  1.0000
  Sn  Sn3       1.0  0.41800  0.75000  0.61300  1.0000
  Sn  Sn4       1.0  0.91800  0.75000  0.88700  1.0000
