data_image0
_chemical_formula_structural       Li2Nd2O24P8
_chemical_formula_sum              "Li2 Nd2 O24 P8"
_cell_length_a       6.9887
_cell_length_b       8.87526
_cell_length_c       8.91677
_cell_angle_alpha    95.7548
_cell_angle_beta     113.072
_cell_angle_gamma    113.186

_space_group_name_H-M_alt    "P 1"
_space_group_IT_number       1

loop_
  _space_group_symop_operation_xyz
  'x, y, z'

loop_
  _atom_site_type_symbol
  _atom_site_label
  _atom_site_symmetry_multiplicity
  _atom_site_fract_x
  _atom_site_fract_y
  _atom_site_fract_z
  _atom_site_occupancy
  Li  Li1       1.0  0.45200  0.75000  0.25000  1.0000
  Li  Li2       1.0  0.54800  0.25000  0.75000  1.0000
  Nd  Nd1       1.0  0.95200  0.75000  0.25000  1.0000
  Nd  Nd2       1.0  0.04800  0.25000  0.75000  1.0000
  O   O1        1.0  0.16400  0.31800  0.05330  1.0000
  O   O2        1.0  0.80700  0.26200  0.08490  1.0000
  O   O3        1.0  0.56200  0.72900  0.08530  1.0000
  O   O4        1.0  0.47400  0.13500  0.14900  1.0000
  O   O5        1.0  0.14000  0.57300  0.19800  1.0000
  O   O6        1.0  0.70800  0.46300  0.23000  1.0000
  O   O7        1.0  0.01590  0.03740  0.27000  1.0000
  O   O8        1.0  0.36800  0.92700  0.30200  1.0000
  O   O9        1.0  0.19100  0.36500  0.35100  1.0000
  O   O10       1.0  0.74800  0.77100  0.41500  1.0000
  O   O11       1.0  0.46000  0.23800  0.41500  1.0000
  O   O12       1.0  0.79200  0.18200  0.44700  1.0000
  O   O13       1.0  0.20800  0.81800  0.55300  1.0000
  O   O14       1.0  0.54000  0.76200  0.58500  1.0000
  O   O15       1.0  0.25200  0.22900  0.58500  1.0000
  O   O16       1.0  0.80900  0.63500  0.64900  1.0000
  O   O17       1.0  0.63200  0.07320  0.69800  1.0000
  O   O18       1.0  0.98400  0.96300  0.73000  1.0000
  O   O19       1.0  0.29200  0.53700  0.77000  1.0000
  O   O20       1.0  0.86000  0.42700  0.80200  1.0000
  O   O21       1.0  0.52600  0.86500  0.85100  1.0000
  O   O22       1.0  0.43800  0.27100  0.91500  1.0000
  O   O23       1.0  0.19300  0.73800  0.91500  1.0000
  O   O24       1.0  0.83600  0.68200  0.94700  1.0000
  P   P1        1.0  0.60200  0.29700  0.09610  1.0000
  P   P2        1.0  0.08420  0.38700  0.16400  1.0000
  P   P3        1.0  0.53300  0.11300  0.33600  1.0000
  P   P4        1.0  0.20900  0.20300  0.40400  1.0000
  P   P5        1.0  0.79100  0.79700  0.59600  1.0000
  P   P6        1.0  0.46700  0.88700  0.66400  1.0000
  P   P7        1.0  0.91600  0.61300  0.83600  1.0000
  P   P8        1.0  0.39800  0.70300  0.90400  1.0000
