data_image0
_chemical_formula_structural       Al12CoMg16
_chemical_formula_sum              "Al12 Co1 Mg16"
_cell_length_a       9.22858
_cell_length_b       8.94137
_cell_length_c       8.94137
_cell_angle_alpha    108.811
_cell_angle_beta     110.123
_cell_angle_gamma    110.123

_space_group_name_H-M_alt    "P 1"
_space_group_IT_number       1

loop_
  _space_group_symop_operation_xyz
  'x, y, z'

loop_
  _atom_site_type_symbol
  _atom_site_label
  _atom_site_symmetry_multiplicity
  _atom_site_fract_x
  _atom_site_fract_y
  _atom_site_fract_z
  _atom_site_occupancy
  Al  Al1       1.0  0.81200  0.60800  0.00000  1.0000
  Al  Al2       1.0  0.65200  0.80900  0.00000  1.0000
  Al  Al3       1.0  0.18600  0.82100  0.17900  1.0000
  Al  Al4       1.0  0.36500  0.35800  0.17900  1.0000
  Al  Al5       1.0  0.84300  0.19100  0.19100  1.0000
  Al  Al6       1.0  0.36500  0.17900  0.35800  1.0000
  Al  Al7       1.0  0.20300  0.39200  0.39200  1.0000
  Al  Al8       1.0  0.81200  0.00000  0.60800  1.0000
  Al  Al9       1.0  0.00670  0.82100  0.64200  1.0000
  Al  Al10      1.0  0.65200  0.00000  0.80900  1.0000
  Al  Al11      1.0  0.18600  0.17900  0.82100  1.0000
  Al  Al12      1.0  0.00670  0.64200  0.82100  1.0000
  Co  Co1       1.0  0.26200  0.00000  0.00000  1.0000
  Mg  Mg1       1.0  0.99100  0.00000  0.00000  1.0000
  Mg  Mg2       1.0  0.56500  0.25500  0.00000  1.0000
  Mg  Mg3       1.0  0.00322  0.35500  0.00000  1.0000
  Mg  Mg4       1.0  0.31900  0.59100  0.00000  1.0000
  Mg  Mg5       1.0  0.56500  0.00000  0.25500  1.0000
  Mg  Mg6       1.0  0.68200  0.67200  0.27400  1.0000
  Mg  Mg7       1.0  0.01020  0.60200  0.32800  1.0000
  Mg  Mg8       1.0  0.00322  0.00000  0.35500  1.0000
  Mg  Mg9       1.0  0.40800  0.72600  0.39800  1.0000
  Mg  Mg10      1.0  0.72800  0.40900  0.40900  1.0000
  Mg  Mg11      1.0  0.31900  0.00000  0.59100  1.0000
  Mg  Mg12      1.0  0.01020  0.32800  0.60200  1.0000
  Mg  Mg13      1.0  0.64800  0.64500  0.64500  1.0000
  Mg  Mg14      1.0  0.68200  0.27400  0.67200  1.0000
  Mg  Mg15      1.0  0.40800  0.39800  0.72600  1.0000
  Mg  Mg16      1.0  0.31000  0.74500  0.74500  1.0000
