data_image0
_chemical_formula_structural       Co8Li12Mo12O48
_chemical_formula_sum              "Co8 Li12 Mo12 O48"
_cell_length_a       9.756
_cell_length_b       9.756
_cell_length_c       9.756
_cell_angle_alpha    109.471
_cell_angle_beta     109.471
_cell_angle_gamma    109.471

_space_group_name_H-M_alt    "P 1"
_space_group_IT_number       1

loop_
  _space_group_symop_operation_xyz
  'x, y, z'

loop_
  _atom_site_type_symbol
  _atom_site_label
  _atom_site_symmetry_multiplicity
  _atom_site_fract_x
  _atom_site_fract_y
  _atom_site_fract_z
  _atom_site_occupancy
  Co  Co1       1.0  0.00000  0.00000  0.00000  1.0000
  Co  Co2       1.0  0.50000  0.00000  0.00000  1.0000
  Co  Co3       1.0  0.00000  0.50000  0.00000  1.0000
  Co  Co4       1.0  0.50000  0.50000  0.00000  1.0000
  Co  Co5       1.0  0.00000  0.00000  0.50000  1.0000
  Co  Co6       1.0  0.50000  0.50000  0.50000  1.0000
  Co  Co7       1.0  0.50000  0.00000  0.50000  1.0000
  Co  Co8       1.0  0.00000  0.50000  0.50000  1.0000
  Li  Li1       1.0  0.75000  0.37500  0.12500  1.0000
  Li  Li2       1.0  0.87500  0.75000  0.12500  1.0000
  Li  Li3       1.0  0.12500  0.37500  0.25000  1.0000
  Li  Li4       1.0  0.62500  0.87500  0.25000  1.0000
  Li  Li5       1.0  0.25000  0.12500  0.37500  1.0000
  Li  Li6       1.0  0.62500  0.25000  0.37500  1.0000
  Li  Li7       1.0  0.75000  0.87500  0.62500  1.0000
  Li  Li8       1.0  0.37500  0.75000  0.62500  1.0000
  Li  Li9       1.0  0.37500  0.12500  0.75000  1.0000
  Li  Li10      1.0  0.87500  0.62500  0.75000  1.0000
  Li  Li11      1.0  0.12500  0.25000  0.87500  1.0000
  Li  Li12      1.0  0.25000  0.62500  0.87500  1.0000
  Mo  Mo1       1.0  0.37500  0.25000  0.12500  1.0000
  Mo  Mo2       1.0  0.25000  0.87500  0.12500  1.0000
  Mo  Mo3       1.0  0.37500  0.62500  0.25000  1.0000
  Mo  Mo4       1.0  0.87500  0.12500  0.25000  1.0000
  Mo  Mo5       1.0  0.75000  0.62500  0.37500  1.0000
  Mo  Mo6       1.0  0.12500  0.75000  0.37500  1.0000
  Mo  Mo7       1.0  0.25000  0.37500  0.62500  1.0000
  Mo  Mo8       1.0  0.87500  0.25000  0.62500  1.0000
  Mo  Mo9       1.0  0.62500  0.37500  0.75000  1.0000
  Mo  Mo10      1.0  0.12500  0.87500  0.75000  1.0000
  Mo  Mo11      1.0  0.75000  0.12500  0.87500  1.0000
  Mo  Mo12      1.0  0.62500  0.75000  0.87500  1.0000
  O   O1        1.0  0.21900  0.63100  0.04530  1.0000
  O   O2        1.0  0.32600  0.41500  0.04530  1.0000
  O   O3        1.0  0.95500  0.17400  0.08530  1.0000
  O   O4        1.0  0.63100  0.91100  0.08530  1.0000
  O   O5        1.0  0.71900  0.17400  0.08860  1.0000
  O   O6        1.0  0.86900  0.91500  0.08860  1.0000
  O   O7        1.0  0.04530  0.71900  0.13100  1.0000
  O   O8        1.0  0.58500  0.41100  0.13100  1.0000
  O   O9        1.0  0.21900  0.08860  0.17400  1.0000
  O   O10       1.0  0.45500  0.08530  0.17400  1.0000
  O   O11       1.0  0.58900  0.67400  0.21900  1.0000
  O   O12       1.0  0.13100  0.54500  0.21900  1.0000
  O   O13       1.0  0.32600  0.41100  0.28100  1.0000
  O   O14       1.0  0.45500  0.86900  0.28100  1.0000
  O   O15       1.0  0.91100  0.78100  0.32600  1.0000
  O   O16       1.0  0.91500  0.54500  0.32600  1.0000
  O   O17       1.0  0.28100  0.95500  0.36900  1.0000
  O   O18       1.0  0.58900  0.41500  0.36900  1.0000
  O   O19       1.0  0.82600  0.28100  0.41100  1.0000
  O   O20       1.0  0.08530  0.13100  0.41100  1.0000
  O   O21       1.0  0.82600  0.04530  0.41500  1.0000
  O   O22       1.0  0.08860  0.36900  0.41500  1.0000
  O   O23       1.0  0.36900  0.78100  0.45500  1.0000
  O   O24       1.0  0.58500  0.67400  0.45500  1.0000
  O   O25       1.0  0.63100  0.21900  0.54500  1.0000
  O   O26       1.0  0.41500  0.32600  0.54500  1.0000
  O   O27       1.0  0.91100  0.63100  0.58500  1.0000
  O   O28       1.0  0.17400  0.95500  0.58500  1.0000
  O   O29       1.0  0.17400  0.71900  0.58900  1.0000
  O   O30       1.0  0.91500  0.86900  0.58900  1.0000
  O   O31       1.0  0.41100  0.58500  0.63100  1.0000
  O   O32       1.0  0.71900  0.04530  0.63100  1.0000
  O   O33       1.0  0.08860  0.21900  0.67400  1.0000
  O   O34       1.0  0.08530  0.45500  0.67400  1.0000
  O   O35       1.0  0.54500  0.13100  0.71900  1.0000
  O   O36       1.0  0.67400  0.58900  0.71900  1.0000
  O   O37       1.0  0.41100  0.32600  0.78100  1.0000
  O   O38       1.0  0.86900  0.45500  0.78100  1.0000
  O   O39       1.0  0.78100  0.91100  0.82600  1.0000
  O   O40       1.0  0.54500  0.91500  0.82600  1.0000
  O   O41       1.0  0.95500  0.28100  0.86900  1.0000
  O   O42       1.0  0.41500  0.58900  0.86900  1.0000
  O   O43       1.0  0.13100  0.08530  0.91100  1.0000
  O   O44       1.0  0.28100  0.82600  0.91100  1.0000
  O   O45       1.0  0.36900  0.08860  0.91500  1.0000
  O   O46       1.0  0.04530  0.82600  0.91500  1.0000
  O   O47       1.0  0.67400  0.58500  0.95500  1.0000
  O   O48       1.0  0.78100  0.36900  0.95500  1.0000
