data_image0
_chemical_formula_structural       Cl4O16S4Tl4Zn4
_chemical_formula_sum              "Cl4 O16 S4 Tl4 Zn4"
_cell_length_a       7.14601
_cell_length_b       9.54104
_cell_length_c       8.05661
_cell_angle_alpha    90
_cell_angle_beta     93.6563
_cell_angle_gamma    90

_space_group_name_H-M_alt    "P 1"
_space_group_IT_number       1

loop_
  _space_group_symop_operation_xyz
  'x, y, z'

loop_
  _atom_site_type_symbol
  _atom_site_label
  _atom_site_symmetry_multiplicity
  _atom_site_fract_x
  _atom_site_fract_y
  _atom_site_fract_z
  _atom_site_occupancy
  Cl  Cl1       1.0  0.61100  0.32000  0.04720  1.0000
  Cl  Cl2       1.0  0.38900  0.82000  0.45300  1.0000
  Cl  Cl3       1.0  0.61100  0.18000  0.54700  1.0000
  Cl  Cl4       1.0  0.38900  0.68000  0.95300  1.0000
  O   O1        1.0  0.11800  0.35900  0.11200  1.0000
  O   O2        1.0  0.04170  0.88400  0.12900  1.0000
  O   O3        1.0  0.70300  0.92600  0.13800  1.0000
  O   O4        1.0  0.06200  0.58800  0.23800  1.0000
  O   O5        1.0  0.93800  0.08780  0.26200  1.0000
  O   O6        1.0  0.29700  0.42600  0.36200  1.0000
  O   O7        1.0  0.95800  0.38400  0.37100  1.0000
  O   O8        1.0  0.88200  0.85900  0.38800  1.0000
  O   O9        1.0  0.11800  0.14100  0.61200  1.0000
  O   O10       1.0  0.04170  0.61600  0.62900  1.0000
  O   O11       1.0  0.70300  0.57400  0.63800  1.0000
  O   O12       1.0  0.06200  0.91200  0.73800  1.0000
  O   O13       1.0  0.93800  0.41200  0.76200  1.0000
  O   O14       1.0  0.29700  0.07420  0.86200  1.0000
  O   O15       1.0  0.95800  0.11600  0.87100  1.0000
  O   O16       1.0  0.88200  0.64100  0.88800  1.0000
  S   S1        1.0  0.88600  0.93800  0.22700  1.0000
  S   S2        1.0  0.11400  0.43800  0.27300  1.0000
  S   S3        1.0  0.88600  0.56200  0.72700  1.0000
  S   S4        1.0  0.11400  0.06190  0.77300  1.0000
  Tl  Tl1       1.0  0.37000  0.08890  0.21400  1.0000
  Tl  Tl2       1.0  0.63000  0.58900  0.28600  1.0000
  Tl  Tl3       1.0  0.37000  0.41100  0.71400  1.0000
  Tl  Tl4       1.0  0.63000  0.91100  0.78600  1.0000
  Zn  Zn1       1.0  0.10200  0.70100  0.03290  1.0000
  Zn  Zn2       1.0  0.89800  0.20100  0.46700  1.0000
  Zn  Zn3       1.0  0.10200  0.79900  0.53300  1.0000
  Zn  Zn4       1.0  0.89800  0.29900  0.96700  1.0000
