data_image0
_chemical_formula_structural       F16Na4Ti4
_chemical_formula_sum              "F16 Na4 Ti4"
_cell_length_a       4.89353
_cell_length_b       5.66729
_cell_length_c       10.6276
_cell_angle_alpha    90
_cell_angle_beta     90
_cell_angle_gamma    90

_space_group_name_H-M_alt    "P 1"
_space_group_IT_number       1

loop_
  _space_group_symop_operation_xyz
  'x, y, z'

loop_
  _atom_site_type_symbol
  _atom_site_label
  _atom_site_symmetry_multiplicity
  _atom_site_fract_x
  _atom_site_fract_y
  _atom_site_fract_z
  _atom_site_occupancy
  F   F1        1.0  0.32000  0.31500  0.09240  1.0000
  F   F2        1.0  0.18000  0.81500  0.09240  1.0000
  F   F3        1.0  0.74700  0.08900  0.18400  1.0000
  F   F4        1.0  0.75300  0.58900  0.18400  1.0000
  F   F5        1.0  0.25300  0.08900  0.31600  1.0000
  F   F6        1.0  0.24700  0.58900  0.31600  1.0000
  F   F7        1.0  0.68000  0.31500  0.40800  1.0000
  F   F8        1.0  0.82000  0.81500  0.40800  1.0000
  F   F9        1.0  0.18000  0.18500  0.59200  1.0000
  F   F10       1.0  0.32000  0.68500  0.59200  1.0000
  F   F11       1.0  0.75300  0.41100  0.68400  1.0000
  F   F12       1.0  0.74700  0.91100  0.68400  1.0000
  F   F13       1.0  0.24700  0.41100  0.81600  1.0000
  F   F14       1.0  0.25300  0.91100  0.81600  1.0000
  F   F15       1.0  0.82000  0.18500  0.90800  1.0000
  F   F16       1.0  0.68000  0.68500  0.90800  1.0000
  Na  Na1       1.0  0.50000  0.00000  0.00000  1.0000
  Na  Na2       1.0  0.00000  0.50000  0.00000  1.0000
  Na  Na3       1.0  0.50000  0.00000  0.50000  1.0000
  Na  Na4       1.0  0.00000  0.50000  0.50000  1.0000
  Ti  Ti1       1.0  0.50000  0.34600  0.25000  1.0000
  Ti  Ti2       1.0  0.00000  0.84600  0.25000  1.0000
  Ti  Ti3       1.0  0.00000  0.15400  0.75000  1.0000
  Ti  Ti4       1.0  0.50000  0.65400  0.75000  1.0000
