data_image0
_chemical_formula_structural       CoLi4O6Ta
_chemical_formula_sum              "Co1 Li4 O6 Ta1"
_cell_length_a       5.09586
_cell_length_b       5.09586
_cell_length_c       5.07453
_cell_angle_alpha    99.276
_cell_angle_beta     99.276
_cell_angle_gamma    120.402

_space_group_name_H-M_alt    "P 1"
_space_group_IT_number       1

loop_
  _space_group_symop_operation_xyz
  'x, y, z'

loop_
  _atom_site_type_symbol
  _atom_site_label
  _atom_site_symmetry_multiplicity
  _atom_site_fract_x
  _atom_site_fract_y
  _atom_site_fract_z
  _atom_site_occupancy
  Co  Co1       1.0  0.83300  0.16700  0.00000  1.0000
  Li  Li1       1.0  0.50100  0.49900  0.00000  1.0000
  Li  Li2       1.0  0.99300  0.00748  0.50000  1.0000
  Li  Li3       1.0  0.66200  0.33800  0.50000  1.0000
  Li  Li4       1.0  0.34500  0.65500  0.50000  1.0000
  O   O1        1.0  0.58200  0.93000  0.22700  1.0000
  O   O2        1.0  0.93100  0.58600  0.23900  1.0000
  O   O3        1.0  0.23800  0.23100  0.24100  1.0000
  O   O4        1.0  0.76900  0.76200  0.75900  1.0000
  O   O5        1.0  0.41400  0.06880  0.76100  1.0000
  O   O6        1.0  0.07010  0.41800  0.77300  1.0000
  Ta  Ta1       1.0  0.16200  0.83800  0.00000  1.0000
