data_image0
_chemical_formula_structural       CoCrLi4O6
_chemical_formula_sum              "Co1 Cr1 Li4 O6"
_cell_length_a       4.89818
_cell_length_b       4.89818
_cell_length_c       4.98999
_cell_angle_alpha    99.8684
_cell_angle_beta     99.8684
_cell_angle_gamma    119.423

_space_group_name_H-M_alt    "P 1"
_space_group_IT_number       1

loop_
  _space_group_symop_operation_xyz
  'x, y, z'

loop_
  _atom_site_type_symbol
  _atom_site_label
  _atom_site_symmetry_multiplicity
  _atom_site_fract_x
  _atom_site_fract_y
  _atom_site_fract_z
  _atom_site_occupancy
  Co  Co1       1.0  0.83100  0.16900  0.00000  1.0000
  Cr  Cr1       1.0  0.17200  0.82800  0.00000  1.0000
  Li  Li1       1.0  0.50200  0.49800  0.00000  1.0000
  Li  Li2       1.0  0.99600  0.00450  0.50000  1.0000
  Li  Li3       1.0  0.65900  0.34100  0.50000  1.0000
  Li  Li4       1.0  0.34200  0.65800  0.50000  1.0000
  O   O1        1.0  0.57500  0.93400  0.22700  1.0000
  O   O2        1.0  0.21800  0.22300  0.22700  1.0000
  O   O3        1.0  0.92600  0.56400  0.23000  1.0000
  O   O4        1.0  0.43600  0.07440  0.77000  1.0000
  O   O5        1.0  0.77700  0.78200  0.77300  1.0000
  O   O6        1.0  0.06630  0.42500  0.77300  1.0000
