data_image0
_chemical_formula_structural       Cl16Tm8
_chemical_formula_sum              "Cl16 Tm8"
_cell_length_a       7.07282
_cell_length_b       12.2683
_cell_length_c       6.21894
_cell_angle_alpha    90
_cell_angle_beta     90
_cell_angle_gamma    90

_space_group_name_H-M_alt    "P 1"
_space_group_IT_number       1

loop_
  _space_group_symop_operation_xyz
  'x, y, z'

loop_
  _atom_site_type_symbol
  _atom_site_label
  _atom_site_symmetry_multiplicity
  _atom_site_fract_x
  _atom_site_fract_y
  _atom_site_fract_z
  _atom_site_occupancy
  Cl  Cl1       1.0  0.79400  0.54400  0.01980  1.0000
  Cl  Cl2       1.0  0.29400  0.95600  0.01980  1.0000
  Cl  Cl3       1.0  0.12500  0.20800  0.19000  1.0000
  Cl  Cl4       1.0  0.62500  0.29200  0.19000  1.0000
  Cl  Cl5       1.0  0.12500  0.70800  0.31000  1.0000
  Cl  Cl6       1.0  0.62500  0.79200  0.31000  1.0000
  Cl  Cl7       1.0  0.79400  0.04400  0.48000  1.0000
  Cl  Cl8       1.0  0.29400  0.45600  0.48000  1.0000
  Cl  Cl9       1.0  0.70600  0.54400  0.52000  1.0000
  Cl  Cl10      1.0  0.20600  0.95600  0.52000  1.0000
  Cl  Cl11      1.0  0.37500  0.20800  0.69000  1.0000
  Cl  Cl12      1.0  0.87500  0.29200  0.69000  1.0000
  Cl  Cl13      1.0  0.37500  0.70800  0.81000  1.0000
  Cl  Cl14      1.0  0.87500  0.79200  0.81000  1.0000
  Cl  Cl15      1.0  0.70600  0.04400  0.98000  1.0000
  Cl  Cl16      1.0  0.20600  0.45600  0.98000  1.0000
  Tm  Tm1       1.0  0.45200  0.59800  0.17900  1.0000
  Tm  Tm2       1.0  0.95200  0.90200  0.17900  1.0000
  Tm  Tm3       1.0  0.45200  0.09770  0.32100  1.0000
  Tm  Tm4       1.0  0.95200  0.40200  0.32100  1.0000
  Tm  Tm5       1.0  0.04800  0.59800  0.67900  1.0000
  Tm  Tm6       1.0  0.54800  0.90200  0.67900  1.0000
  Tm  Tm7       1.0  0.04800  0.09770  0.82100  1.0000
  Tm  Tm8       1.0  0.54800  0.40200  0.82100  1.0000
