data_image0
_chemical_formula_structural       BiCoLi4O6
_chemical_formula_sum              "Bi1 Co1 Li4 O6"
_cell_length_a       5.24121
_cell_length_b       5.24129
_cell_length_c       5.17835
_cell_angle_alpha    99.6265
_cell_angle_beta     99.6274
_cell_angle_gamma    120.013

_space_group_name_H-M_alt    "P 1"
_space_group_IT_number       1

loop_
  _space_group_symop_operation_xyz
  'x, y, z'

loop_
  _atom_site_type_symbol
  _atom_site_label
  _atom_site_symmetry_multiplicity
  _atom_site_fract_x
  _atom_site_fract_y
  _atom_site_fract_z
  _atom_site_occupancy
  Bi  Bi1       1.0  0.16800  0.83200  0.00000  1.0000
  Co  Co1       1.0  0.83100  0.16900  0.00000  1.0000
  Li  Li1       1.0  0.50000  0.50000  0.00000  1.0000
  Li  Li2       1.0  0.66700  0.33300  0.50000  1.0000
  Li  Li3       1.0  0.98200  0.01810  0.50000  1.0000
  Li  Li4       1.0  0.34800  0.65200  0.50000  1.0000
  O   O1        1.0  0.91800  0.56100  0.23600  1.0000
  O   O2        1.0  0.22400  0.23500  0.23900  1.0000
  O   O3        1.0  0.58900  0.93000  0.24200  1.0000
  O   O4        1.0  0.06980  0.41100  0.75800  1.0000
  O   O5        1.0  0.76500  0.77600  0.76100  1.0000
  O   O6        1.0  0.43900  0.08250  0.76400  1.0000
