data_image0
_chemical_formula_structural       Co2Mg3Tb4
_chemical_formula_sum              "Co2 Mg3 Tb4"
_cell_length_a       7.47605
_cell_length_b       3.72396
_cell_length_c       8.16773
_cell_angle_alpha    90
_cell_angle_beta     109.497
_cell_angle_gamma    90

_space_group_name_H-M_alt    "P 1"
_space_group_IT_number       1

loop_
  _space_group_symop_operation_xyz
  'x, y, z'

loop_
  _atom_site_type_symbol
  _atom_site_label
  _atom_site_symmetry_multiplicity
  _atom_site_fract_x
  _atom_site_fract_y
  _atom_site_fract_z
  _atom_site_occupancy
  Co  Co1       1.0  0.64900  0.00000  0.10700  1.0000
  Co  Co2       1.0  0.35100  0.00000  0.89300  1.0000
  Mg  Mg1       1.0  0.00000  0.00000  0.00000  1.0000
  Mg  Mg2       1.0  0.70800  0.00000  0.49800  1.0000
  Mg  Mg3       1.0  0.29200  0.00000  0.50200  1.0000
  Tb  Tb1       1.0  0.39800  0.50000  0.17900  1.0000
  Tb  Tb2       1.0  0.90300  0.50000  0.27300  1.0000
  Tb  Tb3       1.0  0.09710  0.50000  0.72700  1.0000
  Tb  Tb4       1.0  0.60200  0.50000  0.82100  1.0000
