data_image0
_chemical_formula_structural       Li4NbO6Rh
_chemical_formula_sum              "Li4 Nb1 O6 Rh1"
_cell_length_a       5.06851
_cell_length_b       5.06851
_cell_length_c       5.17602
_cell_angle_alpha    99.3296
_cell_angle_beta     99.3296
_cell_angle_gamma    120.068

_space_group_name_H-M_alt    "P 1"
_space_group_IT_number       1

loop_
  _space_group_symop_operation_xyz
  'x, y, z'

loop_
  _atom_site_type_symbol
  _atom_site_label
  _atom_site_symmetry_multiplicity
  _atom_site_fract_x
  _atom_site_fract_y
  _atom_site_fract_z
  _atom_site_occupancy
  Li  Li1       1.0  0.50100  0.49900  0.00000  1.0000
  Li  Li2       1.0  0.99100  0.00928  0.50000  1.0000
  Li  Li3       1.0  0.66300  0.33700  0.50000  1.0000
  Li  Li4       1.0  0.34600  0.65400  0.50000  1.0000
  Nb  Nb1       1.0  0.16700  0.83300  0.00000  1.0000
  O   O1        1.0  0.24600  0.23900  0.24100  1.0000
  O   O2        1.0  0.92200  0.58700  0.24200  1.0000
  O   O3        1.0  0.57400  0.91500  0.24300  1.0000
  O   O4        1.0  0.08480  0.42600  0.75700  1.0000
  O   O5        1.0  0.41300  0.07830  0.75800  1.0000
  O   O6        1.0  0.76100  0.75400  0.75900  1.0000
  Rh  Rh1       1.0  0.83300  0.16700  0.00000  1.0000
