data_image0
_chemical_formula_structural       As3F21Sn3
_chemical_formula_sum              "As3 F21 Sn3"
_cell_length_a       7.3729
_cell_length_b       7.3729
_cell_length_c       7.3729
_cell_angle_alpha    71.9251
_cell_angle_beta     108.075
_cell_angle_gamma    108.075

_space_group_name_H-M_alt    "P 1"
_space_group_IT_number       1

loop_
  _space_group_symop_operation_xyz
  'x, y, z'

loop_
  _atom_site_type_symbol
  _atom_site_label
  _atom_site_symmetry_multiplicity
  _atom_site_fract_x
  _atom_site_fract_y
  _atom_site_fract_z
  _atom_site_occupancy
  As  As1       1.0  0.00000  0.00000  0.00000  1.0000
  As  As2       1.0  0.70400  0.29600  0.29600  1.0000
  As  As3       1.0  0.29600  0.70400  0.70400  1.0000
  F   F1        1.0  0.77900  0.40700  0.07420  1.0000
  F   F2        1.0  0.16600  0.84900  0.12800  1.0000
  F   F3        1.0  0.83400  0.87200  0.15100  1.0000
  F   F4        1.0  0.12800  0.15100  0.16600  1.0000
  F   F5        1.0  0.48200  0.37100  0.18500  1.0000
  F   F6        1.0  0.59300  0.07420  0.22100  1.0000
  F   F7        1.0  0.50000  0.68600  0.31400  1.0000
  F   F8        1.0  0.81500  0.51800  0.37100  1.0000
  F   F9        1.0  0.92600  0.22100  0.40700  1.0000
  F   F10       1.0  0.18500  0.62900  0.48200  1.0000
  F   F11       1.0  0.31400  0.31400  0.50000  1.0000
  F   F12       1.0  0.62900  0.18500  0.51800  1.0000
  F   F13       1.0  0.22100  0.92600  0.59300  1.0000
  F   F14       1.0  0.51800  0.81500  0.62900  1.0000
  F   F15       1.0  0.68600  0.50000  0.68600  1.0000
  F   F16       1.0  0.07420  0.59300  0.77900  1.0000
  F   F17       1.0  0.37100  0.48200  0.81500  1.0000
  F   F18       1.0  0.15100  0.12800  0.83400  1.0000
  F   F19       1.0  0.87200  0.83400  0.84900  1.0000
  F   F20       1.0  0.84900  0.16600  0.87200  1.0000
  F   F21       1.0  0.40700  0.77900  0.92600  1.0000
  Sn  Sn1       1.0  0.22200  0.50000  0.22200  1.0000
  Sn  Sn2       1.0  0.77800  0.77800  0.50000  1.0000
  Sn  Sn3       1.0  0.50000  0.22200  0.77800  1.0000
