data_image0
_chemical_formula_structural       C8Na4O16Sn2
_chemical_formula_sum              "C8 Na4 O16 Sn2"
_cell_length_a       5.59594
_cell_length_b       5.84093
_cell_length_c       12.9983
_cell_angle_alpha    98.4316
_cell_angle_beta     102.431
_cell_angle_gamma    61.378

_space_group_name_H-M_alt    "P 1"
_space_group_IT_number       1

loop_
  _space_group_symop_operation_xyz
  'x, y, z'

loop_
  _atom_site_type_symbol
  _atom_site_label
  _atom_site_symmetry_multiplicity
  _atom_site_fract_x
  _atom_site_fract_y
  _atom_site_fract_z
  _atom_site_occupancy
  C   C1        1.0  0.60500  0.08280  0.11200  1.0000
  C   C2        1.0  0.63900  0.81600  0.13600  1.0000
  C   C3        1.0  0.31800  0.68400  0.36400  1.0000
  C   C4        1.0  0.57600  0.41700  0.38800  1.0000
  C   C5        1.0  0.42400  0.58300  0.61200  1.0000
  C   C6        1.0  0.68200  0.31600  0.63600  1.0000
  C   C7        1.0  0.36100  0.18400  0.86400  1.0000
  C   C8        1.0  0.39500  0.91700  0.88800  1.0000
  Na  Na1       1.0  0.17600  0.67600  0.05310  1.0000
  Na  Na2       1.0  0.79900  0.82400  0.44700  1.0000
  Na  Na3       1.0  0.20100  0.17600  0.55300  1.0000
  Na  Na4       1.0  0.82400  0.32400  0.94700  1.0000
  O   O1        1.0  0.77200  0.08290  0.06120  1.0000
  O   O2        1.0  0.82400  0.61300  0.09840  1.0000
  O   O3        1.0  0.40100  0.28700  0.14200  1.0000
  O   O4        1.0  0.46800  0.82100  0.18900  1.0000
  O   O5        1.0  0.10100  0.67900  0.31100  1.0000
  O   O6        1.0  0.54600  0.21300  0.35800  1.0000
  O   O7        1.0  0.33800  0.88700  0.40200  1.0000
  O   O8        1.0  0.79400  0.41700  0.43900  1.0000
  O   O9        1.0  0.20600  0.58300  0.56100  1.0000
  O   O10       1.0  0.66200  0.11300  0.59800  1.0000
  O   O11       1.0  0.45400  0.78700  0.64200  1.0000
  O   O12       1.0  0.89900  0.32100  0.68900  1.0000
  O   O13       1.0  0.53200  0.17900  0.81100  1.0000
  O   O14       1.0  0.59900  0.71300  0.85800  1.0000
  O   O15       1.0  0.17600  0.38700  0.90200  1.0000
  O   O16       1.0  0.22800  0.91700  0.93900  1.0000
  Sn  Sn1       1.0  0.15000  0.25000  0.25000  1.0000
  Sn  Sn2       1.0  0.85000  0.75000  0.75000  1.0000
