data_image0
_chemical_formula_structural       BLi4NbO6
_chemical_formula_sum              "B1 Li4 Nb1 O6"
_cell_length_a       5.13515
_cell_length_b       5.13515
_cell_length_c       4.96083
_cell_angle_alpha    98.3439
_cell_angle_beta     98.3439
_cell_angle_gamma    123.517

_space_group_name_H-M_alt    "P 1"
_space_group_IT_number       1

loop_
  _space_group_symop_operation_xyz
  'x, y, z'

loop_
  _atom_site_type_symbol
  _atom_site_label
  _atom_site_symmetry_multiplicity
  _atom_site_fract_x
  _atom_site_fract_y
  _atom_site_fract_z
  _atom_site_occupancy
  B   B1        1.0  0.77400  0.22600  0.00000  1.0000
  Li  Li1       1.0  0.48300  0.51700  0.00000  1.0000
  Li  Li2       1.0  0.96600  0.03370  0.50000  1.0000
  Li  Li3       1.0  0.67800  0.32200  0.50000  1.0000
  Li  Li4       1.0  0.35900  0.64100  0.50000  1.0000
  Nb  Nb1       1.0  0.14800  0.85200  0.00000  1.0000
  O   O1        1.0  0.64100  0.97300  0.16800  1.0000
  O   O2        1.0  0.91300  0.54000  0.22500  1.0000
  O   O3        1.0  0.27200  0.22000  0.27400  1.0000
  O   O4        1.0  0.78000  0.72800  0.72600  1.0000
  O   O5        1.0  0.46000  0.08710  0.77500  1.0000
  O   O6        1.0  0.02680  0.35900  0.83200  1.0000
