data_image0
_chemical_formula_structural       CoLi4O6U
_chemical_formula_sum              "Co1 Li4 O6 U1"
_cell_length_a       5.26265
_cell_length_b       5.26265
_cell_length_c       5.17522
_cell_angle_alpha    98.9917
_cell_angle_beta     98.9918
_cell_angle_gamma    120.507

_space_group_name_H-M_alt    "P 1"
_space_group_IT_number       1

loop_
  _space_group_symop_operation_xyz
  'x, y, z'

loop_
  _atom_site_type_symbol
  _atom_site_label
  _atom_site_symmetry_multiplicity
  _atom_site_fract_x
  _atom_site_fract_y
  _atom_site_fract_z
  _atom_site_occupancy
  Co  Co1       1.0  0.83700  0.16300  0.00000  1.0000
  Li  Li1       1.0  0.50000  0.50000  0.00000  1.0000
  Li  Li2       1.0  0.35400  0.64600  0.50000  1.0000
  Li  Li3       1.0  0.98000  0.01980  0.50000  1.0000
  Li  Li4       1.0  0.66300  0.33700  0.50000  1.0000
  O   O1        1.0  0.92100  0.58300  0.24100  1.0000
  O   O2        1.0  0.58100  0.92300  0.24400  1.0000
  O   O3        1.0  0.24500  0.24300  0.24600  1.0000
  O   O4        1.0  0.75700  0.75500  0.75400  1.0000
  O   O5        1.0  0.07680  0.41900  0.75600  1.0000
  O   O6        1.0  0.41700  0.07890  0.75900  1.0000
  U   U1        1.0  0.16700  0.83300  0.00000  1.0000
