data_image0
_chemical_formula_structural       Na4O16Si6Zn2
_chemical_formula_sum              "Na4 O16 Si6 Zn2"
_cell_length_a       6.60275
_cell_length_b       8.55101
_cell_length_c       6.36643
_cell_angle_alpha    90
_cell_angle_beta     104.217
_cell_angle_gamma    90

_space_group_name_H-M_alt    "P 1"
_space_group_IT_number       1

loop_
  _space_group_symop_operation_xyz
  'x, y, z'

loop_
  _atom_site_type_symbol
  _atom_site_label
  _atom_site_symmetry_multiplicity
  _atom_site_fract_x
  _atom_site_fract_y
  _atom_site_fract_z
  _atom_site_occupancy
  Na  Na1       1.0  0.46300  0.87200  0.08680  1.0000
  Na  Na2       1.0  0.21500  0.43700  0.32800  1.0000
  Na  Na3       1.0  0.78500  0.93700  0.67200  1.0000
  Na  Na4       1.0  0.53700  0.37200  0.91300  1.0000
  O   O1        1.0  0.88200  0.91500  0.07380  1.0000
  O   O2        1.0  0.81200  0.61200  0.12100  1.0000
  O   O3        1.0  0.99200  0.21300  0.16500  1.0000
  O   O4        1.0  0.21100  0.72400  0.24800  1.0000
  O   O5        1.0  0.65800  0.08010  0.27900  1.0000
  O   O6        1.0  0.56400  0.43500  0.28700  1.0000
  O   O7        1.0  0.65500  0.73500  0.43100  1.0000
  O   O8        1.0  0.05120  0.00560  0.48300  1.0000
  O   O9        1.0  0.94900  0.50600  0.51700  1.0000
  O   O10       1.0  0.34500  0.23500  0.56900  1.0000
  O   O11       1.0  0.43600  0.93500  0.71300  1.0000
  O   O12       1.0  0.34200  0.58000  0.72100  1.0000
  O   O13       1.0  0.78900  0.22400  0.75200  1.0000
  O   O14       1.0  0.00837  0.71300  0.83500  1.0000
  O   O15       1.0  0.18800  0.11200  0.87900  1.0000
  O   O16       1.0  0.11800  0.41500  0.92600  1.0000
  Si  Si1       1.0  0.98700  0.73900  0.08500  1.0000
  Si  Si2       1.0  0.89100  0.05670  0.25300  1.0000
  Si  Si3       1.0  0.73300  0.57400  0.34700  1.0000
  Si  Si4       1.0  0.26700  0.07420  0.65300  1.0000
  Si  Si5       1.0  0.10900  0.55700  0.74700  1.0000
  Si  Si6       1.0  0.01320  0.23900  0.91500  1.0000
  Zn  Zn1       1.0  0.60000  0.24700  0.46500  1.0000
  Zn  Zn2       1.0  0.40000  0.74700  0.53500  1.0000
