data_image0
_chemical_formula_structural       As12Ca10Ga4
_chemical_formula_sum              "As12 Ca10 Ga4"
_cell_length_a       13.2554
_cell_length_b       11.4201
_cell_length_c       4.17391
_cell_angle_alpha    90
_cell_angle_beta     90
_cell_angle_gamma    90

_space_group_name_H-M_alt    "P 1"
_space_group_IT_number       1

loop_
  _space_group_symop_operation_xyz
  'x, y, z'

loop_
  _atom_site_type_symbol
  _atom_site_label
  _atom_site_symmetry_multiplicity
  _atom_site_fract_x
  _atom_site_fract_y
  _atom_site_fract_z
  _atom_site_occupancy
  As  As1       1.0  0.90700  0.02090  0.00000  1.0000
  As  As2       1.0  0.59600  0.15500  0.00000  1.0000
  As  As3       1.0  0.09650  0.34500  0.00000  1.0000
  As  As4       1.0  0.40700  0.47900  0.00000  1.0000
  As  As5       1.0  0.59300  0.52100  0.00000  1.0000
  As  As6       1.0  0.90400  0.65500  0.00000  1.0000
  As  As7       1.0  0.40400  0.84500  0.00000  1.0000
  As  As8       1.0  0.09350  0.97900  0.00000  1.0000
  As  As9       1.0  0.32000  0.16100  0.50000  1.0000
  As  As10      1.0  0.82000  0.33900  0.50000  1.0000
  As  As11      1.0  0.18000  0.66100  0.50000  1.0000
  As  As12      1.0  0.68000  0.83900  0.50000  1.0000
  Ca  Ca1       1.0  0.50000  0.00000  0.50000  1.0000
  Ca  Ca2       1.0  0.75100  0.08920  0.50000  1.0000
  Ca  Ca3       1.0  0.01480  0.17400  0.50000  1.0000
  Ca  Ca4       1.0  0.51500  0.32600  0.50000  1.0000
  Ca  Ca5       1.0  0.25100  0.41100  0.50000  1.0000
  Ca  Ca6       1.0  0.00000  0.50000  0.50000  1.0000
  Ca  Ca7       1.0  0.74900  0.58900  0.50000  1.0000
  Ca  Ca8       1.0  0.48500  0.67400  0.50000  1.0000
  Ca  Ca9       1.0  0.98500  0.82600  0.50000  1.0000
  Ca  Ca10      1.0  0.24900  0.91100  0.50000  1.0000
  Ga  Ga1       1.0  0.21200  0.17200  0.00000  1.0000
  Ga  Ga2       1.0  0.71200  0.32800  0.00000  1.0000
  Ga  Ga3       1.0  0.28800  0.67200  0.00000  1.0000
  Ga  Ga4       1.0  0.78800  0.82800  0.00000  1.0000
