data_image0
_chemical_formula_structural       Co2Gd4Mg3
_chemical_formula_sum              "Co2 Gd4 Mg3"
_cell_length_a       7.48745
_cell_length_b       3.74153
_cell_length_c       8.19557
_cell_angle_alpha    90
_cell_angle_beta     109.6
_cell_angle_gamma    90

_space_group_name_H-M_alt    "P 1"
_space_group_IT_number       1

loop_
  _space_group_symop_operation_xyz
  'x, y, z'

loop_
  _atom_site_type_symbol
  _atom_site_label
  _atom_site_symmetry_multiplicity
  _atom_site_fract_x
  _atom_site_fract_y
  _atom_site_fract_z
  _atom_site_occupancy
  Co  Co1       1.0  0.64900  0.00000  0.10600  1.0000
  Co  Co2       1.0  0.35100  0.00000  0.89400  1.0000
  Gd  Gd1       1.0  0.39800  0.50000  0.18000  1.0000
  Gd  Gd2       1.0  0.90300  0.50000  0.27300  1.0000
  Gd  Gd3       1.0  0.09740  0.50000  0.72700  1.0000
  Gd  Gd4       1.0  0.60200  0.50000  0.82000  1.0000
  Mg  Mg1       1.0  0.00000  0.00000  0.00000  1.0000
  Mg  Mg2       1.0  0.70700  0.00000  0.49800  1.0000
  Mg  Mg3       1.0  0.29300  0.00000  0.50200  1.0000
