data_image0
_chemical_formula_structural       BLi4O6U
_chemical_formula_sum              "B1 Li4 O6 U1"
_cell_length_a       5.3169
_cell_length_b       5.3169
_cell_length_c       5.01367
_cell_angle_alpha    96.4275
_cell_angle_beta     96.4275
_cell_angle_gamma    122.808

_space_group_name_H-M_alt    "P 1"
_space_group_IT_number       1

loop_
  _space_group_symop_operation_xyz
  'x, y, z'

loop_
  _atom_site_type_symbol
  _atom_site_label
  _atom_site_symmetry_multiplicity
  _atom_site_fract_x
  _atom_site_fract_y
  _atom_site_fract_z
  _atom_site_occupancy
  B   B1        1.0  0.77700  0.22300  0.00000  1.0000
  Li  Li1       1.0  0.48700  0.51300  0.00000  1.0000
  Li  Li2       1.0  0.94100  0.05920  0.50000  1.0000
  Li  Li3       1.0  0.65700  0.34300  0.50000  1.0000
  Li  Li4       1.0  0.38700  0.61300  0.50000  1.0000
  O   O1        1.0  0.64800  0.96300  0.15700  1.0000
  O   O2        1.0  0.87400  0.50000  0.21500  1.0000
  O   O3        1.0  0.27100  0.22700  0.29400  1.0000
  O   O4        1.0  0.77300  0.72900  0.70600  1.0000
  O   O5        1.0  0.50000  0.12600  0.78500  1.0000
  O   O6        1.0  0.03740  0.35200  0.84300  1.0000
  U   U1        1.0  0.15000  0.85000  0.00000  1.0000
