data_image0
_chemical_formula_structural       AsCoLi4O6
_chemical_formula_sum              "As1 Co1 Li4 O6"
_cell_length_a       4.97824
_cell_length_b       4.97824
_cell_length_c       5.00569
_cell_angle_alpha    99.8547
_cell_angle_beta     99.8547
_cell_angle_gamma    119.797

_space_group_name_H-M_alt    "P 1"
_space_group_IT_number       1

loop_
  _space_group_symop_operation_xyz
  'x, y, z'

loop_
  _atom_site_type_symbol
  _atom_site_label
  _atom_site_symmetry_multiplicity
  _atom_site_fract_x
  _atom_site_fract_y
  _atom_site_fract_z
  _atom_site_occupancy
  As  As1       1.0  0.16800  0.83200  0.00000  1.0000
  Co  Co1       1.0  0.83200  0.16800  0.00000  1.0000
  Li  Li1       1.0  0.50000  0.50000  0.00000  1.0000
  Li  Li2       1.0  0.99800  0.00240  0.50000  1.0000
  Li  Li3       1.0  0.66200  0.33800  0.50000  1.0000
  Li  Li4       1.0  0.34000  0.66000  0.50000  1.0000
  O   O1        1.0  0.94300  0.59600  0.22300  1.0000
  O   O2        1.0  0.23000  0.21000  0.22900  1.0000
  O   O3        1.0  0.55700  0.92300  0.23000  1.0000
  O   O4        1.0  0.07730  0.44300  0.77000  1.0000
  O   O5        1.0  0.79000  0.77000  0.77100  1.0000
  O   O6        1.0  0.40400  0.05710  0.77700  1.0000
