data_image0
_chemical_formula_structural       I8Te16
_chemical_formula_sum              "I8 Te16"
_cell_length_a       16.3775
_cell_length_b       13.9832
_cell_length_c       4.16142
_cell_angle_alpha    90
_cell_angle_beta     90
_cell_angle_gamma    90

_space_group_name_H-M_alt    "P 1"
_space_group_IT_number       1

loop_
  _space_group_symop_operation_xyz
  'x, y, z'

loop_
  _atom_site_type_symbol
  _atom_site_label
  _atom_site_symmetry_multiplicity
  _atom_site_fract_x
  _atom_site_fract_y
  _atom_site_fract_z
  _atom_site_occupancy
  I   I1        1.0  0.94400  0.60800  0.25000  1.0000
  I   I2        1.0  0.65500  0.63900  0.25000  1.0000
  I   I3        1.0  0.15500  0.86100  0.25000  1.0000
  I   I4        1.0  0.44400  0.89200  0.25000  1.0000
  I   I5        1.0  0.55600  0.10800  0.75000  1.0000
  I   I6        1.0  0.84500  0.13900  0.75000  1.0000
  I   I7        1.0  0.34500  0.36100  0.75000  1.0000
  I   I8        1.0  0.05580  0.39200  0.75000  1.0000
  Te  Te1       1.0  0.31000  0.19700  0.25000  1.0000
  Te  Te2       1.0  0.07720  0.23000  0.25000  1.0000
  Te  Te3       1.0  0.57700  0.27000  0.25000  1.0000
  Te  Te4       1.0  0.81000  0.30300  0.25000  1.0000
  Te  Te5       1.0  0.22700  0.55900  0.25000  1.0000
  Te  Te6       1.0  0.40700  0.58600  0.25000  1.0000
  Te  Te7       1.0  0.90700  0.91400  0.25000  1.0000
  Te  Te8       1.0  0.72700  0.94100  0.25000  1.0000
  Te  Te9       1.0  0.27300  0.05940  0.75000  1.0000
  Te  Te10      1.0  0.09260  0.08570  0.75000  1.0000
  Te  Te11      1.0  0.59300  0.41400  0.75000  1.0000
  Te  Te12      1.0  0.77300  0.44100  0.75000  1.0000
  Te  Te13      1.0  0.19000  0.69700  0.75000  1.0000
  Te  Te14      1.0  0.42300  0.73000  0.75000  1.0000
  Te  Te15      1.0  0.92300  0.77000  0.75000  1.0000
  Te  Te16      1.0  0.69000  0.80300  0.75000  1.0000
