data_image0
_chemical_formula_structural       Be4O14Rb4Si4
_chemical_formula_sum              "Be4 O14 Rb4 Si4"
_cell_length_a       8.89848
_cell_length_b       8.17727
_cell_length_c       5.14959
_cell_angle_alpha    90
_cell_angle_beta     90
_cell_angle_gamma    90

_space_group_name_H-M_alt    "P 1"
_space_group_IT_number       1

loop_
  _space_group_symop_operation_xyz
  'x, y, z'

loop_
  _atom_site_type_symbol
  _atom_site_label
  _atom_site_symmetry_multiplicity
  _atom_site_fract_x
  _atom_site_fract_y
  _atom_site_fract_z
  _atom_site_occupancy
  Be  Be1       1.0  0.68800  0.25800  0.00424  1.0000
  Be  Be2       1.0  0.18800  0.75800  0.49600  1.0000
  Be  Be3       1.0  0.18800  0.24200  0.50400  1.0000
  Be  Be4       1.0  0.68800  0.74200  0.99600  1.0000
  O   O1        1.0  0.37500  0.00000  0.00000  1.0000
  O   O2        1.0  0.52200  0.27300  0.08060  1.0000
  O   O3        1.0  0.80800  0.24100  0.21500  1.0000
  O   O4        1.0  0.23300  0.25100  0.21800  1.0000
  O   O5        1.0  0.73300  0.75100  0.28200  1.0000
  O   O6        1.0  0.30800  0.74100  0.28500  1.0000
  O   O7        1.0  0.02230  0.77300  0.41900  1.0000
  O   O8        1.0  0.87500  0.50000  0.50000  1.0000
  O   O9        1.0  0.02230  0.22700  0.58100  1.0000
  O   O10       1.0  0.30800  0.25900  0.71500  1.0000
  O   O11       1.0  0.73300  0.24900  0.71800  1.0000
  O   O12       1.0  0.23300  0.74900  0.78200  1.0000
  O   O13       1.0  0.80800  0.75900  0.78500  1.0000
  O   O14       1.0  0.52200  0.72700  0.91900  1.0000
  Rb  Rb1       1.0  0.00058  0.00000  0.00000  1.0000
  Rb  Rb2       1.0  0.05540  0.50000  0.00000  1.0000
  Rb  Rb3       1.0  0.55500  0.00000  0.50000  1.0000
  Rb  Rb4       1.0  0.50100  0.50000  0.50000  1.0000
  Si  Si1       1.0  0.35800  0.20100  0.00365  1.0000
  Si  Si2       1.0  0.85800  0.70100  0.49600  1.0000
  Si  Si3       1.0  0.85800  0.29900  0.50400  1.0000
  Si  Si4       1.0  0.35800  0.79900  0.99600  1.0000
