data_image0
_chemical_formula_structural       Cl16Na8Zn4
_chemical_formula_sum              "Cl16 Na8 Zn4"
_cell_length_a       13.6895
_cell_length_b       8.00885
_cell_length_c       6.42714
_cell_angle_alpha    90
_cell_angle_beta     90
_cell_angle_gamma    90

_space_group_name_H-M_alt    "P 1"
_space_group_IT_number       1

loop_
  _space_group_symop_operation_xyz
  'x, y, z'

loop_
  _atom_site_type_symbol
  _atom_site_label
  _atom_site_symmetry_multiplicity
  _atom_site_fract_x
  _atom_site_fract_y
  _atom_site_fract_z
  _atom_site_occupancy
  Cl  Cl1       1.0  0.43700  0.25000  0.23400  1.0000
  Cl  Cl2       1.0  0.90800  0.75000  0.23500  1.0000
  Cl  Cl3       1.0  0.66600  0.02390  0.23900  1.0000
  Cl  Cl4       1.0  0.66600  0.47600  0.23900  1.0000
  Cl  Cl5       1.0  0.16600  0.02390  0.26100  1.0000
  Cl  Cl6       1.0  0.16600  0.47600  0.26100  1.0000
  Cl  Cl7       1.0  0.40800  0.75000  0.26500  1.0000
  Cl  Cl8       1.0  0.93700  0.25000  0.26600  1.0000
  Cl  Cl9       1.0  0.06300  0.75000  0.73400  1.0000
  Cl  Cl10      1.0  0.59200  0.25000  0.73500  1.0000
  Cl  Cl11      1.0  0.83400  0.52400  0.73900  1.0000
  Cl  Cl12      1.0  0.83400  0.97600  0.73900  1.0000
  Cl  Cl13      1.0  0.33400  0.52400  0.76100  1.0000
  Cl  Cl14      1.0  0.33400  0.97600  0.76100  1.0000
  Cl  Cl15      1.0  0.09190  0.25000  0.76500  1.0000
  Cl  Cl16      1.0  0.56300  0.75000  0.76600  1.0000
  Na  Na1       1.0  0.00000  0.00000  0.00000  1.0000
  Na  Na2       1.0  0.00000  0.50000  0.00000  1.0000
  Na  Na3       1.0  0.73100  0.75000  0.00528  1.0000
  Na  Na4       1.0  0.23100  0.75000  0.49500  1.0000
  Na  Na5       1.0  0.50000  0.00000  0.50000  1.0000
  Na  Na6       1.0  0.50000  0.50000  0.50000  1.0000
  Na  Na7       1.0  0.76900  0.25000  0.50500  1.0000
  Na  Na8       1.0  0.26900  0.25000  0.99500  1.0000
  Zn  Zn1       1.0  0.59200  0.25000  0.08670  1.0000
  Zn  Zn2       1.0  0.09160  0.25000  0.41300  1.0000
  Zn  Zn3       1.0  0.90800  0.75000  0.58700  1.0000
  Zn  Zn4       1.0  0.40800  0.75000  0.91300  1.0000
