data_image0
_chemical_formula_structural       CoLi4NpO6
_chemical_formula_sum              "Co1 Li4 Np1 O6"
_cell_length_a       5.16725
_cell_length_b       5.16725
_cell_length_c       5.12805
_cell_angle_alpha    99.0356
_cell_angle_beta     99.0356
_cell_angle_gamma    120.429

_space_group_name_H-M_alt    "P 1"
_space_group_IT_number       1

loop_
  _space_group_symop_operation_xyz
  'x, y, z'

loop_
  _atom_site_type_symbol
  _atom_site_label
  _atom_site_symmetry_multiplicity
  _atom_site_fract_x
  _atom_site_fract_y
  _atom_site_fract_z
  _atom_site_occupancy
  Co  Co1       1.0  0.83400  0.16600  0.00000  1.0000
  Li  Li1       1.0  0.50100  0.49900  0.00000  1.0000
  Li  Li2       1.0  0.97400  0.02640  0.50000  1.0000
  Li  Li3       1.0  0.66900  0.33100  0.50000  1.0000
  Li  Li4       1.0  0.35200  0.64800  0.50000  1.0000
  Np  Np1       1.0  0.16700  0.83300  0.00000  1.0000
  O   O1        1.0  0.60300  0.93200  0.23500  1.0000
  O   O2        1.0  0.90800  0.54800  0.23800  1.0000
  O   O3        1.0  0.22200  0.25000  0.23900  1.0000
  O   O4        1.0  0.75000  0.77800  0.76100  1.0000
  O   O5        1.0  0.45200  0.09230  0.76200  1.0000
  O   O6        1.0  0.06830  0.39700  0.76500  1.0000
