data_image0
_chemical_formula_structural       Fe8S16Si4
_chemical_formula_sum              "Fe8 S16 Si4"
_cell_length_a       12.0187
_cell_length_b       6.90528
_cell_length_c       5.72865
_cell_angle_alpha    90
_cell_angle_beta     90
_cell_angle_gamma    90

_space_group_name_H-M_alt    "P 1"
_space_group_IT_number       1

loop_
  _space_group_symop_operation_xyz
  'x, y, z'

loop_
  _atom_site_type_symbol
  _atom_site_label
  _atom_site_symmetry_multiplicity
  _atom_site_fract_x
  _atom_site_fract_y
  _atom_site_fract_z
  _atom_site_occupancy
  Fe  Fe1       1.0  0.00000  0.00000  0.00000  1.0000
  Fe  Fe2       1.0  0.00000  0.50000  0.00000  1.0000
  Fe  Fe3       1.0  0.25800  0.75000  0.00273  1.0000
  Fe  Fe4       1.0  0.75800  0.75000  0.49700  1.0000
  Fe  Fe5       1.0  0.50000  0.00000  0.50000  1.0000
  Fe  Fe6       1.0  0.50000  0.50000  0.50000  1.0000
  Fe  Fe7       1.0  0.24200  0.25000  0.50300  1.0000
  Fe  Fe8       1.0  0.74200  0.25000  0.99700  1.0000
  S   S1        1.0  0.09050  0.75000  0.21900  1.0000
  S   S2        1.0  0.57600  0.25000  0.24200  1.0000
  S   S3        1.0  0.83100  0.00520  0.25000  1.0000
  S   S4        1.0  0.83100  0.49500  0.25000  1.0000
  S   S5        1.0  0.33100  0.00520  0.25000  1.0000
  S   S6        1.0  0.33100  0.49500  0.25000  1.0000
  S   S7        1.0  0.07640  0.25000  0.25800  1.0000
  S   S8        1.0  0.59000  0.75000  0.28100  1.0000
  S   S9        1.0  0.41000  0.25000  0.71900  1.0000
  S   S10       1.0  0.92400  0.75000  0.74200  1.0000
  S   S11       1.0  0.66900  0.50500  0.75000  1.0000
  S   S12       1.0  0.66900  0.99500  0.75000  1.0000
  S   S13       1.0  0.16900  0.50500  0.75000  1.0000
  S   S14       1.0  0.16900  0.99500  0.75000  1.0000
  S   S15       1.0  0.42400  0.75000  0.75800  1.0000
  S   S16       1.0  0.91000  0.25000  0.78100  1.0000
  Si  Si1       1.0  0.41200  0.25000  0.09230  1.0000
  Si  Si2       1.0  0.91200  0.25000  0.40800  1.0000
  Si  Si3       1.0  0.08790  0.75000  0.59200  1.0000
  Si  Si4       1.0  0.58800  0.75000  0.90800  1.0000
