data_image0
_chemical_formula_structural       As4Na12S12
_chemical_formula_sum              "As4 Na12 S12"
_cell_length_a       8.57018
_cell_length_b       8.57018
_cell_length_c       8.57018
_cell_angle_alpha    90
_cell_angle_beta     90
_cell_angle_gamma    90

_space_group_name_H-M_alt    "P 1"
_space_group_IT_number       1

loop_
  _space_group_symop_operation_xyz
  'x, y, z'

loop_
  _atom_site_type_symbol
  _atom_site_label
  _atom_site_symmetry_multiplicity
  _atom_site_fract_x
  _atom_site_fract_y
  _atom_site_fract_z
  _atom_site_occupancy
  As  As1       1.0  0.22100  0.22100  0.22100  1.0000
  As  As2       1.0  0.77900  0.72100  0.27900  1.0000
  As  As3       1.0  0.27900  0.77900  0.72100  1.0000
  As  As4       1.0  0.72100  0.27900  0.77900  1.0000
  Na  Na1       1.0  0.56100  0.93900  0.06060  1.0000
  Na  Na2       1.0  0.43300  0.56700  0.06740  1.0000
  Na  Na3       1.0  0.82900  0.32900  0.17100  1.0000
  Na  Na4       1.0  0.17100  0.82900  0.32900  1.0000
  Na  Na5       1.0  0.56700  0.06740  0.43300  1.0000
  Na  Na6       1.0  0.43900  0.43900  0.43900  1.0000
  Na  Na7       1.0  0.93900  0.06060  0.56100  1.0000
  Na  Na8       1.0  0.06740  0.43300  0.56700  1.0000
  Na  Na9       1.0  0.67100  0.67100  0.67100  1.0000
  Na  Na10      1.0  0.32900  0.17100  0.82900  1.0000
  Na  Na11      1.0  0.93300  0.93300  0.93300  1.0000
  Na  Na12      1.0  0.06060  0.56100  0.93900  1.0000
  S   S1        1.0  0.75200  0.64300  0.02520  1.0000
  S   S2        1.0  0.47500  0.24800  0.14300  1.0000
  S   S3        1.0  0.14300  0.47500  0.24800  1.0000
  S   S4        1.0  0.85700  0.97500  0.25200  1.0000
  S   S5        1.0  0.52500  0.74800  0.35700  1.0000
  S   S6        1.0  0.24800  0.14300  0.47500  1.0000
  S   S7        1.0  0.74800  0.35700  0.52500  1.0000
  S   S8        1.0  0.02520  0.75200  0.64300  1.0000
  S   S9        1.0  0.35700  0.52500  0.74800  1.0000
  S   S10       1.0  0.64300  0.02520  0.75200  1.0000
  S   S11       1.0  0.97500  0.25200  0.85700  1.0000
  S   S12       1.0  0.25200  0.85700  0.97500  1.0000
