data_image0
_chemical_formula_structural       Cd4Li8O16Si4
_chemical_formula_sum              "Cd4 Li8 O16 Si4"
_cell_length_a       6.50471
_cell_length_b       10.6467
_cell_length_c       5.10027
_cell_angle_alpha    90
_cell_angle_beta     90
_cell_angle_gamma    90

_space_group_name_H-M_alt    "P 1"
_space_group_IT_number       1

loop_
  _space_group_symop_operation_xyz
  'x, y, z'

loop_
  _atom_site_type_symbol
  _atom_site_label
  _atom_site_symmetry_multiplicity
  _atom_site_fract_x
  _atom_site_fract_y
  _atom_site_fract_z
  _atom_site_occupancy
  Cd  Cd1       1.0  0.25000  0.15900  0.17000  1.0000
  Cd  Cd2       1.0  0.25000  0.65900  0.33000  1.0000
  Cd  Cd3       1.0  0.75000  0.34100  0.67000  1.0000
  Cd  Cd4       1.0  0.75000  0.84100  0.83000  1.0000
  Li  Li1       1.0  0.50100  0.41100  0.17100  1.0000
  Li  Li2       1.0  0.99900  0.41100  0.17100  1.0000
  Li  Li3       1.0  0.50100  0.91100  0.32900  1.0000
  Li  Li4       1.0  0.99900  0.91100  0.32900  1.0000
  Li  Li5       1.0  0.00069  0.08910  0.67100  1.0000
  Li  Li6       1.0  0.49900  0.08910  0.67100  1.0000
  Li  Li7       1.0  0.00069  0.58900  0.82900  1.0000
  Li  Li8       1.0  0.49900  0.58900  0.82900  1.0000
  O   O1        1.0  0.25000  0.85600  0.15800  1.0000
  O   O2        1.0  0.54700  0.58800  0.21000  1.0000
  O   O3        1.0  0.95300  0.58800  0.21000  1.0000
  O   O4        1.0  0.75000  0.30900  0.23800  1.0000
  O   O5        1.0  0.75000  0.80900  0.26200  1.0000
  O   O6        1.0  0.54700  0.08790  0.29000  1.0000
  O   O7        1.0  0.95300  0.08790  0.29000  1.0000
  O   O8        1.0  0.25000  0.35600  0.34200  1.0000
  O   O9        1.0  0.75000  0.64400  0.65800  1.0000
  O   O10       1.0  0.04720  0.91200  0.71000  1.0000
  O   O11       1.0  0.45300  0.91200  0.71000  1.0000
  O   O12       1.0  0.25000  0.19100  0.73800  1.0000
  O   O13       1.0  0.25000  0.69100  0.76200  1.0000
  O   O14       1.0  0.04720  0.41200  0.79000  1.0000
  O   O15       1.0  0.45300  0.41200  0.79000  1.0000
  O   O16       1.0  0.75000  0.14400  0.84200  1.0000
  Si  Si1       1.0  0.75000  0.15700  0.16400  1.0000
  Si  Si2       1.0  0.75000  0.65700  0.33600  1.0000
  Si  Si3       1.0  0.25000  0.34300  0.66400  1.0000
  Si  Si4       1.0  0.25000  0.84300  0.83600  1.0000
