data_image0
_chemical_formula_structural       S20Tl8
_chemical_formula_sum              "S20 Tl8"
_cell_length_a       6.80419
_cell_length_b       16.9551
_cell_length_c       6.73225
_cell_angle_alpha    90
_cell_angle_beta     90
_cell_angle_gamma    90

_space_group_name_H-M_alt    "P 1"
_space_group_IT_number       1

loop_
  _space_group_symop_operation_xyz
  'x, y, z'

loop_
  _atom_site_type_symbol
  _atom_site_label
  _atom_site_symmetry_multiplicity
  _atom_site_fract_x
  _atom_site_fract_y
  _atom_site_fract_z
  _atom_site_occupancy
  S   S1        1.0  0.25300  0.67100  0.05020  1.0000
  S   S2        1.0  0.37900  0.30300  0.07090  1.0000
  S   S3        1.0  0.63300  0.37300  0.07670  1.0000
  S   S4        1.0  0.08070  0.02460  0.07920  1.0000
  S   S5        1.0  0.82500  0.85400  0.24100  1.0000
  S   S6        1.0  0.17500  0.35400  0.25900  1.0000
  S   S7        1.0  0.91900  0.52500  0.42100  1.0000
  S   S8        1.0  0.36700  0.87300  0.42300  1.0000
  S   S9        1.0  0.62100  0.80300  0.42900  1.0000
  S   S10       1.0  0.74700  0.17100  0.45000  1.0000
  S   S11       1.0  0.24700  0.32900  0.55000  1.0000
  S   S12       1.0  0.12100  0.69700  0.57100  1.0000
  S   S13       1.0  0.86700  0.62700  0.57700  1.0000
  S   S14       1.0  0.41900  0.97500  0.57900  1.0000
  S   S15       1.0  0.67500  0.14600  0.74100  1.0000
  S   S16       1.0  0.32500  0.64600  0.75900  1.0000
  S   S17       1.0  0.58100  0.47500  0.92100  1.0000
  S   S18       1.0  0.13300  0.12700  0.92300  1.0000
  S   S19       1.0  0.87900  0.19700  0.92900  1.0000
  S   S20       1.0  0.75300  0.82900  0.95000  1.0000
  Tl  Tl1       1.0  0.80100  0.64800  0.06800  1.0000
  Tl  Tl2       1.0  0.60700  0.03090  0.19300  1.0000
  Tl  Tl3       1.0  0.39300  0.53100  0.30700  1.0000
  Tl  Tl4       1.0  0.19900  0.14800  0.43200  1.0000
  Tl  Tl5       1.0  0.69900  0.35200  0.56800  1.0000
  Tl  Tl6       1.0  0.89300  0.96900  0.69300  1.0000
  Tl  Tl7       1.0  0.10700  0.46900  0.80700  1.0000
  Tl  Tl8       1.0  0.30100  0.85200  0.93200  1.0000
