data_image0
_chemical_formula_structural       Cl4CoH16MgO8
_chemical_formula_sum              "Cl4 Co1 H16 Mg1 O8"
_cell_length_a       5.9071
_cell_length_b       6.17337
_cell_length_c       8.33866
_cell_angle_alpha    81.4474
_cell_angle_beta     89.3824
_cell_angle_gamma    83.6609

_space_group_name_H-M_alt    "P 1"
_space_group_IT_number       1

loop_
  _space_group_symop_operation_xyz
  'x, y, z'

loop_
  _atom_site_type_symbol
  _atom_site_label
  _atom_site_symmetry_multiplicity
  _atom_site_fract_x
  _atom_site_fract_y
  _atom_site_fract_z
  _atom_site_occupancy
  Cl  Cl1       1.0  0.25600  0.26700  0.05540  1.0000
  Cl  Cl2       1.0  0.87500  0.96300  0.28400  1.0000
  Cl  Cl3       1.0  0.12500  0.03690  0.71600  1.0000
  Cl  Cl4       1.0  0.74400  0.73300  0.94500  1.0000
  Co  Co1       1.0  0.00000  0.00000  0.00000  1.0000
  H   H1        1.0  0.40800  0.77100  0.01510  1.0000
  H   H2        1.0  0.22600  0.60200  0.06250  1.0000
  H   H3        1.0  0.73500  0.54900  0.20900  1.0000
  H   H4        1.0  0.76000  0.29500  0.28900  1.0000
  H   H5        1.0  0.23100  0.32600  0.30500  1.0000
  H   H6        1.0  0.25500  0.85500  0.33300  1.0000
  H   H7        1.0  0.51300  0.90500  0.34500  1.0000
  H   H8        1.0  0.14100  0.28100  0.48500  1.0000
  H   H9        1.0  0.85900  0.71900  0.51500  1.0000
  H   H10       1.0  0.48700  0.09470  0.65500  1.0000
  H   H11       1.0  0.74500  0.14500  0.66700  1.0000
  H   H12       1.0  0.76900  0.67400  0.69500  1.0000
  H   H13       1.0  0.24000  0.70500  0.71100  1.0000
  H   H14       1.0  0.26500  0.45100  0.79100  1.0000
  H   H15       1.0  0.77400  0.39800  0.93800  1.0000
  H   H16       1.0  0.59200  0.22900  0.98500  1.0000
  Mg  Mg1       1.0  0.50000  0.50000  0.50000  1.0000
  O   O1        1.0  0.25400  0.75800  0.06320  1.0000
  O   O2        1.0  0.68300  0.44300  0.29800  1.0000
  O   O3        1.0  0.39400  0.82100  0.39900  1.0000
  O   O4        1.0  0.21800  0.38600  0.40900  1.0000
  O   O5        1.0  0.78200  0.61400  0.59100  1.0000
  O   O6        1.0  0.60600  0.17900  0.60100  1.0000
  O   O7        1.0  0.31700  0.55700  0.70200  1.0000
  O   O8        1.0  0.74600  0.24200  0.93700  1.0000
