data_image0
_chemical_formula_structural       Sb12Ti20
_chemical_formula_sum              "Sb12 Ti20"
_cell_length_a       10.1685
_cell_length_b       8.34493
_cell_length_c       7.17615
_cell_angle_alpha    90
_cell_angle_beta     90
_cell_angle_gamma    90

_space_group_name_H-M_alt    "P 1"
_space_group_IT_number       1

loop_
  _space_group_symop_operation_xyz
  'x, y, z'

loop_
  _atom_site_type_symbol
  _atom_site_label
  _atom_site_symmetry_multiplicity
  _atom_site_fract_x
  _atom_site_fract_y
  _atom_site_fract_z
  _atom_site_occupancy
  Sb  Sb1       1.0  0.32100  0.00726  0.06300  1.0000
  Sb  Sb2       1.0  0.32100  0.49300  0.06300  1.0000
  Sb  Sb3       1.0  0.02900  0.75000  0.09200  1.0000
  Sb  Sb4       1.0  0.52900  0.75000  0.40800  1.0000
  Sb  Sb5       1.0  0.82100  0.00726  0.43700  1.0000
  Sb  Sb6       1.0  0.82100  0.49300  0.43700  1.0000
  Sb  Sb7       1.0  0.17900  0.50700  0.56300  1.0000
  Sb  Sb8       1.0  0.17900  0.99300  0.56300  1.0000
  Sb  Sb9       1.0  0.47100  0.25000  0.59200  1.0000
  Sb  Sb10      1.0  0.97100  0.25000  0.90800  1.0000
  Sb  Sb11      1.0  0.67900  0.50700  0.93700  1.0000
  Sb  Sb12      1.0  0.67900  0.99300  0.93700  1.0000
  Ti  Ti1       1.0  0.49600  0.75000  0.01970  1.0000
  Ti  Ti2       1.0  0.78300  0.25000  0.17900  1.0000
  Ti  Ti3       1.0  0.76700  0.75000  0.18100  1.0000
  Ti  Ti4       1.0  0.05190  0.06380  0.20500  1.0000
  Ti  Ti5       1.0  0.05190  0.43600  0.20500  1.0000
  Ti  Ti6       1.0  0.55200  0.06380  0.29500  1.0000
  Ti  Ti7       1.0  0.55200  0.43600  0.29500  1.0000
  Ti  Ti8       1.0  0.26700  0.75000  0.31900  1.0000
  Ti  Ti9       1.0  0.28300  0.25000  0.32100  1.0000
  Ti  Ti10      1.0  0.99600  0.75000  0.48000  1.0000
  Ti  Ti11      1.0  0.00380  0.25000  0.52000  1.0000
  Ti  Ti12      1.0  0.71700  0.75000  0.67900  1.0000
  Ti  Ti13      1.0  0.73300  0.25000  0.68100  1.0000
  Ti  Ti14      1.0  0.44800  0.56400  0.70500  1.0000
  Ti  Ti15      1.0  0.44800  0.93600  0.70500  1.0000
  Ti  Ti16      1.0  0.94800  0.56400  0.79500  1.0000
  Ti  Ti17      1.0  0.94800  0.93600  0.79500  1.0000
  Ti  Ti18      1.0  0.23300  0.25000  0.81900  1.0000
  Ti  Ti19      1.0  0.21700  0.75000  0.82100  1.0000
  Ti  Ti20      1.0  0.50400  0.25000  0.98000  1.0000
