data_image0
_chemical_formula_structural       Ag8Br4N4O12
_chemical_formula_sum              "Ag8 Br4 N4 O12"
_cell_length_a       6.77287
_cell_length_b       5.10843
_cell_length_c       12.6995
_cell_angle_alpha    90
_cell_angle_beta     90
_cell_angle_gamma    90

_space_group_name_H-M_alt    "P 1"
_space_group_IT_number       1

loop_
  _space_group_symop_operation_xyz
  'x, y, z'

loop_
  _atom_site_type_symbol
  _atom_site_label
  _atom_site_symmetry_multiplicity
  _atom_site_fract_x
  _atom_site_fract_y
  _atom_site_fract_z
  _atom_site_occupancy
  Ag  Ag1       1.0  0.25000  0.25000  0.03270  1.0000
  Ag  Ag2       1.0  0.64400  0.75000  0.24400  1.0000
  Ag  Ag3       1.0  0.14400  0.75000  0.25600  1.0000
  Ag  Ag4       1.0  0.75000  0.25000  0.46700  1.0000
  Ag  Ag5       1.0  0.25000  0.75000  0.53300  1.0000
  Ag  Ag6       1.0  0.85600  0.25000  0.74400  1.0000
  Ag  Ag7       1.0  0.35600  0.25000  0.75600  1.0000
  Ag  Ag8       1.0  0.75000  0.75000  0.96700  1.0000
  Br  Br1       1.0  0.38500  0.75000  0.08750  1.0000
  Br  Br2       1.0  0.88500  0.75000  0.41200  1.0000
  Br  Br3       1.0  0.11500  0.25000  0.58800  1.0000
  Br  Br4       1.0  0.61500  0.25000  0.91200  1.0000
  N   N1        1.0  0.85400  0.25000  0.14900  1.0000
  N   N2        1.0  0.35400  0.25000  0.35100  1.0000
  N   N3        1.0  0.64600  0.75000  0.64900  1.0000
  N   N4        1.0  0.14600  0.75000  0.85100  1.0000
  O   O1        1.0  0.92900  0.03490  0.11800  1.0000
  O   O2        1.0  0.92900  0.46500  0.11800  1.0000
  O   O3        1.0  0.70700  0.25000  0.21000  1.0000
  O   O4        1.0  0.20700  0.25000  0.29000  1.0000
  O   O5        1.0  0.42900  0.03490  0.38200  1.0000
  O   O6        1.0  0.42900  0.46500  0.38200  1.0000
  O   O7        1.0  0.57100  0.53500  0.61800  1.0000
  O   O8        1.0  0.57100  0.96500  0.61800  1.0000
  O   O9        1.0  0.79300  0.75000  0.71000  1.0000
  O   O10       1.0  0.29300  0.75000  0.79000  1.0000
  O   O11       1.0  0.07110  0.53500  0.88200  1.0000
  O   O12       1.0  0.07110  0.96500  0.88200  1.0000
