data_image0
_chemical_formula_structural       CoLi4MnO6
_chemical_formula_sum              "Co1 Li4 Mn1 O6"
_cell_length_a       4.94079
_cell_length_b       4.94079
_cell_length_c       4.99841
_cell_angle_alpha    99.6458
_cell_angle_beta     99.6458
_cell_angle_gamma    119.912

_space_group_name_H-M_alt    "P 1"
_space_group_IT_number       1

loop_
  _space_group_symop_operation_xyz
  'x, y, z'

loop_
  _atom_site_type_symbol
  _atom_site_label
  _atom_site_symmetry_multiplicity
  _atom_site_fract_x
  _atom_site_fract_y
  _atom_site_fract_z
  _atom_site_occupancy
  Co  Co1       1.0  0.16800  0.83200  0.00000  1.0000
  Li  Li1       1.0  0.50000  0.50000  0.00000  1.0000
  Li  Li2       1.0  0.00000  0.00014  0.50000  1.0000
  Li  Li3       1.0  0.66000  0.34000  0.50000  1.0000
  Li  Li4       1.0  0.34000  0.66000  0.50000  1.0000
  Mn  Mn1       1.0  0.83300  0.16700  0.00000  1.0000
  O   O1        1.0  0.58300  0.93300  0.23000  1.0000
  O   O2        1.0  0.92800  0.57200  0.23100  1.0000
  O   O3        1.0  0.22200  0.22800  0.23300  1.0000
  O   O4        1.0  0.77200  0.77800  0.76700  1.0000
  O   O5        1.0  0.42800  0.07240  0.76900  1.0000
  O   O6        1.0  0.06650  0.41700  0.77000  1.0000
