data_image0
_chemical_formula_structural       CoLi4O6Sn
_chemical_formula_sum              "Co1 Li4 O6 Sn1"
_cell_length_a       5.1552
_cell_length_b       5.1552
_cell_length_c       5.11683
_cell_angle_alpha    99.629
_cell_angle_beta     99.629
_cell_angle_gamma    119.965

_space_group_name_H-M_alt    "P 1"
_space_group_IT_number       1

loop_
  _space_group_symop_operation_xyz
  'x, y, z'

loop_
  _atom_site_type_symbol
  _atom_site_label
  _atom_site_symmetry_multiplicity
  _atom_site_fract_x
  _atom_site_fract_y
  _atom_site_fract_z
  _atom_site_occupancy
  Co  Co1       1.0  0.17000  0.83000  0.00000  1.0000
  Li  Li1       1.0  0.50100  0.49900  0.00000  1.0000
  Li  Li2       1.0  0.01540  0.98500  0.50000  1.0000
  Li  Li3       1.0  0.65200  0.34800  0.50000  1.0000
  Li  Li4       1.0  0.33600  0.66400  0.50000  1.0000
  O   O1        1.0  0.93400  0.59200  0.23200  1.0000
  O   O2        1.0  0.56300  0.92400  0.23800  1.0000
  O   O3        1.0  0.23400  0.22400  0.23900  1.0000
  O   O4        1.0  0.77600  0.76600  0.76100  1.0000
  O   O5        1.0  0.07640  0.43700  0.76200  1.0000
  O   O6        1.0  0.40800  0.06620  0.76800  1.0000
  Sn  Sn1       1.0  0.83400  0.16600  0.00000  1.0000
