data_image0
_chemical_formula_structural       C8N8S12
_chemical_formula_sum              "C8 N8 S12"
_cell_length_a       10.0502
_cell_length_b       12.7257
_cell_length_c       4.23631
_cell_angle_alpha    90
_cell_angle_beta     90
_cell_angle_gamma    90

_space_group_name_H-M_alt    "P 1"
_space_group_IT_number       1

loop_
  _space_group_symop_operation_xyz
  'x, y, z'

loop_
  _atom_site_type_symbol
  _atom_site_label
  _atom_site_symmetry_multiplicity
  _atom_site_fract_x
  _atom_site_fract_y
  _atom_site_fract_z
  _atom_site_occupancy
  C   C1        1.0  0.79500  0.11000  0.02000  1.0000
  C   C2        1.0  0.79500  0.39000  0.02000  1.0000
  C   C3        1.0  0.29500  0.11000  0.48000  1.0000
  C   C4        1.0  0.29500  0.39000  0.48000  1.0000
  C   C5        1.0  0.70500  0.61000  0.52000  1.0000
  C   C6        1.0  0.70500  0.89000  0.52000  1.0000
  C   C7        1.0  0.20500  0.61000  0.98000  1.0000
  C   C8        1.0  0.20500  0.89000  0.98000  1.0000
  N   N1        1.0  0.30500  0.60100  0.12000  1.0000
  N   N2        1.0  0.30500  0.89900  0.12000  1.0000
  N   N3        1.0  0.80500  0.60100  0.38000  1.0000
  N   N4        1.0  0.80500  0.89900  0.38000  1.0000
  N   N5        1.0  0.19500  0.10100  0.62000  1.0000
  N   N6        1.0  0.19500  0.39900  0.62000  1.0000
  N   N7        1.0  0.69500  0.10100  0.88000  1.0000
  N   N8        1.0  0.69500  0.39900  0.88000  1.0000
  S   S1        1.0  0.02020  0.25000  0.01330  1.0000
  S   S2        1.0  0.93600  0.12000  0.23200  1.0000
  S   S3        1.0  0.93600  0.38000  0.23200  1.0000
  S   S4        1.0  0.43600  0.12000  0.26800  1.0000
  S   S5        1.0  0.43600  0.38000  0.26800  1.0000
  S   S6        1.0  0.52000  0.25000  0.48700  1.0000
  S   S7        1.0  0.48000  0.75000  0.51300  1.0000
  S   S8        1.0  0.56400  0.62000  0.73200  1.0000
  S   S9        1.0  0.56400  0.88000  0.73200  1.0000
  S   S10       1.0  0.06410  0.62000  0.76800  1.0000
  S   S11       1.0  0.06410  0.88000  0.76800  1.0000
  S   S12       1.0  0.98000  0.75000  0.98700  1.0000
