data_image0
_chemical_formula_structural       Be8F28Li8Rb4
_chemical_formula_sum              "Be8 F28 Li8 Rb4"
_cell_length_a       11.8082
_cell_length_b       4.72978
_cell_length_c       9.69078
_cell_angle_alpha    90
_cell_angle_beta     90.2799
_cell_angle_gamma    90

_space_group_name_H-M_alt    "P 1"
_space_group_IT_number       1

loop_
  _space_group_symop_operation_xyz
  'x, y, z'

loop_
  _atom_site_type_symbol
  _atom_site_label
  _atom_site_symmetry_multiplicity
  _atom_site_fract_x
  _atom_site_fract_y
  _atom_site_fract_z
  _atom_site_occupancy
  Be  Be1       1.0  0.87100  0.67300  0.08670  1.0000
  Be  Be2       1.0  0.63800  0.70000  0.09480  1.0000
  Be  Be3       1.0  0.36200  0.20000  0.40500  1.0000
  Be  Be4       1.0  0.12900  0.17300  0.41300  1.0000
  Be  Be5       1.0  0.87100  0.82700  0.58700  1.0000
  Be  Be6       1.0  0.63800  0.80000  0.59500  1.0000
  Be  Be7       1.0  0.36200  0.30000  0.90500  1.0000
  Be  Be8       1.0  0.12900  0.32700  0.91300  1.0000
  F   F1        1.0  0.37000  0.19200  0.05310  1.0000
  F   F2        1.0  0.13100  0.23400  0.06390  1.0000
  F   F3        1.0  0.62800  0.37600  0.09760  1.0000
  F   F4        1.0  0.87200  0.34900  0.09980  1.0000
  F   F5        1.0  0.75800  0.78300  0.15900  1.0000
  F   F6        1.0  0.97500  0.79400  0.16500  1.0000
  F   F7        1.0  0.54300  0.83100  0.18400  1.0000
  F   F8        1.0  0.45700  0.33100  0.31600  1.0000
  F   F9        1.0  0.02460  0.29400  0.33500  1.0000
  F   F10       1.0  0.24200  0.28300  0.34100  1.0000
  F   F11       1.0  0.12800  0.84900  0.40000  1.0000
  F   F12       1.0  0.37200  0.87600  0.40200  1.0000
  F   F13       1.0  0.86900  0.73400  0.43600  1.0000
  F   F14       1.0  0.63000  0.69200  0.44700  1.0000
  F   F15       1.0  0.37000  0.30800  0.55300  1.0000
  F   F16       1.0  0.13100  0.26600  0.56400  1.0000
  F   F17       1.0  0.62800  0.12400  0.59800  1.0000
  F   F18       1.0  0.87200  0.15100  0.60000  1.0000
  F   F19       1.0  0.75800  0.71700  0.65900  1.0000
  F   F20       1.0  0.97500  0.70600  0.66500  1.0000
  F   F21       1.0  0.54300  0.66900  0.68400  1.0000
  F   F22       1.0  0.45700  0.16900  0.81600  1.0000
  F   F23       1.0  0.02460  0.20600  0.83500  1.0000
  F   F24       1.0  0.24200  0.21700  0.84100  1.0000
  F   F25       1.0  0.12800  0.65100  0.90000  1.0000
  F   F26       1.0  0.37200  0.62400  0.90200  1.0000
  F   F27       1.0  0.86900  0.76600  0.93600  1.0000
  F   F28       1.0  0.63000  0.80800  0.94700  1.0000
  Li  Li1       1.0  0.50100  0.19600  0.14700  1.0000
  Li  Li2       1.0  0.00046  0.17700  0.15400  1.0000
  Li  Li3       1.0  0.00000  0.67700  0.34600  1.0000
  Li  Li4       1.0  0.49900  0.69600  0.35300  1.0000
  Li  Li5       1.0  0.50100  0.30400  0.64700  1.0000
  Li  Li6       1.0  0.00046  0.32300  0.65400  1.0000
  Li  Li7       1.0  0.00000  0.82300  0.84600  1.0000
  Li  Li8       1.0  0.49900  0.80400  0.85300  1.0000
  Rb  Rb1       1.0  0.25000  0.73700  0.15100  1.0000
  Rb  Rb2       1.0  0.75000  0.23700  0.34900  1.0000
  Rb  Rb3       1.0  0.25000  0.76300  0.65100  1.0000
  Rb  Rb4       1.0  0.75000  0.26300  0.84900  1.0000
