data_image0
_chemical_formula_structural       Cr6F36Li18
_chemical_formula_sum              "Cr6 F36 Li18"
_cell_length_a       8.06842
_cell_length_b       8.06842
_cell_length_c       9.60312
_cell_angle_alpha    95.3067
_cell_angle_beta     95.3067
_cell_angle_gamma    62.7703

_space_group_name_H-M_alt    "P 1"
_space_group_IT_number       1

loop_
  _space_group_symop_operation_xyz
  'x, y, z'

loop_
  _atom_site_type_symbol
  _atom_site_label
  _atom_site_symmetry_multiplicity
  _atom_site_fract_x
  _atom_site_fract_y
  _atom_site_fract_z
  _atom_site_occupancy
  Cr  Cr1       1.0  0.00000  0.00000  0.00000  1.0000
  Cr  Cr2       1.0  0.33500  0.34300  0.21300  1.0000
  Cr  Cr3       1.0  0.65700  0.66500  0.28700  1.0000
  Cr  Cr4       1.0  0.00000  0.00000  0.50000  1.0000
  Cr  Cr5       1.0  0.34300  0.33500  0.71300  1.0000
  Cr  Cr6       1.0  0.66500  0.65700  0.78700  1.0000
  F   F1        1.0  0.42400  0.40800  0.06090  1.0000
  F   F2        1.0  0.75700  0.08460  0.06690  1.0000
  F   F3        1.0  0.09590  0.75600  0.06730  1.0000
  F   F4        1.0  0.09070  0.41600  0.12000  1.0000
  F   F5        1.0  0.42500  0.10000  0.12200  1.0000
  F   F6        1.0  0.72200  0.77100  0.14300  1.0000
  F   F7        1.0  0.08760  0.06980  0.17300  1.0000
  F   F8        1.0  0.42100  0.74700  0.18500  1.0000
  F   F9        1.0  0.75000  0.43000  0.18900  1.0000
  F   F10       1.0  0.57000  0.25000  0.31100  1.0000
  F   F11       1.0  0.25300  0.57900  0.31500  1.0000
  F   F12       1.0  0.93000  0.91200  0.32700  1.0000
  F   F13       1.0  0.22900  0.27800  0.35700  1.0000
  F   F14       1.0  0.90000  0.57500  0.37800  1.0000
  F   F15       1.0  0.58400  0.90900  0.38000  1.0000
  F   F16       1.0  0.24400  0.90400  0.43300  1.0000
  F   F17       1.0  0.91500  0.24300  0.43300  1.0000
  F   F18       1.0  0.59200  0.57600  0.43900  1.0000
  F   F19       1.0  0.40800  0.42400  0.56100  1.0000
  F   F20       1.0  0.08460  0.75700  0.56700  1.0000
  F   F21       1.0  0.75600  0.09590  0.56700  1.0000
  F   F22       1.0  0.41600  0.09070  0.62000  1.0000
  F   F23       1.0  0.10000  0.42500  0.62200  1.0000
  F   F24       1.0  0.77100  0.72200  0.64300  1.0000
  F   F25       1.0  0.06980  0.08760  0.67300  1.0000
  F   F26       1.0  0.74700  0.42100  0.68500  1.0000
  F   F27       1.0  0.43000  0.75000  0.68900  1.0000
  F   F28       1.0  0.25000  0.57000  0.81100  1.0000
  F   F29       1.0  0.57900  0.25300  0.81500  1.0000
  F   F30       1.0  0.91200  0.93000  0.82700  1.0000
  F   F31       1.0  0.27800  0.22900  0.85700  1.0000
  F   F32       1.0  0.57500  0.90000  0.87800  1.0000
  F   F33       1.0  0.90900  0.58400  0.88000  1.0000
  F   F34       1.0  0.90400  0.24400  0.93300  1.0000
  F   F35       1.0  0.24300  0.91500  0.93300  1.0000
  F   F36       1.0  0.57600  0.59200  0.93900  1.0000
  Li  Li1       1.0  0.66900  0.35900  0.02160  1.0000
  Li  Li2       1.0  0.47300  0.86400  0.04250  1.0000
  Li  Li3       1.0  0.94000  0.65400  0.06590  1.0000
  Li  Li4       1.0  0.69500  0.00658  0.23400  1.0000
  Li  Li5       1.0  0.18000  0.82000  0.25000  1.0000
  Li  Li6       1.0  0.99300  0.30500  0.26600  1.0000
  Li  Li7       1.0  0.34600  0.05970  0.43400  1.0000
  Li  Li8       1.0  0.13600  0.52700  0.45800  1.0000
  Li  Li9       1.0  0.64100  0.33100  0.47800  1.0000
  Li  Li10      1.0  0.35900  0.66900  0.52200  1.0000
  Li  Li11      1.0  0.86400  0.47300  0.54200  1.0000
  Li  Li12      1.0  0.65400  0.94000  0.56600  1.0000
  Li  Li13      1.0  0.00658  0.69500  0.73400  1.0000
  Li  Li14      1.0  0.82000  0.18000  0.75000  1.0000
  Li  Li15      1.0  0.30500  0.99300  0.76600  1.0000
  Li  Li16      1.0  0.05970  0.34600  0.93400  1.0000
  Li  Li17      1.0  0.52700  0.13600  0.95800  1.0000
  Li  Li18      1.0  0.33100  0.64100  0.97800  1.0000
