data_image0
_chemical_formula_structural       AgNO3
_chemical_formula_sum              "Ag1 N1 O3"
_cell_length_a       3.94897
_cell_length_b       3.94897
_cell_length_c       3.94897
_cell_angle_alpha    100.419
_cell_angle_beta     79.5808
_cell_angle_gamma    100.419

_space_group_name_H-M_alt    "P 1"
_space_group_IT_number       1

loop_
  _space_group_symop_operation_xyz
  'x, y, z'

loop_
  _atom_site_type_symbol
  _atom_site_label
  _atom_site_symmetry_multiplicity
  _atom_site_fract_x
  _atom_site_fract_y
  _atom_site_fract_z
  _atom_site_occupancy
  Ag  Ag1       1.0  0.00139  0.99900  0.00139  1.0000
  N   N1        1.0  0.42600  0.57400  0.42600  1.0000
  O   O1        1.0  0.56800  0.43200  0.13400  1.0000
  O   O2        1.0  0.13400  0.43200  0.56800  1.0000
  O   O3        1.0  0.56800  0.86600  0.56800  1.0000
