data_image0
_chemical_formula_structural       Cr3F18Mn3Na3
_chemical_formula_sum              "Cr3 F18 Mn3 Na3"
_cell_length_a       8.83345
_cell_length_b       8.83345
_cell_length_c       4.70485
_cell_angle_alpha    89.9996
_cell_angle_beta     90.0004
_cell_angle_gamma    120.001

_space_group_name_H-M_alt    "P 1"
_space_group_IT_number       1

loop_
  _space_group_symop_operation_xyz
  'x, y, z'

loop_
  _atom_site_type_symbol
  _atom_site_label
  _atom_site_symmetry_multiplicity
  _atom_site_fract_x
  _atom_site_fract_y
  _atom_site_fract_z
  _atom_site_occupancy
  Cr  Cr1       1.0  0.00000  0.00000  0.00000  1.0000
  Cr  Cr2       1.0  0.33300  0.66700  0.49900  1.0000
  Cr  Cr3       1.0  0.66700  0.33300  0.50100  1.0000
  F   F1        1.0  0.79500  0.88800  0.23100  1.0000
  F   F2        1.0  0.11200  0.90600  0.23100  1.0000
  F   F3        1.0  0.09350  0.20500  0.23100  1.0000
  F   F4        1.0  0.46400  0.87100  0.27300  1.0000
  F   F5        1.0  0.40800  0.53600  0.27300  1.0000
  F   F6        1.0  0.12900  0.59200  0.27300  1.0000
  F   F7        1.0  0.77500  0.23200  0.27700  1.0000
  F   F8        1.0  0.76800  0.54200  0.27700  1.0000
  F   F9        1.0  0.45800  0.22500  0.27700  1.0000
  F   F10       1.0  0.23200  0.77500  0.72300  1.0000
  F   F11       1.0  0.54200  0.76800  0.72300  1.0000
  F   F12       1.0  0.22500  0.45800  0.72300  1.0000
  F   F13       1.0  0.59200  0.12900  0.72700  1.0000
  F   F14       1.0  0.87100  0.46400  0.72700  1.0000
  F   F15       1.0  0.53600  0.40800  0.72700  1.0000
  F   F16       1.0  0.88800  0.79500  0.76900  1.0000
  F   F17       1.0  0.90600  0.11200  0.76900  1.0000
  F   F18       1.0  0.20500  0.09350  0.76900  1.0000
  Mn  Mn1       1.0  0.70000  0.00000  0.50000  1.0000
  Mn  Mn2       1.0  0.30000  0.30000  0.50000  1.0000
  Mn  Mn3       1.0  0.00000  0.70000  0.50000  1.0000
  Na  Na1       1.0  0.36800  0.00000  0.00000  1.0000
  Na  Na2       1.0  0.00000  0.36800  0.00000  1.0000
  Na  Na3       1.0  0.63200  0.63200  0.00000  1.0000
