data_image0
_chemical_formula_structural       Co4Sm10
_chemical_formula_sum              "Co4 Sm10"
_cell_length_a       6.43396
_cell_length_b       6.96917
_cell_length_c       8.80618
_cell_angle_alpha    96.0037
_cell_angle_beta     111.427
_cell_angle_gamma    90

_space_group_name_H-M_alt    "P 1"
_space_group_IT_number       1

loop_
  _space_group_symop_operation_xyz
  'x, y, z'

loop_
  _atom_site_type_symbol
  _atom_site_label
  _atom_site_symmetry_multiplicity
  _atom_site_fract_x
  _atom_site_fract_y
  _atom_site_fract_z
  _atom_site_occupancy
  Co  Co1       1.0  0.40200  0.07270  0.22200  1.0000
  Co  Co2       1.0  0.82000  0.57300  0.22200  1.0000
  Co  Co3       1.0  0.18000  0.42700  0.77800  1.0000
  Co  Co4       1.0  0.59800  0.92700  0.77800  1.0000
  Sm  Sm1       1.0  0.57000  0.25000  0.00000  1.0000
  Sm  Sm2       1.0  0.43000  0.75000  0.00000  1.0000
  Sm  Sm3       1.0  0.20200  0.41400  0.18900  1.0000
  Sm  Sm4       1.0  0.98700  0.91400  0.18900  1.0000
  Sm  Sm5       1.0  0.78400  0.31700  0.43000  1.0000
  Sm  Sm6       1.0  0.64600  0.81700  0.43000  1.0000
  Sm  Sm7       1.0  0.35400  0.18300  0.57000  1.0000
  Sm  Sm8       1.0  0.21600  0.68300  0.57000  1.0000
  Sm  Sm9       1.0  0.01300  0.08600  0.81100  1.0000
  Sm  Sm10      1.0  0.79800  0.58600  0.81100  1.0000
