data_image0
_chemical_formula_structural       Li2O18P6Pb2
_chemical_formula_sum              "Li2 O18 P6 Pb2"
_cell_length_a       7.18157
_cell_length_b       7.32057
_cell_length_c       6.76967
_cell_angle_alpha    100.975
_cell_angle_beta     97.85
_cell_angle_gamma    84.0149

_space_group_name_H-M_alt    "P 1"
_space_group_IT_number       1

loop_
  _space_group_symop_operation_xyz
  'x, y, z'

loop_
  _atom_site_type_symbol
  _atom_site_label
  _atom_site_symmetry_multiplicity
  _atom_site_fract_x
  _atom_site_fract_y
  _atom_site_fract_z
  _atom_site_occupancy
  Li  Li1       1.0  0.16700  0.15400  0.45400  1.0000
  Li  Li2       1.0  0.83300  0.84600  0.54600  1.0000
  O   O1        1.0  0.22000  0.57500  0.00807  1.0000
  O   O2        1.0  0.43500  0.83800  0.06400  1.0000
  O   O3        1.0  0.11500  0.90800  0.18400  1.0000
  O   O4        1.0  0.01190  0.31000  0.26700  1.0000
  O   O5        1.0  0.85900  0.65100  0.30200  1.0000
  O   O6        1.0  0.66500  0.39100  0.31900  1.0000
  O   O7        1.0  0.35600  0.68200  0.35000  1.0000
  O   O8        1.0  0.40600  0.20000  0.35700  1.0000
  O   O9        1.0  0.75200  0.05270  0.37600  1.0000
  O   O10       1.0  0.24800  0.94700  0.62400  1.0000
  O   O11       1.0  0.59400  0.80000  0.64300  1.0000
  O   O12       1.0  0.64400  0.31800  0.65000  1.0000
  O   O13       1.0  0.33500  0.60900  0.68100  1.0000
  O   O14       1.0  0.14100  0.34900  0.69800  1.0000
  O   O15       1.0  0.98800  0.69000  0.73300  1.0000
  O   O16       1.0  0.88500  0.09150  0.81600  1.0000
  O   O17       1.0  0.56500  0.16200  0.93600  1.0000
  O   O18       1.0  0.78000  0.42500  0.99200  1.0000
  P   P1        1.0  0.28200  0.76700  0.15300  1.0000
  P   P2        1.0  0.84600  0.44600  0.23600  1.0000
  P   P3        1.0  0.61200  0.22000  0.41400  1.0000
  P   P4        1.0  0.38800  0.78000  0.58600  1.0000
  P   P5        1.0  0.15400  0.55400  0.76400  1.0000
  P   P6        1.0  0.71800  0.23300  0.84700  1.0000
  Pb  Pb1       1.0  0.77100  0.84500  0.02070  1.0000
  Pb  Pb2       1.0  0.22900  0.15500  0.97900  1.0000
