data_image0
_chemical_formula_structural       Cs8O16S4
_chemical_formula_sum              "Cs8 O16 S4"
_cell_length_a       8.16471
_cell_length_b       10.847
_cell_length_c       6.20586
_cell_angle_alpha    90
_cell_angle_beta     90
_cell_angle_gamma    90

_space_group_name_H-M_alt    "P 1"
_space_group_IT_number       1

loop_
  _space_group_symop_operation_xyz
  'x, y, z'

loop_
  _atom_site_type_symbol
  _atom_site_label
  _atom_site_symmetry_multiplicity
  _atom_site_fract_x
  _atom_site_fract_y
  _atom_site_fract_z
  _atom_site_occupancy
  Cs  Cs1       1.0  0.17600  0.09100  0.25000  1.0000
  Cs  Cs2       1.0  0.67600  0.40900  0.25000  1.0000
  Cs  Cs3       1.0  0.98800  0.70000  0.25000  1.0000
  Cs  Cs4       1.0  0.48800  0.80000  0.25000  1.0000
  Cs  Cs5       1.0  0.51200  0.20000  0.75000  1.0000
  Cs  Cs6       1.0  0.01170  0.30000  0.75000  1.0000
  Cs  Cs7       1.0  0.32400  0.59100  0.75000  1.0000
  Cs  Cs8       1.0  0.82400  0.90900  0.75000  1.0000
  O   O1        1.0  0.80500  0.14600  0.05330  1.0000
  O   O2        1.0  0.30500  0.35400  0.05330  1.0000
  O   O3        1.0  0.55800  0.08730  0.25000  1.0000
  O   O4        1.0  0.05810  0.41300  0.25000  1.0000
  O   O5        1.0  0.29900  0.54900  0.25000  1.0000
  O   O6        1.0  0.79900  0.95100  0.25000  1.0000
  O   O7        1.0  0.80500  0.14600  0.44700  1.0000
  O   O8        1.0  0.30500  0.35400  0.44700  1.0000
  O   O9        1.0  0.69500  0.64600  0.55300  1.0000
  O   O10       1.0  0.19500  0.85400  0.55300  1.0000
  O   O11       1.0  0.20100  0.04860  0.75000  1.0000
  O   O12       1.0  0.70100  0.45100  0.75000  1.0000
  O   O13       1.0  0.94200  0.58700  0.75000  1.0000
  O   O14       1.0  0.44200  0.91300  0.75000  1.0000
  O   O15       1.0  0.69500  0.64600  0.94700  1.0000
  O   O16       1.0  0.19500  0.85400  0.94700  1.0000
  S   S1        1.0  0.74100  0.08230  0.25000  1.0000
  S   S2        1.0  0.24100  0.41800  0.25000  1.0000
  S   S3        1.0  0.75900  0.58200  0.75000  1.0000
  S   S4        1.0  0.25900  0.91800  0.75000  1.0000
