data_image0
_chemical_formula_structural       Cl20Pb8Tl4
_chemical_formula_sum              "Cl20 Pb8 Tl4"
_cell_length_a       8.99092
_cell_length_b       7.98789
_cell_length_c       12.6386
_cell_angle_alpha    90
_cell_angle_beta     90.1602
_cell_angle_gamma    90

_space_group_name_H-M_alt    "P 1"
_space_group_IT_number       1

loop_
  _space_group_symop_operation_xyz
  'x, y, z'

loop_
  _atom_site_type_symbol
  _atom_site_label
  _atom_site_symmetry_multiplicity
  _atom_site_fract_x
  _atom_site_fract_y
  _atom_site_fract_z
  _atom_site_occupancy
  Cl  Cl1       1.0  0.78100  0.95600  0.00166  1.0000
  Cl  Cl2       1.0  0.46200  0.67600  0.08270  1.0000
  Cl  Cl3       1.0  0.04030  0.66500  0.09900  1.0000
  Cl  Cl4       1.0  0.77700  0.34400  0.18800  1.0000
  Cl  Cl5       1.0  0.22900  0.31500  0.21900  1.0000
  Cl  Cl6       1.0  0.77100  0.81500  0.28100  1.0000
  Cl  Cl7       1.0  0.22300  0.84400  0.31200  1.0000
  Cl  Cl8       1.0  0.96000  0.16500  0.40100  1.0000
  Cl  Cl9       1.0  0.53800  0.17600  0.41700  1.0000
  Cl  Cl10      1.0  0.21900  0.45600  0.49800  1.0000
  Cl  Cl11      1.0  0.78100  0.54400  0.50200  1.0000
  Cl  Cl12      1.0  0.46200  0.82400  0.58300  1.0000
  Cl  Cl13      1.0  0.04030  0.83500  0.59900  1.0000
  Cl  Cl14      1.0  0.77700  0.15600  0.68800  1.0000
  Cl  Cl15      1.0  0.22900  0.18500  0.71900  1.0000
  Cl  Cl16      1.0  0.77100  0.68500  0.78100  1.0000
  Cl  Cl17      1.0  0.22300  0.65600  0.81200  1.0000
  Cl  Cl18      1.0  0.96000  0.33500  0.90100  1.0000
  Cl  Cl19      1.0  0.53800  0.32400  0.91700  1.0000
  Cl  Cl20      1.0  0.21900  0.04430  0.99800  1.0000
  Pb  Pb1       1.0  0.74700  0.56400  0.00544  1.0000
  Pb  Pb2       1.0  0.00636  0.01080  0.17600  1.0000
  Pb  Pb3       1.0  0.99400  0.51100  0.32400  1.0000
  Pb  Pb4       1.0  0.25300  0.06400  0.49500  1.0000
  Pb  Pb5       1.0  0.74700  0.93600  0.50500  1.0000
  Pb  Pb6       1.0  0.00636  0.48900  0.67600  1.0000
  Pb  Pb7       1.0  0.99400  0.98900  0.82400  1.0000
  Pb  Pb8       1.0  0.25300  0.43600  0.99500  1.0000
  Tl  Tl1       1.0  0.51100  0.04960  0.16800  1.0000
  Tl  Tl2       1.0  0.48900  0.55000  0.33200  1.0000
  Tl  Tl3       1.0  0.51100  0.45000  0.66800  1.0000
  Tl  Tl4       1.0  0.48900  0.95000  0.83200  1.0000
