data_image0
_chemical_formula_structural       Ca4Cl8H16O8
_chemical_formula_sum              "Ca4 Cl8 H16 O8"
_cell_length_a       5.86843
_cell_length_b       7.35259
_cell_length_c       11.9097
_cell_angle_alpha    90
_cell_angle_beta     90
_cell_angle_gamma    90

_space_group_name_H-M_alt    "P 1"
_space_group_IT_number       1

loop_
  _space_group_symop_operation_xyz
  'x, y, z'

loop_
  _atom_site_type_symbol
  _atom_site_label
  _atom_site_symmetry_multiplicity
  _atom_site_fract_x
  _atom_site_fract_y
  _atom_site_fract_z
  _atom_site_occupancy
  Ca  Ca1       1.0  0.00000  0.22500  0.25000  1.0000
  Ca  Ca2       1.0  0.50000  0.72500  0.25000  1.0000
  Ca  Ca3       1.0  0.50000  0.27500  0.75000  1.0000
  Ca  Ca4       1.0  0.00000  0.77500  0.75000  1.0000
  Cl  Cl1       1.0  0.71500  0.45000  0.13200  1.0000
  Cl  Cl2       1.0  0.78500  0.95000  0.13200  1.0000
  Cl  Cl3       1.0  0.28500  0.45000  0.36800  1.0000
  Cl  Cl4       1.0  0.21500  0.95000  0.36800  1.0000
  Cl  Cl5       1.0  0.78500  0.05000  0.63200  1.0000
  Cl  Cl6       1.0  0.71500  0.55000  0.63200  1.0000
  Cl  Cl7       1.0  0.21500  0.05000  0.86800  1.0000
  Cl  Cl8       1.0  0.28500  0.55000  0.86800  1.0000
  H   H1        1.0  0.26100  0.15400  0.03490  1.0000
  H   H2        1.0  0.23900  0.65400  0.03490  1.0000
  H   H3        1.0  0.41600  0.27900  0.11200  1.0000
  H   H4        1.0  0.08420  0.77900  0.11200  1.0000
  H   H5        1.0  0.58400  0.27900  0.38800  1.0000
  H   H6        1.0  0.91600  0.77900  0.38800  1.0000
  H   H7        1.0  0.73900  0.15400  0.46500  1.0000
  H   H8        1.0  0.76100  0.65400  0.46500  1.0000
  H   H9        1.0  0.23900  0.34600  0.53500  1.0000
  H   H10       1.0  0.26100  0.84600  0.53500  1.0000
  H   H11       1.0  0.08420  0.22100  0.61200  1.0000
  H   H12       1.0  0.41600  0.72100  0.61200  1.0000
  H   H13       1.0  0.91600  0.22100  0.88800  1.0000
  H   H14       1.0  0.58400  0.72100  0.88800  1.0000
  H   H15       1.0  0.76100  0.34600  0.96500  1.0000
  H   H16       1.0  0.73900  0.84600  0.96500  1.0000
  O   O1        1.0  0.26800  0.21500  0.10800  1.0000
  O   O2        1.0  0.23200  0.71500  0.10800  1.0000
  O   O3        1.0  0.73200  0.21500  0.39200  1.0000
  O   O4        1.0  0.76800  0.71500  0.39200  1.0000
  O   O5        1.0  0.23200  0.28500  0.60800  1.0000
  O   O6        1.0  0.26800  0.78500  0.60800  1.0000
  O   O7        1.0  0.76800  0.28500  0.89200  1.0000
  O   O8        1.0  0.73200  0.78500  0.89200  1.0000
