data_image0
_chemical_formula_structural       B52H76
_chemical_formula_sum              "B52 H76"
_cell_length_a       8.92282
_cell_length_b       6.2478
_cell_length_c       18.9407
_cell_angle_alpha    90
_cell_angle_beta     97.3373
_cell_angle_gamma    90

_space_group_name_H-M_alt    "P 1"
_space_group_IT_number       1

loop_
  _space_group_symop_operation_xyz
  'x, y, z'

loop_
  _atom_site_type_symbol
  _atom_site_label
  _atom_site_symmetry_multiplicity
  _atom_site_fract_x
  _atom_site_fract_y
  _atom_site_fract_z
  _atom_site_occupancy
  B   B1        1.0  0.40500  0.70300  0.06550  1.0000
  B   B2        1.0  0.84000  0.60900  0.08480  1.0000
  B   B3        1.0  0.23700  0.81100  0.08480  1.0000
  B   B4        1.0  0.39800  0.97100  0.09070  1.0000
  B   B5        1.0  0.73800  0.84600  0.09960  1.0000
  B   B6        1.0  0.28800  0.55200  0.11200  1.0000
  B   B7        1.0  0.55200  0.81500  0.13300  1.0000
  B   B8        1.0  0.48400  0.54100  0.14200  1.0000
  B   B9        1.0  0.86900  0.46500  0.16400  1.0000
  B   B10       1.0  0.88200  0.74100  0.16500  1.0000
  B   B11       1.0  0.71500  0.85800  0.19100  1.0000
  B   B12       1.0  0.58200  0.67900  0.21300  1.0000
  B   B13       1.0  0.77800  0.60700  0.22800  1.0000
  B   B14       1.0  0.22200  0.10700  0.27200  1.0000
  B   B15       1.0  0.41800  0.17900  0.28700  1.0000
  B   B16       1.0  0.28500  0.35800  0.30900  1.0000
  B   B17       1.0  0.11800  0.24100  0.33500  1.0000
  B   B18       1.0  0.13100  0.96500  0.33600  1.0000
  B   B19       1.0  0.51600  0.04080  0.35800  1.0000
  B   B20       1.0  0.44800  0.31500  0.36700  1.0000
  B   B21       1.0  0.71200  0.05180  0.38800  1.0000
  B   B22       1.0  0.26200  0.34600  0.40000  1.0000
  B   B23       1.0  0.60200  0.47100  0.40900  1.0000
  B   B24       1.0  0.76300  0.31100  0.41500  1.0000
  B   B25       1.0  0.16000  0.10900  0.41500  1.0000
  B   B26       1.0  0.59500  0.20300  0.43500  1.0000
  B   B27       1.0  0.40500  0.79700  0.56500  1.0000
  B   B28       1.0  0.84000  0.89100  0.58500  1.0000
  B   B29       1.0  0.23700  0.68900  0.58500  1.0000
  B   B30       1.0  0.39800  0.52900  0.59100  1.0000
  B   B31       1.0  0.73800  0.65400  0.60000  1.0000
  B   B32       1.0  0.28800  0.94800  0.61200  1.0000
  B   B33       1.0  0.55200  0.68500  0.63300  1.0000
  B   B34       1.0  0.48400  0.95900  0.64200  1.0000
  B   B35       1.0  0.86900  0.03480  0.66400  1.0000
  B   B36       1.0  0.88200  0.75900  0.66500  1.0000
  B   B37       1.0  0.71500  0.64200  0.69100  1.0000
  B   B38       1.0  0.58200  0.82100  0.71300  1.0000
  B   B39       1.0  0.77800  0.89300  0.72800  1.0000
  B   B40       1.0  0.22200  0.39300  0.77200  1.0000
  B   B41       1.0  0.41800  0.32100  0.78700  1.0000
  B   B42       1.0  0.28500  0.14200  0.80900  1.0000
  B   B43       1.0  0.11800  0.25900  0.83500  1.0000
  B   B44       1.0  0.13100  0.53500  0.83600  1.0000
  B   B45       1.0  0.51600  0.45900  0.85800  1.0000
  B   B46       1.0  0.44800  0.18500  0.86700  1.0000
  B   B47       1.0  0.71200  0.44800  0.88800  1.0000
  B   B48       1.0  0.26200  0.15400  0.90000  1.0000
  B   B49       1.0  0.60200  0.02850  0.90900  1.0000
  B   B50       1.0  0.76300  0.18900  0.91500  1.0000
  B   B51       1.0  0.16000  0.39100  0.91500  1.0000
  B   B52       1.0  0.59500  0.29700  0.93500  1.0000
  H   H1        1.0  0.42700  0.66000  0.00641  1.0000
  H   H2        1.0  0.91200  0.58300  0.03680  1.0000
  H   H3        1.0  0.12400  0.84900  0.04620  1.0000
  H   H4        1.0  0.40500  0.11700  0.05100  1.0000
  H   H5        1.0  0.69900  0.67800  0.05880  1.0000
  H   H6        1.0  0.75800  0.99500  0.06270  1.0000
  H   H7        1.0  0.20900  0.40600  0.09110  1.0000
  H   H8        1.0  0.78800  0.41500  0.10200  1.0000
  H   H9        1.0  0.53800  0.38000  0.12100  1.0000
  H   H10       1.0  0.27600  0.99000  0.12400  1.0000
  H   H11       1.0  0.20200  0.69800  0.14100  1.0000
  H   H12       1.0  0.48100  0.00341  0.15000  1.0000
  H   H13       1.0  0.36600  0.50300  0.17500  1.0000
  H   H14       1.0  0.96700  0.33600  0.17600  1.0000
  H   H15       1.0  0.99900  0.83200  0.18100  1.0000
  H   H16       1.0  0.75200  0.41700  0.19900  1.0000
  H   H17       1.0  0.16200  0.08470  0.21200  1.0000
  H   H18       1.0  0.73600  0.02710  0.22100  1.0000
  H   H19       1.0  0.48600  0.22100  0.23800  1.0000
  H   H20       1.0  0.51400  0.72100  0.26200  1.0000
  H   H21       1.0  0.26400  0.52700  0.27900  1.0000
  H   H22       1.0  0.83800  0.58500  0.28800  1.0000
  H   H23       1.0  0.24800  0.91700  0.30100  1.0000
  H   H24       1.0  0.00085  0.33200  0.31900  1.0000
  H   H25       1.0  0.03280  0.83600  0.32400  1.0000
  H   H26       1.0  0.63400  0.00334  0.32500  1.0000
  H   H27       1.0  0.51900  0.50300  0.35000  1.0000
  H   H28       1.0  0.79800  0.19800  0.35900  1.0000
  H   H29       1.0  0.72400  0.49000  0.37600  1.0000
  H   H30       1.0  0.46200  0.88000  0.37900  1.0000
  H   H31       1.0  0.21200  0.91500  0.39800  1.0000
  H   H32       1.0  0.79100  0.90600  0.40900  1.0000
  H   H33       1.0  0.24200  0.49500  0.43700  1.0000
  H   H34       1.0  0.30100  0.17800  0.44100  1.0000
  H   H35       1.0  0.59500  0.61700  0.44900  1.0000
  H   H36       1.0  0.87600  0.34900  0.45400  1.0000
  H   H37       1.0  0.08790  0.08320  0.46300  1.0000
  H   H38       1.0  0.57300  0.16000  0.49400  1.0000
  H   H39       1.0  0.42700  0.84000  0.50600  1.0000
  H   H40       1.0  0.91200  0.91700  0.53700  1.0000
  H   H41       1.0  0.12400  0.65100  0.54600  1.0000
  H   H42       1.0  0.40500  0.38300  0.55100  1.0000
  H   H43       1.0  0.69900  0.82200  0.55900  1.0000
  H   H44       1.0  0.75800  0.50500  0.56300  1.0000
  H   H45       1.0  0.20900  0.09450  0.59100  1.0000
  H   H46       1.0  0.78800  0.08480  0.60200  1.0000
  H   H47       1.0  0.53800  0.12000  0.62100  1.0000
  H   H48       1.0  0.27600  0.51000  0.62400  1.0000
  H   H49       1.0  0.20200  0.80200  0.64100  1.0000
  H   H50       1.0  0.48100  0.49700  0.65000  1.0000
  H   H51       1.0  0.36600  0.99700  0.67500  1.0000
  H   H52       1.0  0.96700  0.16400  0.67600  1.0000
  H   H53       1.0  0.99900  0.66800  0.68100  1.0000
  H   H54       1.0  0.75200  0.08310  0.69900  1.0000
  H   H55       1.0  0.16200  0.41500  0.71200  1.0000
  H   H56       1.0  0.73600  0.47300  0.72100  1.0000
  H   H57       1.0  0.48600  0.27900  0.73800  1.0000
  H   H58       1.0  0.51400  0.77900  0.76200  1.0000
  H   H59       1.0  0.26400  0.97300  0.77900  1.0000
  H   H60       1.0  0.83800  0.91500  0.78800  1.0000
  H   H61       1.0  0.24800  0.58300  0.80100  1.0000
  H   H62       1.0  0.00085  0.16800  0.81900  1.0000
  H   H63       1.0  0.03280  0.66400  0.82400  1.0000
  H   H64       1.0  0.63400  0.49700  0.82500  1.0000
  H   H65       1.0  0.51900  0.99700  0.85000  1.0000
  H   H66       1.0  0.79800  0.30200  0.85900  1.0000
  H   H67       1.0  0.72400  0.01030  0.87600  1.0000
  H   H68       1.0  0.46200  0.62000  0.87900  1.0000
  H   H69       1.0  0.21200  0.58500  0.89800  1.0000
  H   H70       1.0  0.79100  0.59400  0.90900  1.0000
  H   H71       1.0  0.24200  0.00506  0.93700  1.0000
  H   H72       1.0  0.30100  0.32200  0.94100  1.0000
  H   H73       1.0  0.59500  0.88300  0.94900  1.0000
  H   H74       1.0  0.87600  0.15100  0.95400  1.0000
  H   H75       1.0  0.08790  0.41700  0.96300  1.0000
  H   H76       1.0  0.57300  0.34000  0.99400  1.0000
