data_image0
_chemical_formula_structural       AlCoLi4O6
_chemical_formula_sum              "Al1 Co1 Li4 O6"
_cell_length_a       4.86402
_cell_length_b       4.86402
_cell_length_c       4.96976
_cell_angle_alpha    99.553
_cell_angle_beta     99.553
_cell_angle_gamma    119.958

_space_group_name_H-M_alt    "P 1"
_space_group_IT_number       1

loop_
  _space_group_symop_operation_xyz
  'x, y, z'

loop_
  _atom_site_type_symbol
  _atom_site_label
  _atom_site_symmetry_multiplicity
  _atom_site_fract_x
  _atom_site_fract_y
  _atom_site_fract_z
  _atom_site_occupancy
  Al  Al1       1.0  0.16600  0.83400  0.00000  1.0000
  Co  Co1       1.0  0.83300  0.16700  0.00000  1.0000
  Li  Li1       1.0  0.50100  0.49900  0.00000  1.0000
  Li  Li2       1.0  0.98700  0.01310  0.50000  1.0000
  Li  Li3       1.0  0.66400  0.33600  0.50000  1.0000
  Li  Li4       1.0  0.34400  0.65600  0.50000  1.0000
  O   O1        1.0  0.57900  0.93600  0.22200  1.0000
  O   O2        1.0  0.93500  0.57100  0.22600  1.0000
  O   O3        1.0  0.21500  0.21700  0.22800  1.0000
  O   O4        1.0  0.78300  0.78500  0.77200  1.0000
  O   O5        1.0  0.42900  0.06520  0.77400  1.0000
  O   O6        1.0  0.06370  0.42100  0.77800  1.0000
