data_image0
_chemical_formula_structural       Co2I8Rb4
_chemical_formula_sum              "Co2 I8 Rb4"
_cell_length_a       10.4795
_cell_length_b       8.17397
_cell_length_c       7.72273
_cell_angle_alpha    90
_cell_angle_beta     109.592
_cell_angle_gamma    90

_space_group_name_H-M_alt    "P 1"
_space_group_IT_number       1

loop_
  _space_group_symop_operation_xyz
  'x, y, z'

loop_
  _atom_site_type_symbol
  _atom_site_label
  _atom_site_symmetry_multiplicity
  _atom_site_fract_x
  _atom_site_fract_y
  _atom_site_fract_z
  _atom_site_occupancy
  Co  Co1       1.0  0.21400  0.25000  0.30300  1.0000
  Co  Co2       1.0  0.78600  0.75000  0.69700  1.0000
  I   I1        1.0  0.35500  0.25000  0.08520  1.0000
  I   I2        1.0  0.95400  0.25000  0.13900  1.0000
  I   I3        1.0  0.72200  0.00067  0.48200  1.0000
  I   I4        1.0  0.72200  0.49900  0.48200  1.0000
  I   I5        1.0  0.27800  0.50100  0.51800  1.0000
  I   I6        1.0  0.27800  0.99900  0.51800  1.0000
  I   I7        1.0  0.04600  0.75000  0.86100  1.0000
  I   I8        1.0  0.64500  0.75000  0.91500  1.0000
  Rb  Rb1       1.0  0.41300  0.75000  0.19900  1.0000
  Rb  Rb2       1.0  0.96300  0.75000  0.30200  1.0000
  Rb  Rb3       1.0  0.03650  0.25000  0.69800  1.0000
  Rb  Rb4       1.0  0.58700  0.25000  0.80100  1.0000
