data_image0
_chemical_formula_structural       Cl4O16Rb4S4Zn4
_chemical_formula_sum              "Cl4 O16 Rb4 S4 Zn4"
_cell_length_a       7.14637
_cell_length_b       9.60886
_cell_length_c       8.26812
_cell_angle_alpha    90
_cell_angle_beta     95.5013
_cell_angle_gamma    90

_space_group_name_H-M_alt    "P 1"
_space_group_IT_number       1

loop_
  _space_group_symop_operation_xyz
  'x, y, z'

loop_
  _atom_site_type_symbol
  _atom_site_label
  _atom_site_symmetry_multiplicity
  _atom_site_fract_x
  _atom_site_fract_y
  _atom_site_fract_z
  _atom_site_occupancy
  Cl  Cl1       1.0  0.61400  0.31800  0.03570  1.0000
  Cl  Cl2       1.0  0.38600  0.81800  0.46400  1.0000
  Cl  Cl3       1.0  0.61400  0.18200  0.53600  1.0000
  Cl  Cl4       1.0  0.38600  0.68200  0.96400  1.0000
  O   O1        1.0  0.11700  0.33900  0.12300  1.0000
  O   O2        1.0  0.03650  0.87900  0.12700  1.0000
  O   O3        1.0  0.70500  0.93800  0.14400  1.0000
  O   O4        1.0  0.03540  0.57200  0.21600  1.0000
  O   O5        1.0  0.96500  0.07220  0.28400  1.0000
  O   O6        1.0  0.29500  0.43800  0.35600  1.0000
  O   O7        1.0  0.96400  0.37900  0.37300  1.0000
  O   O8        1.0  0.88300  0.83900  0.37700  1.0000
  O   O9        1.0  0.11700  0.16100  0.62300  1.0000
  O   O10       1.0  0.03650  0.62100  0.62700  1.0000
  O   O11       1.0  0.70500  0.56200  0.64400  1.0000
  O   O12       1.0  0.03540  0.92800  0.71600  1.0000
  O   O13       1.0  0.96500  0.42800  0.78400  1.0000
  O   O14       1.0  0.29500  0.06190  0.85600  1.0000
  O   O15       1.0  0.96400  0.12100  0.87300  1.0000
  O   O16       1.0  0.88300  0.66100  0.87700  1.0000
  Rb  Rb1       1.0  0.36200  0.08210  0.20300  1.0000
  Rb  Rb2       1.0  0.63800  0.58200  0.29700  1.0000
  Rb  Rb3       1.0  0.36200  0.41800  0.70300  1.0000
  Rb  Rb4       1.0  0.63800  0.91800  0.79700  1.0000
  S   S1        1.0  0.89100  0.93100  0.23100  1.0000
  S   S2        1.0  0.10900  0.43100  0.26900  1.0000
  S   S3        1.0  0.89100  0.56900  0.73100  1.0000
  S   S4        1.0  0.10900  0.06850  0.76900  1.0000
  Zn  Zn1       1.0  0.10100  0.69700  0.03910  1.0000
  Zn  Zn2       1.0  0.89900  0.19700  0.46100  1.0000
  Zn  Zn3       1.0  0.10100  0.80300  0.53900  1.0000
  Zn  Zn4       1.0  0.89900  0.30300  0.96100  1.0000
