data_image0
_chemical_formula_structural       CoLi4O6Tc
_chemical_formula_sum              "Co1 Li4 O6 Tc1"
_cell_length_a       5.0435
_cell_length_b       5.0435
_cell_length_c       5.03214
_cell_angle_alpha    99.7448
_cell_angle_beta     99.7448
_cell_angle_gamma    119.894

_space_group_name_H-M_alt    "P 1"
_space_group_IT_number       1

loop_
  _space_group_symop_operation_xyz
  'x, y, z'

loop_
  _atom_site_type_symbol
  _atom_site_label
  _atom_site_symmetry_multiplicity
  _atom_site_fract_x
  _atom_site_fract_y
  _atom_site_fract_z
  _atom_site_occupancy
  Co  Co1       1.0  0.83300  0.16700  0.00000  1.0000
  Li  Li1       1.0  0.50000  0.50000  0.00000  1.0000
  Li  Li2       1.0  0.99600  0.00445  0.50000  1.0000
  Li  Li3       1.0  0.66200  0.33800  0.50000  1.0000
  Li  Li4       1.0  0.34300  0.65700  0.50000  1.0000
  O   O1        1.0  0.93100  0.59400  0.23500  1.0000
  O   O2        1.0  0.24200  0.22800  0.23600  1.0000
  O   O3        1.0  0.56400  0.91600  0.23800  1.0000
  O   O4        1.0  0.08400  0.43600  0.76200  1.0000
  O   O5        1.0  0.77200  0.75800  0.76400  1.0000
  O   O6        1.0  0.40600  0.06870  0.76500  1.0000
  Tc  Tc1       1.0  0.16800  0.83300  0.00000  1.0000
