data_image0
_chemical_formula_structural       Ag8P4S14
_chemical_formula_sum              "Ag8 P4 S14"
_cell_length_a       6.37111
_cell_length_b       6.37111
_cell_length_c       16.1083
_cell_angle_alpha    93.6767
_cell_angle_beta     98.5483
_cell_angle_gamma    117.519

_space_group_name_H-M_alt    "P 1"
_space_group_IT_number       1

loop_
  _space_group_symop_operation_xyz
  'x, y, z'

loop_
  _atom_site_type_symbol
  _atom_site_label
  _atom_site_symmetry_multiplicity
  _atom_site_fract_x
  _atom_site_fract_y
  _atom_site_fract_z
  _atom_site_occupancy
  Ag  Ag1       1.0  0.23200  0.26000  0.05420  1.0000
  Ag  Ag2       1.0  0.71600  0.03890  0.16200  1.0000
  Ag  Ag3       1.0  0.37700  0.55400  0.33800  1.0000
  Ag  Ag4       1.0  0.70600  0.17800  0.44600  1.0000
  Ag  Ag5       1.0  0.29400  0.82200  0.55400  1.0000
  Ag  Ag6       1.0  0.62300  0.44600  0.66200  1.0000
  Ag  Ag7       1.0  0.28400  0.96100  0.83800  1.0000
  Ag  Ag8       1.0  0.76800  0.74000  0.94600  1.0000
  P   P1        1.0  0.07690  0.71600  0.14400  1.0000
  P   P2        1.0  0.07260  0.93300  0.35600  1.0000
  P   P3        1.0  0.92700  0.06670  0.64400  1.0000
  P   P4        1.0  0.92300  0.28400  0.85600  1.0000
  S   S1        1.0  0.30500  0.89600  0.06550  1.0000
  S   S2        1.0  0.73200  0.64400  0.09850  1.0000
  S   S3        1.0  0.11500  0.42400  0.17700  1.0000
  S   S4        1.0  0.24900  0.99900  0.25000  1.0000
  S   S5        1.0  0.74700  0.93800  0.32300  1.0000
  S   S6        1.0  0.04510  0.63300  0.40200  1.0000
  S   S7        1.0  0.33100  0.24000  0.43500  1.0000
  S   S8        1.0  0.66900  0.76000  0.56500  1.0000
  S   S9        1.0  0.95500  0.36700  0.59800  1.0000
  S   S10       1.0  0.25300  0.06210  0.67700  1.0000
  S   S11       1.0  0.75100  0.00097  0.75000  1.0000
  S   S12       1.0  0.88500  0.57600  0.82300  1.0000
  S   S13       1.0  0.26800  0.35600  0.90200  1.0000
  S   S14       1.0  0.69500  0.10400  0.93500  1.0000
