data_image0
_chemical_formula_structural       CoLi4O6Ti
_chemical_formula_sum              "Co1 Li4 O6 Ti1"
_cell_length_a       5.00184
_cell_length_b       5.00184
_cell_length_c       5.03312
_cell_angle_alpha    99.6151
_cell_angle_beta     99.6151
_cell_angle_gamma    119.917

_space_group_name_H-M_alt    "P 1"
_space_group_IT_number       1

loop_
  _space_group_symop_operation_xyz
  'x, y, z'

loop_
  _atom_site_type_symbol
  _atom_site_label
  _atom_site_symmetry_multiplicity
  _atom_site_fract_x
  _atom_site_fract_y
  _atom_site_fract_z
  _atom_site_occupancy
  Co  Co1       1.0  0.83000  0.17000  0.00000  1.0000
  Li  Li1       1.0  0.50000  0.50000  0.00000  1.0000
  Li  Li2       1.0  0.99400  0.00579  0.50000  1.0000
  Li  Li3       1.0  0.66200  0.33800  0.50000  1.0000
  Li  Li4       1.0  0.34300  0.65700  0.50000  1.0000
  O   O1        1.0  0.58000  0.92900  0.23100  1.0000
  O   O2        1.0  0.92800  0.57600  0.23300  1.0000
  O   O3        1.0  0.22800  0.22700  0.23500  1.0000
  O   O4        1.0  0.77300  0.77200  0.76500  1.0000
  O   O5        1.0  0.42400  0.07150  0.76700  1.0000
  O   O6        1.0  0.07140  0.42000  0.76900  1.0000
  Ti  Ti1       1.0  0.16600  0.83400  0.00000  1.0000
