data_image0
_chemical_formula_structural       Cd2H12O14P4
_chemical_formula_sum              "Cd2 H12 O14 P4"
_cell_length_a       6.73555
_cell_length_b       7.30837
_cell_length_c       7.89075
_cell_angle_alpha    113.632
_cell_angle_beta     111.365
_cell_angle_gamma    94.6493

_space_group_name_H-M_alt    "P 1"
_space_group_IT_number       1

loop_
  _space_group_symop_operation_xyz
  'x, y, z'

loop_
  _atom_site_type_symbol
  _atom_site_label
  _atom_site_symmetry_multiplicity
  _atom_site_fract_x
  _atom_site_fract_y
  _atom_site_fract_z
  _atom_site_occupancy
  Cd  Cd1       1.0  0.43100  0.23800  0.13500  1.0000
  Cd  Cd2       1.0  0.56900  0.76200  0.86500  1.0000
  H   H1        1.0  0.86400  0.45400  0.09460  1.0000
  H   H2        1.0  0.97700  0.80800  0.19800  1.0000
  H   H3        1.0  0.10200  0.25200  0.36800  1.0000
  H   H4        1.0  0.36600  0.66200  0.43200  1.0000
  H   H5        1.0  0.65200  0.95000  0.44600  1.0000
  H   H6        1.0  0.81700  0.27500  0.48100  1.0000
  H   H7        1.0  0.18300  0.72500  0.51900  1.0000
  H   H8        1.0  0.34800  0.05010  0.55400  1.0000
  H   H9        1.0  0.63400  0.33800  0.56800  1.0000
  H   H10       1.0  0.89800  0.74800  0.63200  1.0000
  H   H11       1.0  0.02320  0.19200  0.80200  1.0000
  H   H12       1.0  0.13600  0.54600  0.90500  1.0000
  O   O1        1.0  0.68700  0.12200  0.01840  1.0000
  O   O2        1.0  0.75500  0.76700  0.17800  1.0000
  O   O3        1.0  0.11000  0.25600  0.18100  1.0000
  O   O4        1.0  0.12900  0.82600  0.19200  1.0000
  O   O5        1.0  0.49500  0.58900  0.27300  1.0000
  O   O6        1.0  0.65900  0.27000  0.44300  1.0000
  O   O7        1.0  0.08730  0.24900  0.49400  1.0000
  O   O8        1.0  0.91300  0.75100  0.50600  1.0000
  O   O9        1.0  0.34100  0.73000  0.55700  1.0000
  O   O10       1.0  0.50500  0.41100  0.72700  1.0000
  O   O11       1.0  0.87100  0.17400  0.80800  1.0000
  O   O12       1.0  0.89000  0.74400  0.81900  1.0000
  O   O13       1.0  0.24500  0.23300  0.82200  1.0000
  O   O14       1.0  0.31300  0.87800  0.98200  1.0000
  P   P1        1.0  0.88600  0.25100  0.02910  1.0000
  P   P2        1.0  0.69400  0.76200  0.34500  1.0000
  P   P3        1.0  0.30600  0.23800  0.65500  1.0000
  P   P4        1.0  0.11400  0.74900  0.97100  1.0000
