data_image0
_chemical_formula_structural       CoGaLi4O6
_chemical_formula_sum              "Co1 Ga1 Li4 O6"
_cell_length_a       4.95486
_cell_length_b       4.95486
_cell_length_c       4.98794
_cell_angle_alpha    99.6048
_cell_angle_beta     99.6048
_cell_angle_gamma    120.081

_space_group_name_H-M_alt    "P 1"
_space_group_IT_number       1

loop_
  _space_group_symop_operation_xyz
  'x, y, z'

loop_
  _atom_site_type_symbol
  _atom_site_label
  _atom_site_symmetry_multiplicity
  _atom_site_fract_x
  _atom_site_fract_y
  _atom_site_fract_z
  _atom_site_occupancy
  Co  Co1       1.0  0.16700  0.83300  0.00000  1.0000
  Ga  Ga1       1.0  0.83500  0.16500  0.00000  1.0000
  Li  Li1       1.0  0.49800  0.50200  0.00000  1.0000
  Li  Li2       1.0  0.01070  0.98900  0.50000  1.0000
  Li  Li3       1.0  0.65800  0.34200  0.50000  1.0000
  Li  Li4       1.0  0.33500  0.66500  0.50000  1.0000
  O   O1        1.0  0.94000  0.59300  0.22300  1.0000
  O   O2        1.0  0.56100  0.92700  0.23200  1.0000
  O   O3        1.0  0.22800  0.21500  0.23300  1.0000
  O   O4        1.0  0.78500  0.77200  0.76700  1.0000
  O   O5        1.0  0.07330  0.43900  0.76800  1.0000
  O   O6        1.0  0.40700  0.05970  0.77700  1.0000
