data_image0
_chemical_formula_structural       Cl20Pb4Tl12
_chemical_formula_sum              "Cl20 Pb4 Tl12"
_cell_length_a       8.54037
_cell_length_b       8.54037
_cell_length_c       14.9803
_cell_angle_alpha    90
_cell_angle_beta     90
_cell_angle_gamma    90

_space_group_name_H-M_alt    "P 1"
_space_group_IT_number       1

loop_
  _space_group_symop_operation_xyz
  'x, y, z'

loop_
  _atom_site_type_symbol
  _atom_site_label
  _atom_site_symmetry_multiplicity
  _atom_site_fract_x
  _atom_site_fract_y
  _atom_site_fract_z
  _atom_site_occupancy
  Cl  Cl1       1.0  0.47900  0.35600  0.00970  1.0000
  Cl  Cl2       1.0  0.02050  0.33100  0.10400  1.0000
  Cl  Cl3       1.0  0.49100  0.79700  0.10700  1.0000
  Cl  Cl4       1.0  0.03080  0.81900  0.20700  1.0000
  Cl  Cl5       1.0  0.35300  0.17900  0.22700  1.0000
  Cl  Cl6       1.0  0.64400  0.47900  0.26000  1.0000
  Cl  Cl7       1.0  0.66900  0.02050  0.35400  1.0000
  Cl  Cl8       1.0  0.20300  0.49100  0.35700  1.0000
  Cl  Cl9       1.0  0.18100  0.03080  0.45700  1.0000
  Cl  Cl10      1.0  0.82100  0.35300  0.47700  1.0000
  Cl  Cl11      1.0  0.52100  0.64400  0.51000  1.0000
  Cl  Cl12      1.0  0.97900  0.66900  0.60400  1.0000
  Cl  Cl13      1.0  0.50900  0.20300  0.60700  1.0000
  Cl  Cl14      1.0  0.96900  0.18100  0.70700  1.0000
  Cl  Cl15      1.0  0.64700  0.82100  0.72700  1.0000
  Cl  Cl16      1.0  0.35600  0.52100  0.76000  1.0000
  Cl  Cl17      1.0  0.33100  0.97900  0.85400  1.0000
  Cl  Cl18      1.0  0.79700  0.50900  0.85700  1.0000
  Cl  Cl19      1.0  0.81900  0.96900  0.95700  1.0000
  Cl  Cl20      1.0  0.17900  0.64700  0.97700  1.0000
  Pb  Pb1       1.0  0.30300  0.49100  0.14400  1.0000
  Pb  Pb2       1.0  0.50900  0.30300  0.39400  1.0000
  Pb  Pb3       1.0  0.69700  0.50900  0.64400  1.0000
  Pb  Pb4       1.0  0.49100  0.69700  0.89400  1.0000
  Tl  Tl1       1.0  0.18900  0.99600  0.05670  1.0000
  Tl  Tl2       1.0  0.82500  0.63500  0.07250  1.0000
  Tl  Tl3       1.0  0.68100  0.11500  0.13200  1.0000
  Tl  Tl4       1.0  0.00402  0.18900  0.30700  1.0000
  Tl  Tl5       1.0  0.36500  0.82500  0.32200  1.0000
  Tl  Tl6       1.0  0.88500  0.68100  0.38200  1.0000
  Tl  Tl7       1.0  0.81100  0.00402  0.55700  1.0000
  Tl  Tl8       1.0  0.17500  0.36500  0.57200  1.0000
  Tl  Tl9       1.0  0.31900  0.88500  0.63200  1.0000
  Tl  Tl10      1.0  0.99600  0.81100  0.80700  1.0000
  Tl  Tl11      1.0  0.63500  0.17500  0.82200  1.0000
  Tl  Tl12      1.0  0.11500  0.31900  0.88200  1.0000
