data_image0
_chemical_formula_structural       IrLi4O6Zr
_chemical_formula_sum              "Ir1 Li4 O6 Zr1"
_cell_length_a       5.14793
_cell_length_b       5.14793
_cell_length_c       5.21882
_cell_angle_alpha    99.3499
_cell_angle_beta     99.3499
_cell_angle_gamma    119.577

_space_group_name_H-M_alt    "P 1"
_space_group_IT_number       1

loop_
  _space_group_symop_operation_xyz
  'x, y, z'

loop_
  _atom_site_type_symbol
  _atom_site_label
  _atom_site_symmetry_multiplicity
  _atom_site_fract_x
  _atom_site_fract_y
  _atom_site_fract_z
  _atom_site_occupancy
  Ir  Ir1       1.0  0.16300  0.83700  0.00000  1.0000
  Li  Li1       1.0  0.49900  0.50100  0.00000  1.0000
  Li  Li2       1.0  0.01440  0.98600  0.50000  1.0000
  Li  Li3       1.0  0.65300  0.34700  0.50000  1.0000
  Li  Li4       1.0  0.33900  0.66100  0.50000  1.0000
  O   O1        1.0  0.92400  0.59100  0.23700  1.0000
  O   O2        1.0  0.56900  0.91800  0.24200  1.0000
  O   O3        1.0  0.25200  0.24300  0.25200  1.0000
  O   O4        1.0  0.75700  0.74800  0.74800  1.0000
  O   O5        1.0  0.08200  0.43100  0.75800  1.0000
  O   O6        1.0  0.40900  0.07620  0.76300  1.0000
  Zr  Zr1       1.0  0.83900  0.16100  0.00000  1.0000
