data_image0
_chemical_formula_structural       Mn2Na14O9
_chemical_formula_sum              "Mn2 Na14 O9"
_cell_length_a       6.6388
_cell_length_b       6.63877
_cell_length_c       9.3059
_cell_angle_alpha    90
_cell_angle_beta     90
_cell_angle_gamma    120.001

_space_group_name_H-M_alt    "P 1"
_space_group_IT_number       1

loop_
  _space_group_symop_operation_xyz
  'x, y, z'

loop_
  _atom_site_type_symbol
  _atom_site_label
  _atom_site_symmetry_multiplicity
  _atom_site_fract_x
  _atom_site_fract_y
  _atom_site_fract_z
  _atom_site_occupancy
  Mn  Mn1       1.0  0.33300  0.66700  0.26200  1.0000
  Mn  Mn2       1.0  0.66700  0.33300  0.73800  1.0000
  Na  Na1       1.0  0.68100  0.63900  0.09120  1.0000
  Na  Na2       1.0  0.36100  0.04160  0.09120  1.0000
  Na  Na3       1.0  0.95800  0.31900  0.09120  1.0000
  Na  Na4       1.0  0.00000  0.00000  0.25200  1.0000
  Na  Na5       1.0  0.93300  0.62400  0.40900  1.0000
  Na  Na6       1.0  0.37600  0.30900  0.40900  1.0000
  Na  Na7       1.0  0.69100  0.06740  0.40900  1.0000
  Na  Na8       1.0  0.30900  0.93300  0.59100  1.0000
  Na  Na9       1.0  0.62400  0.69100  0.59100  1.0000
  Na  Na10      1.0  0.06740  0.37600  0.59100  1.0000
  Na  Na11      1.0  0.00000  0.00000  0.74800  1.0000
  Na  Na12      1.0  0.04160  0.68100  0.90900  1.0000
  Na  Na13      1.0  0.63900  0.95800  0.90900  1.0000
  Na  Na14      1.0  0.31900  0.36100  0.90900  1.0000
  O   O1        1.0  0.00000  0.00000  0.00000  1.0000
  O   O2        1.0  0.33300  0.66700  0.03840  1.0000
  O   O3        1.0  0.05220  0.35800  0.33700  1.0000
  O   O4        1.0  0.30600  0.94800  0.33700  1.0000
  O   O5        1.0  0.64200  0.69400  0.33700  1.0000
  O   O6        1.0  0.35800  0.30600  0.66300  1.0000
  O   O7        1.0  0.69400  0.05220  0.66300  1.0000
  O   O8        1.0  0.94800  0.64200  0.66300  1.0000
  O   O9        1.0  0.66700  0.33300  0.96200  1.0000
