data_image0
_chemical_formula_structural       Co8Li40O32
_chemical_formula_sum              "Co8 Li40 O32"
_cell_length_a       9.14639
_cell_length_b       8.99574
_cell_length_c       9.1816
_cell_angle_alpha    90
_cell_angle_beta     90
_cell_angle_gamma    90

_space_group_name_H-M_alt    "P 1"
_space_group_IT_number       1

loop_
  _space_group_symop_operation_xyz
  'x, y, z'

loop_
  _atom_site_type_symbol
  _atom_site_label
  _atom_site_symmetry_multiplicity
  _atom_site_fract_x
  _atom_site_fract_y
  _atom_site_fract_z
  _atom_site_occupancy
  Co  Co1       1.0  0.11300  0.15000  0.11900  1.0000
  Co  Co2       1.0  0.38700  0.65000  0.11900  1.0000
  Co  Co3       1.0  0.61300  0.15000  0.38100  1.0000
  Co  Co4       1.0  0.88700  0.65000  0.38100  1.0000
  Co  Co5       1.0  0.11300  0.35000  0.61900  1.0000
  Co  Co6       1.0  0.38700  0.85000  0.61900  1.0000
  Co  Co7       1.0  0.61300  0.35000  0.88100  1.0000
  Co  Co8       1.0  0.88700  0.85000  0.88100  1.0000
  Li  Li1       1.0  0.65700  0.11800  0.10500  1.0000
  Li  Li2       1.0  0.84300  0.61800  0.10500  1.0000
  Li  Li3       1.0  0.35100  0.37700  0.10900  1.0000
  Li  Li4       1.0  0.14900  0.87700  0.10900  1.0000
  Li  Li5       1.0  0.88000  0.35100  0.12400  1.0000
  Li  Li6       1.0  0.62000  0.85100  0.12400  1.0000
  Li  Li7       1.0  0.38900  0.11100  0.14300  1.0000
  Li  Li8       1.0  0.11100  0.61100  0.14300  1.0000
  Li  Li9       1.0  0.61800  0.39300  0.15800  1.0000
  Li  Li10      1.0  0.88200  0.89300  0.15800  1.0000
  Li  Li11      1.0  0.11800  0.39300  0.34200  1.0000
  Li  Li12      1.0  0.38200  0.89300  0.34200  1.0000
  Li  Li13      1.0  0.88900  0.11100  0.35700  1.0000
  Li  Li14      1.0  0.61100  0.61100  0.35700  1.0000
  Li  Li15      1.0  0.38000  0.35100  0.37600  1.0000
  Li  Li16      1.0  0.12000  0.85100  0.37600  1.0000
  Li  Li17      1.0  0.85100  0.37700  0.39100  1.0000
  Li  Li18      1.0  0.64900  0.87700  0.39100  1.0000
  Li  Li19      1.0  0.15700  0.11800  0.39500  1.0000
  Li  Li20      1.0  0.34300  0.61800  0.39500  1.0000
  Li  Li21      1.0  0.65700  0.38200  0.60500  1.0000
  Li  Li22      1.0  0.84300  0.88200  0.60500  1.0000
  Li  Li23      1.0  0.35100  0.12300  0.60900  1.0000
  Li  Li24      1.0  0.14900  0.62300  0.60900  1.0000
  Li  Li25      1.0  0.88000  0.14900  0.62400  1.0000
  Li  Li26      1.0  0.62000  0.64900  0.62400  1.0000
  Li  Li27      1.0  0.38900  0.38900  0.64300  1.0000
  Li  Li28      1.0  0.11100  0.88900  0.64300  1.0000
  Li  Li29      1.0  0.61800  0.10700  0.65800  1.0000
  Li  Li30      1.0  0.88200  0.60700  0.65800  1.0000
  Li  Li31      1.0  0.11800  0.10700  0.84200  1.0000
  Li  Li32      1.0  0.38200  0.60700  0.84200  1.0000
  Li  Li33      1.0  0.88900  0.38900  0.85700  1.0000
  Li  Li34      1.0  0.61100  0.88900  0.85700  1.0000
  Li  Li35      1.0  0.38000  0.14900  0.87600  1.0000
  Li  Li36      1.0  0.12000  0.64900  0.87600  1.0000
  Li  Li37      1.0  0.85100  0.12300  0.89100  1.0000
  Li  Li38      1.0  0.64900  0.62300  0.89100  1.0000
  Li  Li39      1.0  0.15700  0.38200  0.89500  1.0000
  Li  Li40      1.0  0.34300  0.88200  0.89500  1.0000
  O   O1        1.0  0.74500  0.46600  0.99900  1.0000
  O   O2        1.0  0.75500  0.96600  0.99900  1.0000
  O   O3        1.0  0.24500  0.03410  0.00120  1.0000
  O   O4        1.0  0.25500  0.53400  0.00120  1.0000
  O   O5        1.0  0.50500  0.25200  0.01760  1.0000
  O   O6        1.0  0.99500  0.75200  0.01760  1.0000
  O   O7        1.0  0.24600  0.24700  0.24300  1.0000
  O   O8        1.0  0.25400  0.74700  0.24300  1.0000
  O   O9        1.0  0.03540  0.00669  0.24800  1.0000
  O   O10       1.0  0.46500  0.50700  0.24800  1.0000
  O   O11       1.0  0.53500  0.00669  0.25200  1.0000
  O   O12       1.0  0.96500  0.50700  0.25200  1.0000
  O   O13       1.0  0.74600  0.24700  0.25700  1.0000
  O   O14       1.0  0.75400  0.74700  0.25700  1.0000
  O   O15       1.0  0.00516  0.25200  0.48200  1.0000
  O   O16       1.0  0.49500  0.75200  0.48200  1.0000
  O   O17       1.0  0.74500  0.03410  0.49900  1.0000
  O   O18       1.0  0.75500  0.53400  0.49900  1.0000
  O   O19       1.0  0.24500  0.46600  0.50100  1.0000
  O   O20       1.0  0.25500  0.96600  0.50100  1.0000
  O   O21       1.0  0.50500  0.24800  0.51800  1.0000
  O   O22       1.0  0.99500  0.74800  0.51800  1.0000
  O   O23       1.0  0.24600  0.25300  0.74300  1.0000
  O   O24       1.0  0.25400  0.75300  0.74300  1.0000
  O   O25       1.0  0.03540  0.49300  0.74800  1.0000
  O   O26       1.0  0.46500  0.99300  0.74800  1.0000
  O   O27       1.0  0.53500  0.49300  0.75200  1.0000
  O   O28       1.0  0.96500  0.99300  0.75200  1.0000
  O   O29       1.0  0.74600  0.25300  0.75700  1.0000
  O   O30       1.0  0.75400  0.75300  0.75700  1.0000
  O   O31       1.0  0.00516  0.24800  0.98200  1.0000
  O   O32       1.0  0.49500  0.74800  0.98200  1.0000
