data_image0
_chemical_formula_structural       Bi8Co12Li12O48
_chemical_formula_sum              "Bi8 Co12 Li12 O48"
_cell_length_a       10.2893
_cell_length_b       10.2893
_cell_length_c       10.2893
_cell_angle_alpha    109.471
_cell_angle_beta     109.471
_cell_angle_gamma    109.471

_space_group_name_H-M_alt    "P 1"
_space_group_IT_number       1

loop_
  _space_group_symop_operation_xyz
  'x, y, z'

loop_
  _atom_site_type_symbol
  _atom_site_label
  _atom_site_symmetry_multiplicity
  _atom_site_fract_x
  _atom_site_fract_y
  _atom_site_fract_z
  _atom_site_occupancy
  Bi  Bi1       1.0  0.00000  0.00000  0.00000  1.0000
  Bi  Bi2       1.0  0.50000  0.00000  0.00000  1.0000
  Bi  Bi3       1.0  0.50000  0.50000  0.00000  1.0000
  Bi  Bi4       1.0  0.00000  0.50000  0.00000  1.0000
  Bi  Bi5       1.0  0.50000  0.00000  0.50000  1.0000
  Bi  Bi6       1.0  0.00000  0.50000  0.50000  1.0000
  Bi  Bi7       1.0  0.00000  0.00000  0.50000  1.0000
  Bi  Bi8       1.0  0.50000  0.50000  0.50000  1.0000
  Co  Co1       1.0  0.25000  0.87500  0.12500  1.0000
  Co  Co2       1.0  0.37500  0.25000  0.12500  1.0000
  Co  Co3       1.0  0.87500  0.12500  0.25000  1.0000
  Co  Co4       1.0  0.37500  0.62500  0.25000  1.0000
  Co  Co5       1.0  0.75000  0.62500  0.37500  1.0000
  Co  Co6       1.0  0.12500  0.75000  0.37500  1.0000
  Co  Co7       1.0  0.87500  0.25000  0.62500  1.0000
  Co  Co8       1.0  0.25000  0.37500  0.62500  1.0000
  Co  Co9       1.0  0.62500  0.37500  0.75000  1.0000
  Co  Co10      1.0  0.12500  0.87500  0.75000  1.0000
  Co  Co11      1.0  0.62500  0.75000  0.87500  1.0000
  Co  Co12      1.0  0.75000  0.12500  0.87500  1.0000
  Li  Li1       1.0  0.87500  0.75000  0.12500  1.0000
  Li  Li2       1.0  0.75000  0.37500  0.12500  1.0000
  Li  Li3       1.0  0.12500  0.37500  0.25000  1.0000
  Li  Li4       1.0  0.62500  0.87500  0.25000  1.0000
  Li  Li5       1.0  0.25000  0.12500  0.37500  1.0000
  Li  Li6       1.0  0.62500  0.25000  0.37500  1.0000
  Li  Li7       1.0  0.37500  0.75000  0.62500  1.0000
  Li  Li8       1.0  0.75000  0.87500  0.62500  1.0000
  Li  Li9       1.0  0.37500  0.12500  0.75000  1.0000
  Li  Li10      1.0  0.87500  0.62500  0.75000  1.0000
  Li  Li11      1.0  0.12500  0.25000  0.87500  1.0000
  Li  Li12      1.0  0.25000  0.62500  0.87500  1.0000
  O   O1        1.0  0.23400  0.63100  0.04950  1.0000
  O   O2        1.0  0.31600  0.41800  0.04950  1.0000
  O   O3        1.0  0.63100  0.89700  0.08160  1.0000
  O   O4        1.0  0.95000  0.18400  0.08160  1.0000
  O   O5        1.0  0.86900  0.91800  0.10300  1.0000
  O   O6        1.0  0.73400  0.18400  0.10300  1.0000
  O   O7        1.0  0.04950  0.73400  0.13100  1.0000
  O   O8        1.0  0.58200  0.39700  0.13100  1.0000
  O   O9        1.0  0.45000  0.08160  0.18400  1.0000
  O   O10       1.0  0.23400  0.10300  0.18400  1.0000
  O   O11       1.0  0.13100  0.55000  0.23400  1.0000
  O   O12       1.0  0.60300  0.68400  0.23400  1.0000
  O   O13       1.0  0.31600  0.39700  0.26600  1.0000
  O   O14       1.0  0.45000  0.86900  0.26600  1.0000
  O   O15       1.0  0.91800  0.55000  0.31600  1.0000
  O   O16       1.0  0.89700  0.76600  0.31600  1.0000
  O   O17       1.0  0.26600  0.95000  0.36900  1.0000
  O   O18       1.0  0.60300  0.41800  0.36900  1.0000
  O   O19       1.0  0.08160  0.13100  0.39700  1.0000
  O   O20       1.0  0.81600  0.26600  0.39700  1.0000
  O   O21       1.0  0.10300  0.36900  0.41800  1.0000
  O   O22       1.0  0.81600  0.04950  0.41800  1.0000
  O   O23       1.0  0.58200  0.68400  0.45000  1.0000
  O   O24       1.0  0.36900  0.76600  0.45000  1.0000
  O   O25       1.0  0.63100  0.23400  0.55000  1.0000
  O   O26       1.0  0.41800  0.31600  0.55000  1.0000
  O   O27       1.0  0.18400  0.95000  0.58200  1.0000
  O   O28       1.0  0.89700  0.63100  0.58200  1.0000
  O   O29       1.0  0.18400  0.73400  0.60300  1.0000
  O   O30       1.0  0.91800  0.86900  0.60300  1.0000
  O   O31       1.0  0.39700  0.58200  0.63100  1.0000
  O   O32       1.0  0.73400  0.04950  0.63100  1.0000
  O   O33       1.0  0.08160  0.45000  0.68400  1.0000
  O   O34       1.0  0.10300  0.23400  0.68400  1.0000
  O   O35       1.0  0.55000  0.13100  0.73400  1.0000
  O   O36       1.0  0.68400  0.60300  0.73400  1.0000
  O   O37       1.0  0.39700  0.31600  0.76600  1.0000
  O   O38       1.0  0.86900  0.45000  0.76600  1.0000
  O   O39       1.0  0.76600  0.89700  0.81600  1.0000
  O   O40       1.0  0.55000  0.91800  0.81600  1.0000
  O   O41       1.0  0.41800  0.60300  0.86900  1.0000
  O   O42       1.0  0.95000  0.26600  0.86900  1.0000
  O   O43       1.0  0.26600  0.81600  0.89700  1.0000
  O   O44       1.0  0.13100  0.08160  0.89700  1.0000
  O   O45       1.0  0.04950  0.81600  0.91800  1.0000
  O   O46       1.0  0.36900  0.10300  0.91800  1.0000
  O   O47       1.0  0.68400  0.58200  0.95000  1.0000
  O   O48       1.0  0.76600  0.36900  0.95000  1.0000
