data_image0
_chemical_formula_structural       Na4O14Sb8
_chemical_formula_sum              "Na4 O14 Sb8"
_cell_length_a       5.6607
_cell_length_b       9.44642
_cell_length_c       9.99284
_cell_angle_alpha    117.471
_cell_angle_beta     105.324
_cell_angle_gamma    92.2981

_space_group_name_H-M_alt    "P 1"
_space_group_IT_number       1

loop_
  _space_group_symop_operation_xyz
  'x, y, z'

loop_
  _atom_site_type_symbol
  _atom_site_label
  _atom_site_symmetry_multiplicity
  _atom_site_fract_x
  _atom_site_fract_y
  _atom_site_fract_z
  _atom_site_occupancy
  Na  Na1       1.0  0.40400  0.32700  0.32500  1.0000
  Na  Na2       1.0  0.92100  0.49900  0.32500  1.0000
  Na  Na3       1.0  0.07910  0.50100  0.67500  1.0000
  Na  Na4       1.0  0.59600  0.67300  0.67500  1.0000
  O   O1        1.0  0.97100  0.00225  0.12500  1.0000
  O   O2        1.0  0.15500  0.62300  0.12500  1.0000
  O   O3        1.0  0.06430  0.31400  0.12900  1.0000
  O   O4        1.0  0.71600  0.22300  0.23400  1.0000
  O   O5        1.0  0.51800  0.51100  0.23400  1.0000
  O   O6        1.0  0.19700  0.27000  0.47200  1.0000
  O   O7        1.0  0.27500  0.70200  0.47200  1.0000
  O   O8        1.0  0.72500  0.29800  0.52800  1.0000
  O   O9        1.0  0.80300  0.73000  0.52800  1.0000
  O   O10       1.0  0.48200  0.48900  0.76600  1.0000
  O   O11       1.0  0.28400  0.77700  0.76600  1.0000
  O   O12       1.0  0.93600  0.68600  0.87100  1.0000
  O   O13       1.0  0.84500  0.37700  0.87500  1.0000
  O   O14       1.0  0.02910  0.99800  0.87500  1.0000
  Sb  Sb1       1.0  0.78800  0.11800  0.01440  1.0000
  Sb  Sb2       1.0  0.22600  0.39600  0.01440  1.0000
  Sb  Sb3       1.0  0.87100  0.11800  0.35800  1.0000
  Sb  Sb4       1.0  0.48800  0.74100  0.35800  1.0000
  Sb  Sb5       1.0  0.51200  0.25900  0.64200  1.0000
  Sb  Sb6       1.0  0.12900  0.88200  0.64200  1.0000
  Sb  Sb7       1.0  0.77400  0.60400  0.98600  1.0000
  Sb  Sb8       1.0  0.21200  0.88200  0.98600  1.0000
