data_image0
_chemical_formula_structural       Ce6Ni6P17
_chemical_formula_sum              "Ce6 Ni6 P17"
_cell_length_a       8.80403
_cell_length_b       8.80403
_cell_length_c       8.80403
_cell_angle_alpha    109.471
_cell_angle_beta     109.471
_cell_angle_gamma    109.471

_space_group_name_H-M_alt    "P 1"
_space_group_IT_number       1

loop_
  _space_group_symop_operation_xyz
  'x, y, z'

loop_
  _atom_site_type_symbol
  _atom_site_label
  _atom_site_symmetry_multiplicity
  _atom_site_fract_x
  _atom_site_fract_y
  _atom_site_fract_z
  _atom_site_occupancy
  Ce  Ce1       1.0  0.28900  0.28900  0.00000  1.0000
  Ce  Ce2       1.0  0.71100  0.71100  0.00000  1.0000
  Ce  Ce3       1.0  0.28900  0.00000  0.28900  1.0000
  Ce  Ce4       1.0  0.00000  0.28900  0.28900  1.0000
  Ce  Ce5       1.0  0.71100  0.00000  0.71100  1.0000
  Ce  Ce6       1.0  0.00000  0.71100  0.71100  1.0000
  Ni  Ni1       1.0  0.75000  0.50000  0.25000  1.0000
  Ni  Ni2       1.0  0.50000  0.75000  0.25000  1.0000
  Ni  Ni3       1.0  0.75000  0.25000  0.50000  1.0000
  Ni  Ni4       1.0  0.25000  0.75000  0.50000  1.0000
  Ni  Ni5       1.0  0.50000  0.25000  0.75000  1.0000
  Ni  Ni6       1.0  0.25000  0.50000  0.75000  1.0000
  P   P1        1.0  0.00000  0.00000  0.00000  1.0000
  P   P2        1.0  0.42800  0.00000  0.00000  1.0000
  P   P3        1.0  0.63400  0.23200  0.00000  1.0000
  P   P4        1.0  0.00000  0.42800  0.00000  1.0000
  P   P5        1.0  0.23200  0.63400  0.00000  1.0000
  P   P6        1.0  0.63400  0.00000  0.23200  1.0000
  P   P7        1.0  0.00000  0.63400  0.23200  1.0000
  P   P8        1.0  0.59800  0.36600  0.36600  1.0000
  P   P9        1.0  0.36600  0.59800  0.36600  1.0000
  P   P10       1.0  0.76800  0.76800  0.40200  1.0000
  P   P11       1.0  0.00000  0.00000  0.42800  1.0000
  P   P12       1.0  0.57200  0.57200  0.57200  1.0000
  P   P13       1.0  0.36600  0.36600  0.59800  1.0000
  P   P14       1.0  0.23200  0.00000  0.63400  1.0000
  P   P15       1.0  0.00000  0.23200  0.63400  1.0000
  P   P16       1.0  0.76800  0.40200  0.76800  1.0000
  P   P17       1.0  0.40200  0.76800  0.76800  1.0000
