data_image0
_chemical_formula_structural       Cu10Zn16
_chemical_formula_sum              "Cu10 Zn16"
_cell_length_a       7.64914
_cell_length_b       7.64914
_cell_length_c       7.64914
_cell_angle_alpha    109.471
_cell_angle_beta     109.471
_cell_angle_gamma    109.471

_space_group_name_H-M_alt    "P 1"
_space_group_IT_number       1

loop_
  _space_group_symop_operation_xyz
  'x, y, z'

loop_
  _atom_site_type_symbol
  _atom_site_label
  _atom_site_symmetry_multiplicity
  _atom_site_fract_x
  _atom_site_fract_y
  _atom_site_fract_z
  _atom_site_occupancy
  Cu  Cu1       1.0  0.65500  0.00000  0.00000  1.0000
  Cu  Cu2       1.0  0.35600  0.35600  0.00000  1.0000
  Cu  Cu3       1.0  0.64400  0.64400  0.00000  1.0000
  Cu  Cu4       1.0  0.00000  0.65500  0.00000  1.0000
  Cu  Cu5       1.0  0.34500  0.34500  0.34500  1.0000
  Cu  Cu6       1.0  0.35600  0.00000  0.35600  1.0000
  Cu  Cu7       1.0  0.00000  0.35600  0.35600  1.0000
  Cu  Cu8       1.0  0.64400  0.00000  0.64400  1.0000
  Cu  Cu9       1.0  0.00000  0.64400  0.64400  1.0000
  Cu  Cu10      1.0  0.00000  0.00000  0.65500  1.0000
  Zn  Zn1       1.0  0.21900  0.00000  0.00000  1.0000
  Zn  Zn2       1.0  0.00000  0.21900  0.00000  1.0000
  Zn  Zn3       1.0  0.72100  0.34800  0.00000  1.0000
  Zn  Zn4       1.0  0.34800  0.72100  0.00000  1.0000
  Zn  Zn5       1.0  0.00000  0.00000  0.21900  1.0000
  Zn  Zn6       1.0  0.62700  0.27900  0.27900  1.0000
  Zn  Zn7       1.0  0.27900  0.62700  0.27900  1.0000
  Zn  Zn8       1.0  0.72100  0.00000  0.34800  1.0000
  Zn  Zn9       1.0  0.00000  0.72100  0.34800  1.0000
  Zn  Zn10      1.0  0.65200  0.65200  0.37300  1.0000
  Zn  Zn11      1.0  0.27900  0.27900  0.62700  1.0000
  Zn  Zn12      1.0  0.65200  0.37300  0.65200  1.0000
  Zn  Zn13      1.0  0.37300  0.65200  0.65200  1.0000
  Zn  Zn14      1.0  0.34800  0.00000  0.72100  1.0000
  Zn  Zn15      1.0  0.00000  0.34800  0.72100  1.0000
  Zn  Zn16      1.0  0.78100  0.78100  0.78100  1.0000
