data_image0
_chemical_formula_structural       Ba2H8O16P4
_chemical_formula_sum              "Ba2 H8 O16 P4"
_cell_length_a       6.9683
_cell_length_b       7.7601
_cell_length_c       7.22669
_cell_angle_alpha    103.824
_cell_angle_beta     108.628
_cell_angle_gamma    96.1345

_space_group_name_H-M_alt    "P 1"
_space_group_IT_number       1

loop_
  _space_group_symop_operation_xyz
  'x, y, z'

loop_
  _atom_site_type_symbol
  _atom_site_label
  _atom_site_symmetry_multiplicity
  _atom_site_fract_x
  _atom_site_fract_y
  _atom_site_fract_z
  _atom_site_occupancy
  Ba  Ba1       1.0  0.24300  0.11500  0.29300  1.0000
  Ba  Ba2       1.0  0.75700  0.88600  0.70700  1.0000
  H   H1        1.0  0.63900  0.30500  0.12600  1.0000
  H   H2        1.0  0.55900  0.82900  0.20100  1.0000
  H   H3        1.0  0.12000  0.74700  0.34900  1.0000
  H   H4        1.0  0.50000  0.50000  0.49900  1.0000
  H   H5        1.0  0.88000  0.25300  0.65200  1.0000
  H   H6        1.0  0.44000  0.17100  0.79900  1.0000
  H   H7        1.0  0.36100  0.69500  0.87400  1.0000
  H   H8        1.0  0.50100  0.50000  0.00000  1.0000
  O   O1        1.0  0.39600  0.60700  0.04590  1.0000
  O   O2        1.0  0.82800  0.01470  0.09800  1.0000
  O   O3        1.0  0.16500  0.39300  0.15400  1.0000
  O   O4        1.0  0.61100  0.23200  0.21900  1.0000
  O   O5        1.0  0.18700  0.73800  0.23800  1.0000
  O   O6        1.0  0.61200  0.94800  0.31000  1.0000
  O   O7        1.0  0.49400  0.60800  0.40600  1.0000
  O   O8        1.0  0.94000  0.18700  0.47200  1.0000
  O   O9        1.0  0.05940  0.81300  0.52800  1.0000
  O   O10       1.0  0.50600  0.39200  0.59400  1.0000
  O   O11       1.0  0.38800  0.05200  0.69000  1.0000
  O   O12       1.0  0.81300  0.26200  0.76200  1.0000
  O   O13       1.0  0.38900  0.76800  0.78100  1.0000
  O   O14       1.0  0.83500  0.60700  0.84600  1.0000
  O   O15       1.0  0.17200  0.98500  0.90200  1.0000
  O   O16       1.0  0.60400  0.39300  0.95400  1.0000
  P   P1        1.0  0.30100  0.57300  0.20900  1.0000
  P   P2        1.0  0.76200  0.09820  0.27200  1.0000
  P   P3        1.0  0.23800  0.90200  0.72800  1.0000
  P   P4        1.0  0.69900  0.42700  0.79100  1.0000
