data_image0
_chemical_formula_structural       Er12F12Se12
_chemical_formula_sum              "Er12 F12 Se12"
_cell_length_a       9.83448
_cell_length_b       18.6506
_cell_length_c       4.0346
_cell_angle_alpha    90
_cell_angle_beta     90
_cell_angle_gamma    90

_space_group_name_H-M_alt    "P 1"
_space_group_IT_number       1

loop_
  _space_group_symop_operation_xyz
  'x, y, z'

loop_
  _atom_site_type_symbol
  _atom_site_label
  _atom_site_symmetry_multiplicity
  _atom_site_fract_x
  _atom_site_fract_y
  _atom_site_fract_z
  _atom_site_occupancy
  Er  Er1       1.0  0.92300  0.08170  0.25000  1.0000
  Er  Er2       1.0  0.40900  0.08320  0.25000  1.0000
  Er  Er3       1.0  0.90900  0.41700  0.25000  1.0000
  Er  Er4       1.0  0.42300  0.41800  0.25000  1.0000
  Er  Er5       1.0  0.74400  0.74100  0.25000  1.0000
  Er  Er6       1.0  0.24400  0.75900  0.25000  1.0000
  Er  Er7       1.0  0.75600  0.24100  0.75000  1.0000
  Er  Er8       1.0  0.25600  0.25900  0.75000  1.0000
  Er  Er9       1.0  0.57700  0.58200  0.75000  1.0000
  Er  Er10      1.0  0.09120  0.58300  0.75000  1.0000
  Er  Er11      1.0  0.59100  0.91700  0.75000  1.0000
  Er  Er12      1.0  0.07710  0.91800  0.75000  1.0000
  F   F1        1.0  0.79900  0.19500  0.25000  1.0000
  F   F2        1.0  0.29900  0.30500  0.25000  1.0000
  F   F3        1.0  0.52700  0.52700  0.25000  1.0000
  F   F4        1.0  0.62900  0.63900  0.25000  1.0000
  F   F5        1.0  0.12900  0.86100  0.25000  1.0000
  F   F6        1.0  0.02670  0.97300  0.25000  1.0000
  F   F7        1.0  0.97300  0.02710  0.75000  1.0000
  F   F8        1.0  0.87100  0.13900  0.75000  1.0000
  F   F9        1.0  0.37100  0.36100  0.75000  1.0000
  F   F10       1.0  0.47300  0.47300  0.75000  1.0000
  F   F11       1.0  0.70100  0.69500  0.75000  1.0000
  F   F12       1.0  0.20100  0.80500  0.75000  1.0000
  Se  Se1       1.0  0.66600  0.01430  0.25000  1.0000
  Se  Se2       1.0  0.16400  0.15800  0.25000  1.0000
  Se  Se3       1.0  0.66400  0.34200  0.25000  1.0000
  Se  Se4       1.0  0.16600  0.48600  0.25000  1.0000
  Se  Se5       1.0  0.00311  0.67700  0.25000  1.0000
  Se  Se6       1.0  0.50300  0.82300  0.25000  1.0000
  Se  Se7       1.0  0.49700  0.17700  0.75000  1.0000
  Se  Se8       1.0  0.99700  0.32300  0.75000  1.0000
  Se  Se9       1.0  0.83400  0.51400  0.75000  1.0000
  Se  Se10      1.0  0.33600  0.65800  0.75000  1.0000
  Se  Se11      1.0  0.83600  0.84200  0.75000  1.0000
  Se  Se12      1.0  0.33400  0.98600  0.75000  1.0000
