data_image0
_chemical_formula_structural       Ca10Sb6
_chemical_formula_sum              "Ca10 Sb6"
_cell_length_a       9.07947
_cell_length_b       9.07947
_cell_length_c       6.95169
_cell_angle_alpha    90
_cell_angle_beta     90
_cell_angle_gamma    120

_space_group_name_H-M_alt    "P 1"
_space_group_IT_number       1

loop_
  _space_group_symop_operation_xyz
  'x, y, z'

loop_
  _atom_site_type_symbol
  _atom_site_label
  _atom_site_symmetry_multiplicity
  _atom_site_fract_x
  _atom_site_fract_y
  _atom_site_fract_z
  _atom_site_occupancy
  Ca  Ca1       1.0  0.66700  0.33300  0.00000  1.0000
  Ca  Ca2       1.0  0.33300  0.66700  0.00000  1.0000
  Ca  Ca3       1.0  0.74800  0.74800  0.25000  1.0000
  Ca  Ca4       1.0  0.25200  1.00000  0.25000  1.0000
  Ca  Ca5       1.0  1.00000  0.25200  0.25000  1.0000
  Ca  Ca6       1.0  0.66700  0.33300  0.50000  1.0000
  Ca  Ca7       1.0  0.33300  0.66700  0.50000  1.0000
  Ca  Ca8       1.0  0.25200  0.25200  0.75000  1.0000
  Ca  Ca9       1.0  0.74800  0.00000  0.75000  1.0000
  Ca  Ca10      1.0  0.00000  0.74800  0.75000  1.0000
  Sb  Sb1       1.0  0.61000  0.00000  0.25000  1.0000
  Sb  Sb2       1.0  0.00000  0.61000  0.25000  1.0000
  Sb  Sb3       1.0  0.39000  0.39000  0.25000  1.0000
  Sb  Sb4       1.0  0.39000  1.00000  0.75000  1.0000
  Sb  Sb5       1.0  1.00000  0.39000  0.75000  1.0000
  Sb  Sb6       1.0  0.61000  0.61000  0.75000  1.0000
