data_image0
_chemical_formula_structural       P8Pd8S8
_chemical_formula_sum              "P8 Pd8 S8"
_cell_length_a       13.8844
_cell_length_b       5.72517
_cell_length_c       5.7484
_cell_angle_alpha    90
_cell_angle_beta     90
_cell_angle_gamma    90

_space_group_name_H-M_alt    "P 1"
_space_group_IT_number       1

loop_
  _space_group_symop_operation_xyz
  'x, y, z'

loop_
  _atom_site_type_symbol
  _atom_site_label
  _atom_site_symmetry_multiplicity
  _atom_site_fract_x
  _atom_site_fract_y
  _atom_site_fract_z
  _atom_site_occupancy
  P   P1        1.0  0.58000  0.13100  0.21900  1.0000
  P   P2        1.0  0.92000  0.63100  0.21900  1.0000
  P   P3        1.0  0.42000  0.13100  0.28100  1.0000
  P   P4        1.0  0.07950  0.63100  0.28100  1.0000
  P   P5        1.0  0.92000  0.36900  0.71900  1.0000
  P   P6        1.0  0.58000  0.86900  0.71900  1.0000
  P   P7        1.0  0.07950  0.36900  0.78100  1.0000
  P   P8        1.0  0.42000  0.86900  0.78100  1.0000
  Pd  Pd1       1.0  0.10900  0.25100  0.16000  1.0000
  Pd  Pd2       1.0  0.39100  0.75100  0.16000  1.0000
  Pd  Pd3       1.0  0.89100  0.25100  0.34000  1.0000
  Pd  Pd4       1.0  0.60900  0.75100  0.34000  1.0000
  Pd  Pd5       1.0  0.39100  0.24900  0.66000  1.0000
  Pd  Pd6       1.0  0.10900  0.74900  0.66000  1.0000
  Pd  Pd7       1.0  0.60900  0.24900  0.84000  1.0000
  Pd  Pd8       1.0  0.89100  0.74900  0.84000  1.0000
  S   S1        1.0  0.35100  0.36300  0.04640  1.0000
  S   S2        1.0  0.14900  0.86300  0.04640  1.0000
  S   S3        1.0  0.64900  0.36300  0.45400  1.0000
  S   S4        1.0  0.85100  0.86300  0.45400  1.0000
  S   S5        1.0  0.14900  0.13700  0.54600  1.0000
  S   S6        1.0  0.35100  0.63700  0.54600  1.0000
  S   S7        1.0  0.85100  0.13700  0.95400  1.0000
  S   S8        1.0  0.64900  0.63700  0.95400  1.0000
