data_image0
_chemical_formula_structural       Co12Li12Mo8O48
_chemical_formula_sum              "Co12 Li12 Mo8 O48"
_cell_length_a       10.0058
_cell_length_b       10.0058
_cell_length_c       10.0058
_cell_angle_alpha    109.471
_cell_angle_beta     109.471
_cell_angle_gamma    109.471

_space_group_name_H-M_alt    "P 1"
_space_group_IT_number       1

loop_
  _space_group_symop_operation_xyz
  'x, y, z'

loop_
  _atom_site_type_symbol
  _atom_site_label
  _atom_site_symmetry_multiplicity
  _atom_site_fract_x
  _atom_site_fract_y
  _atom_site_fract_z
  _atom_site_occupancy
  Co  Co1       1.0  0.37500  0.25000  0.12500  1.0000
  Co  Co2       1.0  0.25000  0.87500  0.12500  1.0000
  Co  Co3       1.0  0.87500  0.12500  0.25000  1.0000
  Co  Co4       1.0  0.37500  0.62500  0.25000  1.0000
  Co  Co5       1.0  0.12500  0.75000  0.37500  1.0000
  Co  Co6       1.0  0.75000  0.62500  0.37500  1.0000
  Co  Co7       1.0  0.87500  0.25000  0.62500  1.0000
  Co  Co8       1.0  0.25000  0.37500  0.62500  1.0000
  Co  Co9       1.0  0.62500  0.37500  0.75000  1.0000
  Co  Co10      1.0  0.12500  0.87500  0.75000  1.0000
  Co  Co11      1.0  0.75000  0.12500  0.87500  1.0000
  Co  Co12      1.0  0.62500  0.75000  0.87500  1.0000
  Li  Li1       1.0  0.75000  0.37500  0.12500  1.0000
  Li  Li2       1.0  0.87500  0.75000  0.12500  1.0000
  Li  Li3       1.0  0.12500  0.37500  0.25000  1.0000
  Li  Li4       1.0  0.62500  0.87500  0.25000  1.0000
  Li  Li5       1.0  0.25000  0.12500  0.37500  1.0000
  Li  Li6       1.0  0.62500  0.25000  0.37500  1.0000
  Li  Li7       1.0  0.37500  0.75000  0.62500  1.0000
  Li  Li8       1.0  0.75000  0.87500  0.62500  1.0000
  Li  Li9       1.0  0.37500  0.12500  0.75000  1.0000
  Li  Li10      1.0  0.87500  0.62500  0.75000  1.0000
  Li  Li11      1.0  0.12500  0.25000  0.87500  1.0000
  Li  Li12      1.0  0.25000  0.62500  0.87500  1.0000
  Mo  Mo1       1.0  0.00000  0.00000  0.00000  1.0000
  Mo  Mo2       1.0  0.50000  0.00000  0.00000  1.0000
  Mo  Mo3       1.0  0.50000  0.50000  0.00000  1.0000
  Mo  Mo4       1.0  0.00000  0.50000  0.00000  1.0000
  Mo  Mo5       1.0  0.50000  0.00000  0.50000  1.0000
  Mo  Mo6       1.0  0.00000  0.50000  0.50000  1.0000
  Mo  Mo7       1.0  0.00000  0.00000  0.50000  1.0000
  Mo  Mo8       1.0  0.50000  0.50000  0.50000  1.0000
  O   O1        1.0  0.21800  0.61900  0.03870  1.0000
  O   O2        1.0  0.32100  0.42000  0.03870  1.0000
  O   O3        1.0  0.61900  0.90100  0.08040  1.0000
  O   O4        1.0  0.96100  0.17900  0.08040  1.0000
  O   O5        1.0  0.71800  0.17900  0.09880  1.0000
  O   O6        1.0  0.88100  0.92000  0.09880  1.0000
  O   O7        1.0  0.03870  0.71800  0.11900  1.0000
  O   O8        1.0  0.58000  0.40100  0.11900  1.0000
  O   O9        1.0  0.21800  0.09880  0.17900  1.0000
  O   O10       1.0  0.46100  0.08040  0.17900  1.0000
  O   O11       1.0  0.11900  0.53900  0.21800  1.0000
  O   O12       1.0  0.59900  0.67900  0.21800  1.0000
  O   O13       1.0  0.32100  0.40100  0.28200  1.0000
  O   O14       1.0  0.46100  0.88100  0.28200  1.0000
  O   O15       1.0  0.90100  0.78200  0.32100  1.0000
  O   O16       1.0  0.92000  0.53900  0.32100  1.0000
  O   O17       1.0  0.28200  0.96100  0.38100  1.0000
  O   O18       1.0  0.59900  0.42000  0.38100  1.0000
  O   O19       1.0  0.08040  0.11900  0.40100  1.0000
  O   O20       1.0  0.82100  0.28200  0.40100  1.0000
  O   O21       1.0  0.82100  0.03870  0.42000  1.0000
  O   O22       1.0  0.09880  0.38100  0.42000  1.0000
  O   O23       1.0  0.58000  0.67900  0.46100  1.0000
  O   O24       1.0  0.38100  0.78200  0.46100  1.0000
  O   O25       1.0  0.42000  0.32100  0.53900  1.0000
  O   O26       1.0  0.61900  0.21800  0.53900  1.0000
  O   O27       1.0  0.17900  0.96100  0.58000  1.0000
  O   O28       1.0  0.90100  0.61900  0.58000  1.0000
  O   O29       1.0  0.17900  0.71800  0.59900  1.0000
  O   O30       1.0  0.92000  0.88100  0.59900  1.0000
  O   O31       1.0  0.40100  0.58000  0.61900  1.0000
  O   O32       1.0  0.71800  0.03870  0.61900  1.0000
  O   O33       1.0  0.09880  0.21800  0.67900  1.0000
  O   O34       1.0  0.08040  0.46100  0.67900  1.0000
  O   O35       1.0  0.67900  0.59900  0.71800  1.0000
  O   O36       1.0  0.53900  0.11900  0.71800  1.0000
  O   O37       1.0  0.88100  0.46100  0.78200  1.0000
  O   O38       1.0  0.40100  0.32100  0.78200  1.0000
  O   O39       1.0  0.53900  0.92000  0.82100  1.0000
  O   O40       1.0  0.78200  0.90100  0.82100  1.0000
  O   O41       1.0  0.96100  0.28200  0.88100  1.0000
  O   O42       1.0  0.42000  0.59900  0.88100  1.0000
  O   O43       1.0  0.28200  0.82100  0.90100  1.0000
  O   O44       1.0  0.11900  0.08040  0.90100  1.0000
  O   O45       1.0  0.38100  0.09880  0.92000  1.0000
  O   O46       1.0  0.03870  0.82100  0.92000  1.0000
  O   O47       1.0  0.78200  0.38100  0.96100  1.0000
  O   O48       1.0  0.67900  0.58000  0.96100  1.0000
