data_image0
_chemical_formula_structural       Ag12O14Si4
_chemical_formula_sum              "Ag12 O14 Si4"
_cell_length_a       10.2206
_cell_length_b       5.27419
_cell_length_c       8.00635
_cell_angle_alpha    90
_cell_angle_beta     109.938
_cell_angle_gamma    90

_space_group_name_H-M_alt    "P 1"
_space_group_IT_number       1

loop_
  _space_group_symop_operation_xyz
  'x, y, z'

loop_
  _atom_site_type_symbol
  _atom_site_label
  _atom_site_symmetry_multiplicity
  _atom_site_fract_x
  _atom_site_fract_y
  _atom_site_fract_z
  _atom_site_occupancy
  Ag  Ag1       1.0  0.10900  0.27500  0.04130  1.0000
  Ag  Ag2       1.0  0.64000  0.74600  0.08390  1.0000
  Ag  Ag3       1.0  0.89800  0.31300  0.21100  1.0000
  Ag  Ag4       1.0  0.60200  0.31300  0.28900  1.0000
  Ag  Ag5       1.0  0.86000  0.74600  0.41600  1.0000
  Ag  Ag6       1.0  0.39100  0.27500  0.45900  1.0000
  Ag  Ag7       1.0  0.60900  0.72500  0.54100  1.0000
  Ag  Ag8       1.0  0.14000  0.25400  0.58400  1.0000
  Ag  Ag9       1.0  0.39800  0.68700  0.71100  1.0000
  Ag  Ag10      1.0  0.10200  0.68700  0.78900  1.0000
  Ag  Ag11      1.0  0.36000  0.25400  0.91600  1.0000
  Ag  Ag12      1.0  0.89100  0.72500  0.95900  1.0000
  O   O1        1.0  0.68700  0.17700  0.04680  1.0000
  O   O2        1.0  0.36800  0.43100  0.18500  1.0000
  O   O3        1.0  0.98300  0.86700  0.23100  1.0000
  O   O4        1.0  0.25000  0.86300  0.25000  1.0000
  O   O5        1.0  0.51700  0.86700  0.26900  1.0000
  O   O6        1.0  0.13200  0.43100  0.31500  1.0000
  O   O7        1.0  0.81300  0.17700  0.45300  1.0000
  O   O8        1.0  0.18700  0.82300  0.54700  1.0000
  O   O9        1.0  0.86800  0.56900  0.68500  1.0000
  O   O10       1.0  0.48300  0.13300  0.73100  1.0000
  O   O11       1.0  0.75000  0.13700  0.75000  1.0000
  O   O12       1.0  0.01680  0.13300  0.76900  1.0000
  O   O13       1.0  0.63200  0.56900  0.81500  1.0000
  O   O14       1.0  0.31300  0.82300  0.95300  1.0000
  Si  Si1       1.0  0.36300  0.74400  0.16300  1.0000
  Si  Si2       1.0  0.13700  0.74400  0.33700  1.0000
  Si  Si3       1.0  0.86300  0.25600  0.66300  1.0000
  Si  Si4       1.0  0.63700  0.25600  0.83700  1.0000
