data_image0
_chemical_formula_structural       CrHoLi4O6
_chemical_formula_sum              "Cr1 Ho1 Li4 O6"
_cell_length_a       5.2767
_cell_length_b       5.2767
_cell_length_c       5.09181
_cell_angle_alpha    99.3759
_cell_angle_beta     99.3759
_cell_angle_gamma    120.391

_space_group_name_H-M_alt    "P 1"
_space_group_IT_number       1

loop_
  _space_group_symop_operation_xyz
  'x, y, z'

loop_
  _atom_site_type_symbol
  _atom_site_label
  _atom_site_symmetry_multiplicity
  _atom_site_fract_x
  _atom_site_fract_y
  _atom_site_fract_z
  _atom_site_occupancy
  Cr  Cr1       1.0  0.16900  0.83100  0.00000  1.0000
  Ho  Ho1       1.0  0.83900  0.16100  0.00000  1.0000
  Li  Li1       1.0  0.49700  0.50300  0.00000  1.0000
  Li  Li2       1.0  0.02410  0.97600  0.50000  1.0000
  Li  Li3       1.0  0.64800  0.35200  0.50000  1.0000
  Li  Li4       1.0  0.34300  0.65700  0.50000  1.0000
  O   O1        1.0  0.94200  0.62100  0.21600  1.0000
  O   O2        1.0  0.53200  0.90500  0.23700  1.0000
  O   O3        1.0  0.25000  0.21800  0.24600  1.0000
  O   O4        1.0  0.78200  0.75000  0.75400  1.0000
  O   O5        1.0  0.09470  0.46800  0.76300  1.0000
  O   O6        1.0  0.37900  0.05770  0.78400  1.0000
