data_image0
_chemical_formula_structural       Nd2O18P6
_chemical_formula_sum              "Nd2 O18 P6"
_cell_length_a       7.0059
_cell_length_b       7.0059
_cell_length_c       7.21425
_cell_angle_alpha    90
_cell_angle_beta     90
_cell_angle_gamma    74.8002

_space_group_name_H-M_alt    "P 1"
_space_group_IT_number       1

loop_
  _space_group_symop_operation_xyz
  'x, y, z'

loop_
  _atom_site_type_symbol
  _atom_site_label
  _atom_site_symmetry_multiplicity
  _atom_site_fract_x
  _atom_site_fract_y
  _atom_site_fract_z
  _atom_site_occupancy
  Nd  Nd1       1.0  0.12400  0.87600  0.25000  1.0000
  Nd  Nd2       1.0  0.87600  0.12400  0.75000  1.0000
  O   O1        1.0  0.62200  0.62200  0.00000  1.0000
  O   O2        1.0  0.87200  0.17500  0.08020  1.0000
  O   O3        1.0  0.53000  0.25000  0.20100  1.0000
  O   O4        1.0  0.21600  0.52900  0.20500  1.0000
  O   O5        1.0  0.82500  0.78800  0.21000  1.0000
  O   O6        1.0  0.21200  0.17500  0.29000  1.0000
  O   O7        1.0  0.47100  0.78400  0.29500  1.0000
  O   O8        1.0  0.75000  0.47000  0.29900  1.0000
  O   O9        1.0  0.82500  0.12800  0.42000  1.0000
  O   O10       1.0  0.37800  0.37800  0.50000  1.0000
  O   O11       1.0  0.12800  0.82500  0.58000  1.0000
  O   O12       1.0  0.47000  0.75000  0.70100  1.0000
  O   O13       1.0  0.78400  0.47100  0.70500  1.0000
  O   O14       1.0  0.17500  0.21200  0.71000  1.0000
  O   O15       1.0  0.78800  0.82500  0.79000  1.0000
  O   O16       1.0  0.52900  0.21600  0.79500  1.0000
  O   O17       1.0  0.25000  0.53000  0.79900  1.0000
  O   O18       1.0  0.17500  0.87200  0.92000  1.0000
  P   P1        1.0  0.66400  0.68600  0.20700  1.0000
  P   P2        1.0  0.75000  0.25000  0.25000  1.0000
  P   P3        1.0  0.31400  0.33600  0.29300  1.0000
  P   P4        1.0  0.33600  0.31400  0.70700  1.0000
  P   P5        1.0  0.25000  0.75000  0.75000  1.0000
  P   P6        1.0  0.68600  0.66400  0.79300  1.0000
