data_image0
_chemical_formula_structural       CoHfLi4O6
_chemical_formula_sum              "Co1 Hf1 Li4 O6"
_cell_length_a       5.13561
_cell_length_b       5.13561
_cell_length_c       5.10563
_cell_angle_alpha    99.4918
_cell_angle_beta     99.4918
_cell_angle_gamma    120.048

_space_group_name_H-M_alt    "P 1"
_space_group_IT_number       1

loop_
  _space_group_symop_operation_xyz
  'x, y, z'

loop_
  _atom_site_type_symbol
  _atom_site_label
  _atom_site_symmetry_multiplicity
  _atom_site_fract_x
  _atom_site_fract_y
  _atom_site_fract_z
  _atom_site_occupancy
  Co  Co1       1.0  0.17200  0.82800  0.00000  1.0000
  Hf  Hf1       1.0  0.83600  0.16400  0.00000  1.0000
  Li  Li1       1.0  0.50000  0.50000  0.00000  1.0000
  Li  Li2       1.0  0.01800  0.98200  0.50000  1.0000
  Li  Li3       1.0  0.65000  0.35000  0.50000  1.0000
  Li  Li4       1.0  0.33600  0.66400  0.50000  1.0000
  O   O1        1.0  0.93200  0.59200  0.23000  1.0000
  O   O2        1.0  0.56300  0.92200  0.23800  1.0000
  O   O3        1.0  0.23600  0.22800  0.24000  1.0000
  O   O4        1.0  0.77200  0.76400  0.76000  1.0000
  O   O5        1.0  0.07840  0.43700  0.76200  1.0000
  O   O6        1.0  0.40800  0.06830  0.77000  1.0000
