data_image0
_chemical_formula_structural       Fe2P8
_chemical_formula_sum              "Fe2 P8"
_cell_length_a       5.00148
_cell_length_b       5.5216
_cell_length_c       5.68884
_cell_angle_alpha    90
_cell_angle_beta     63.9225
_cell_angle_gamma    90

_space_group_name_H-M_alt    "P 1"
_space_group_IT_number       1

loop_
  _space_group_symop_operation_xyz
  'x, y, z'

loop_
  _atom_site_type_symbol
  _atom_site_label
  _atom_site_symmetry_multiplicity
  _atom_site_fract_x
  _atom_site_fract_y
  _atom_site_fract_z
  _atom_site_occupancy
  Fe  Fe1       1.0  0.82600  0.25000  0.34900  1.0000
  Fe  Fe2       1.0  0.17400  0.75000  0.65100  1.0000
  P   P1        1.0  0.69300  0.19800  0.03700  1.0000
  P   P2        1.0  0.26900  0.30200  0.03700  1.0000
  P   P3        1.0  0.63600  0.63200  0.36600  1.0000
  P   P4        1.0  0.99800  0.86800  0.36600  1.0000
  P   P5        1.0  0.36400  0.13200  0.63400  1.0000
  P   P6        1.0  0.00242  0.36800  0.63400  1.0000
  P   P7        1.0  0.30700  0.69800  0.96300  1.0000
  P   P8        1.0  0.73100  0.80200  0.96300  1.0000
