data_image0
_chemical_formula_structural       CoLi4O6Pb
_chemical_formula_sum              "Co1 Li4 O6 Pb1"
_cell_length_a       5.2575
_cell_length_b       5.2575
_cell_length_c       5.17317
_cell_angle_alpha    99.6162
_cell_angle_beta     99.6162
_cell_angle_gamma    120.015

_space_group_name_H-M_alt    "P 1"
_space_group_IT_number       1

loop_
  _space_group_symop_operation_xyz
  'x, y, z'

loop_
  _atom_site_type_symbol
  _atom_site_label
  _atom_site_symmetry_multiplicity
  _atom_site_fract_x
  _atom_site_fract_y
  _atom_site_fract_z
  _atom_site_occupancy
  Co  Co1       1.0  0.17300  0.82700  0.00000  1.0000
  Li  Li1       1.0  0.50200  0.49800  0.00000  1.0000
  Li  Li2       1.0  0.02020  0.98000  0.50000  1.0000
  Li  Li3       1.0  0.65100  0.34900  0.50000  1.0000
  Li  Li4       1.0  0.33500  0.66500  0.50000  1.0000
  O   O1        1.0  0.93400  0.60400  0.23100  1.0000
  O   O2        1.0  0.54700  0.91500  0.24400  1.0000
  O   O3        1.0  0.24500  0.22400  0.24500  1.0000
  O   O4        1.0  0.77600  0.75500  0.75500  1.0000
  O   O5        1.0  0.08510  0.45300  0.75600  1.0000
  O   O6        1.0  0.39600  0.06550  0.76900  1.0000
  Pb  Pb1       1.0  0.83600  0.16400  0.00000  1.0000
