data_image0
_chemical_formula_structural       Ag4Hg8O16P4
_chemical_formula_sum              "Ag4 Hg8 O16 P4"
_cell_length_a       9.29889
_cell_length_b       8.61112
_cell_length_c       6.24842
_cell_angle_alpha    90
_cell_angle_beta     90
_cell_angle_gamma    90

_space_group_name_H-M_alt    "P 1"
_space_group_IT_number       1

loop_
  _space_group_symop_operation_xyz
  'x, y, z'

loop_
  _atom_site_type_symbol
  _atom_site_label
  _atom_site_symmetry_multiplicity
  _atom_site_fract_x
  _atom_site_fract_y
  _atom_site_fract_z
  _atom_site_occupancy
  Ag  Ag1       1.0  0.34800  0.02660  0.00000  1.0000
  Ag  Ag2       1.0  0.84800  0.47300  0.00000  1.0000
  Ag  Ag3       1.0  0.15200  0.52700  0.00000  1.0000
  Ag  Ag4       1.0  0.65200  0.97300  0.00000  1.0000
  Hg  Hg1       1.0  0.52800  0.24600  0.21300  1.0000
  Hg  Hg2       1.0  0.02820  0.25400  0.21300  1.0000
  Hg  Hg3       1.0  0.97200  0.74600  0.21300  1.0000
  Hg  Hg4       1.0  0.47200  0.75400  0.21300  1.0000
  Hg  Hg5       1.0  0.52800  0.24600  0.78700  1.0000
  Hg  Hg6       1.0  0.02820  0.25400  0.78700  1.0000
  Hg  Hg7       1.0  0.97200  0.74600  0.78700  1.0000
  Hg  Hg8       1.0  0.47200  0.75400  0.78700  1.0000
  O   O1        1.0  0.19700  0.05250  0.29100  1.0000
  O   O2        1.0  0.69700  0.44700  0.29100  1.0000
  O   O3        1.0  0.30300  0.55300  0.29100  1.0000
  O   O4        1.0  0.80300  0.94700  0.29100  1.0000
  O   O5        1.0  0.62900  0.11100  0.50000  1.0000
  O   O6        1.0  0.89900  0.17400  0.50000  1.0000
  O   O7        1.0  0.39900  0.32600  0.50000  1.0000
  O   O8        1.0  0.12900  0.38900  0.50000  1.0000
  O   O9        1.0  0.87100  0.61100  0.50000  1.0000
  O   O10       1.0  0.60100  0.67400  0.50000  1.0000
  O   O11       1.0  0.10100  0.82600  0.50000  1.0000
  O   O12       1.0  0.37100  0.88900  0.50000  1.0000
  O   O13       1.0  0.19700  0.05250  0.70900  1.0000
  O   O14       1.0  0.69700  0.44700  0.70900  1.0000
  O   O15       1.0  0.30300  0.55300  0.70900  1.0000
  O   O16       1.0  0.80300  0.94700  0.70900  1.0000
  P   P1        1.0  0.78300  0.04150  0.50000  1.0000
  P   P2        1.0  0.28300  0.45800  0.50000  1.0000
  P   P3        1.0  0.71700  0.54200  0.50000  1.0000
  P   P4        1.0  0.21700  0.95800  0.50000  1.0000
