data_image0
_chemical_formula_structural       Cl4H16Na4O8
_chemical_formula_sum              "Cl4 H16 Na4 O8"
_cell_length_a       6.26346
_cell_length_b       9.92045
_cell_length_c       6.40967
_cell_angle_alpha    90
_cell_angle_beta     114.432
_cell_angle_gamma    90

_space_group_name_H-M_alt    "P 1"
_space_group_IT_number       1

loop_
  _space_group_symop_operation_xyz
  'x, y, z'

loop_
  _atom_site_type_symbol
  _atom_site_label
  _atom_site_symmetry_multiplicity
  _atom_site_fract_x
  _atom_site_fract_y
  _atom_site_fract_z
  _atom_site_occupancy
  Cl  Cl1       1.0  0.29700  0.11900  0.21400  1.0000
  Cl  Cl2       1.0  0.70300  0.61900  0.28600  1.0000
  Cl  Cl3       1.0  0.29700  0.38100  0.71400  1.0000
  Cl  Cl4       1.0  0.70300  0.88100  0.78600  1.0000
  H   H1        1.0  0.62900  0.29800  0.05930  1.0000
  H   H2        1.0  0.74500  0.95900  0.11000  1.0000
  H   H3        1.0  0.77000  0.41300  0.22000  1.0000
  H   H4        1.0  0.61300  0.02480  0.24800  1.0000
  H   H5        1.0  0.38700  0.52500  0.25200  1.0000
  H   H6        1.0  0.23000  0.91300  0.28000  1.0000
  H   H7        1.0  0.25500  0.45900  0.39000  1.0000
  H   H8        1.0  0.37100  0.79800  0.44100  1.0000
  H   H9        1.0  0.62900  0.20200  0.55900  1.0000
  H   H10       1.0  0.74500  0.54100  0.61000  1.0000
  H   H11       1.0  0.77000  0.08700  0.72000  1.0000
  H   H12       1.0  0.61300  0.47500  0.74800  1.0000
  H   H13       1.0  0.38700  0.97500  0.75200  1.0000
  H   H14       1.0  0.23000  0.58700  0.78000  1.0000
  H   H15       1.0  0.25500  0.04070  0.89000  1.0000
  H   H16       1.0  0.37100  0.70200  0.94100  1.0000
  Na  Na1       1.0  0.97500  0.66900  0.04540  1.0000
  Na  Na2       1.0  0.02530  0.16900  0.45500  1.0000
  Na  Na3       1.0  0.97500  0.83100  0.54500  1.0000
  Na  Na4       1.0  0.02530  0.33100  0.95500  1.0000
  O   O1        1.0  0.78600  0.32000  0.17300  1.0000
  O   O2        1.0  0.23300  0.49000  0.23600  1.0000
  O   O3        1.0  0.76700  0.99000  0.26400  1.0000
  O   O4        1.0  0.21400  0.82000  0.32700  1.0000
  O   O5        1.0  0.78600  0.18000  0.67300  1.0000
  O   O6        1.0  0.23300  0.00976  0.73600  1.0000
  O   O7        1.0  0.76700  0.51000  0.76400  1.0000
  O   O8        1.0  0.21400  0.68000  0.82700  1.0000
