data_image0
_chemical_formula_structural       Br2K6Mo4O14
_chemical_formula_sum              "Br2 K6 Mo4 O14"
_cell_length_a       5.93847
_cell_length_b       5.93862
_cell_length_c       15.6652
_cell_angle_alpha    90
_cell_angle_beta     90
_cell_angle_gamma    119.999

_space_group_name_H-M_alt    "P 1"
_space_group_IT_number       1

loop_
  _space_group_symop_operation_xyz
  'x, y, z'

loop_
  _atom_site_type_symbol
  _atom_site_label
  _atom_site_symmetry_multiplicity
  _atom_site_fract_x
  _atom_site_fract_y
  _atom_site_fract_z
  _atom_site_occupancy
  Br  Br1       1.0  0.66700  0.33300  0.25000  1.0000
  Br  Br2       1.0  0.33300  0.66700  0.75000  1.0000
  K   K1        1.0  0.66700  0.33300  0.04260  1.0000
  K   K2        1.0  0.33300  0.66700  0.25000  1.0000
  K   K3        1.0  0.66700  0.33300  0.45700  1.0000
  K   K4        1.0  0.33300  0.66700  0.54300  1.0000
  K   K5        1.0  0.66700  0.33300  0.75000  1.0000
  K   K6        1.0  0.33300  0.66700  0.95700  1.0000
  Mo  Mo1       1.0  0.00000  0.00000  0.13000  1.0000
  Mo  Mo2       1.0  0.00000  0.00000  0.37000  1.0000
  Mo  Mo3       1.0  0.00000  0.00000  0.63000  1.0000
  Mo  Mo4       1.0  0.00000  0.00000  0.87000  1.0000
  O   O1        1.0  0.16000  0.84000  0.09060  1.0000
  O   O2        1.0  0.67900  0.84000  0.09060  1.0000
  O   O3        1.0  0.16000  0.32100  0.09060  1.0000
  O   O4        1.0  0.00000  0.00000  0.25000  1.0000
  O   O5        1.0  0.16000  0.32100  0.40900  1.0000
  O   O6        1.0  0.16000  0.84000  0.40900  1.0000
  O   O7        1.0  0.67900  0.84000  0.40900  1.0000
  O   O8        1.0  0.32100  0.16000  0.59100  1.0000
  O   O9        1.0  0.84000  0.16000  0.59100  1.0000
  O   O10       1.0  0.84000  0.67900  0.59100  1.0000
  O   O11       1.0  0.00000  0.00000  0.75000  1.0000
  O   O12       1.0  0.84000  0.67900  0.90900  1.0000
  O   O13       1.0  0.32100  0.16000  0.90900  1.0000
  O   O14       1.0  0.84000  0.16000  0.90900  1.0000
