data_image0
_chemical_formula_structural       Fe8O24W4
_chemical_formula_sum              "Fe8 O24 W4"
_cell_length_a       4.5576
_cell_length_b       16.7487
_cell_length_c       4.98543
_cell_angle_alpha    90
_cell_angle_beta     90
_cell_angle_gamma    90

_space_group_name_H-M_alt    "P 1"
_space_group_IT_number       1

loop_
  _space_group_symop_operation_xyz
  'x, y, z'

loop_
  _atom_site_type_symbol
  _atom_site_label
  _atom_site_symmetry_multiplicity
  _atom_site_fract_x
  _atom_site_fract_y
  _atom_site_fract_z
  _atom_site_occupancy
  Fe  Fe1       1.0  0.00000  0.05370  0.25000  1.0000
  Fe  Fe2       1.0  0.50000  0.22300  0.25000  1.0000
  Fe  Fe3       1.0  0.50000  0.55400  0.25000  1.0000
  Fe  Fe4       1.0  0.00000  0.72300  0.25000  1.0000
  Fe  Fe5       1.0  0.00000  0.27700  0.75000  1.0000
  Fe  Fe6       1.0  0.50000  0.44600  0.75000  1.0000
  Fe  Fe7       1.0  0.50000  0.77700  0.75000  1.0000
  Fe  Fe8       1.0  0.00000  0.94600  0.75000  1.0000
  O   O1        1.0  0.27100  0.12600  0.07030  1.0000
  O   O2        1.0  0.22900  0.62600  0.07030  1.0000
  O   O3        1.0  0.22800  0.29800  0.08280  1.0000
  O   O4        1.0  0.27200  0.79800  0.08280  1.0000
  O   O5        1.0  0.26300  0.46000  0.09320  1.0000
  O   O6        1.0  0.23700  0.96000  0.09320  1.0000
  O   O7        1.0  0.73700  0.46000  0.40700  1.0000
  O   O8        1.0  0.76300  0.96000  0.40700  1.0000
  O   O9        1.0  0.77200  0.29800  0.41700  1.0000
  O   O10       1.0  0.72800  0.79800  0.41700  1.0000
  O   O11       1.0  0.72900  0.12600  0.43000  1.0000
  O   O12       1.0  0.77100  0.62600  0.43000  1.0000
  O   O13       1.0  0.22900  0.37400  0.57000  1.0000
  O   O14       1.0  0.27100  0.87400  0.57000  1.0000
  O   O15       1.0  0.27200  0.20200  0.58300  1.0000
  O   O16       1.0  0.22800  0.70200  0.58300  1.0000
  O   O17       1.0  0.23700  0.04030  0.59300  1.0000
  O   O18       1.0  0.26300  0.54000  0.59300  1.0000
  O   O19       1.0  0.76300  0.04030  0.90700  1.0000
  O   O20       1.0  0.73700  0.54000  0.90700  1.0000
  O   O21       1.0  0.72800  0.20200  0.91700  1.0000
  O   O22       1.0  0.77200  0.70200  0.91700  1.0000
  O   O23       1.0  0.77100  0.37400  0.93000  1.0000
  O   O24       1.0  0.72900  0.87400  0.93000  1.0000
  W   W1        1.0  0.00000  0.38500  0.25000  1.0000
  W   W2        1.0  0.50000  0.88500  0.25000  1.0000
  W   W3        1.0  0.50000  0.11500  0.75000  1.0000
  W   W4        1.0  0.00000  0.61500  0.75000  1.0000
