data_image0
_chemical_formula_structural       Co12Li12O48Ta8
_chemical_formula_sum              "Co12 Li12 O48 Ta8"
_cell_length_a       10.0573
_cell_length_b       10.0573
_cell_length_c       10.0573
_cell_angle_alpha    109.471
_cell_angle_beta     109.471
_cell_angle_gamma    109.471

_space_group_name_H-M_alt    "P 1"
_space_group_IT_number       1

loop_
  _space_group_symop_operation_xyz
  'x, y, z'

loop_
  _atom_site_type_symbol
  _atom_site_label
  _atom_site_symmetry_multiplicity
  _atom_site_fract_x
  _atom_site_fract_y
  _atom_site_fract_z
  _atom_site_occupancy
  Co  Co1       1.0  0.37500  0.25000  0.12500  1.0000
  Co  Co2       1.0  0.25000  0.87500  0.12500  1.0000
  Co  Co3       1.0  0.87500  0.12500  0.25000  1.0000
  Co  Co4       1.0  0.37500  0.62500  0.25000  1.0000
  Co  Co5       1.0  0.75000  0.62500  0.37500  1.0000
  Co  Co6       1.0  0.12500  0.75000  0.37500  1.0000
  Co  Co7       1.0  0.87500  0.25000  0.62500  1.0000
  Co  Co8       1.0  0.25000  0.37500  0.62500  1.0000
  Co  Co9       1.0  0.62500  0.37500  0.75000  1.0000
  Co  Co10      1.0  0.12500  0.87500  0.75000  1.0000
  Co  Co11      1.0  0.75000  0.12500  0.87500  1.0000
  Co  Co12      1.0  0.62500  0.75000  0.87500  1.0000
  Li  Li1       1.0  0.75000  0.37500  0.12500  1.0000
  Li  Li2       1.0  0.87500  0.75000  0.12500  1.0000
  Li  Li3       1.0  0.12500  0.37500  0.25000  1.0000
  Li  Li4       1.0  0.62500  0.87500  0.25000  1.0000
  Li  Li5       1.0  0.25000  0.12500  0.37500  1.0000
  Li  Li6       1.0  0.62500  0.25000  0.37500  1.0000
  Li  Li7       1.0  0.37500  0.75000  0.62500  1.0000
  Li  Li8       1.0  0.75000  0.87500  0.62500  1.0000
  Li  Li9       1.0  0.37500  0.12500  0.75000  1.0000
  Li  Li10      1.0  0.87500  0.62500  0.75000  1.0000
  Li  Li11      1.0  0.12500  0.25000  0.87500  1.0000
  Li  Li12      1.0  0.25000  0.62500  0.87500  1.0000
  O   O1        1.0  0.31800  0.42300  0.04360  1.0000
  O   O2        1.0  0.22500  0.62100  0.04360  1.0000
  O   O3        1.0  0.62100  0.89600  0.07740  1.0000
  O   O4        1.0  0.95600  0.18200  0.07740  1.0000
  O   O5        1.0  0.72500  0.18200  0.10400  1.0000
  O   O6        1.0  0.87900  0.92300  0.10400  1.0000
  O   O7        1.0  0.57700  0.39600  0.12100  1.0000
  O   O8        1.0  0.04360  0.72500  0.12100  1.0000
  O   O9        1.0  0.45600  0.07740  0.18200  1.0000
  O   O10       1.0  0.22500  0.10400  0.18200  1.0000
  O   O11       1.0  0.12100  0.54400  0.22500  1.0000
  O   O12       1.0  0.60400  0.68200  0.22500  1.0000
  O   O13       1.0  0.31800  0.39600  0.27500  1.0000
  O   O14       1.0  0.45600  0.87900  0.27500  1.0000
  O   O15       1.0  0.92300  0.54400  0.31800  1.0000
  O   O16       1.0  0.89600  0.77500  0.31800  1.0000
  O   O17       1.0  0.60400  0.42300  0.37900  1.0000
  O   O18       1.0  0.27500  0.95600  0.37900  1.0000
  O   O19       1.0  0.07740  0.12100  0.39600  1.0000
  O   O20       1.0  0.81800  0.27500  0.39600  1.0000
  O   O21       1.0  0.81800  0.04360  0.42300  1.0000
  O   O22       1.0  0.10400  0.37900  0.42300  1.0000
  O   O23       1.0  0.57700  0.68200  0.45600  1.0000
  O   O24       1.0  0.37900  0.77500  0.45600  1.0000
  O   O25       1.0  0.62100  0.22500  0.54400  1.0000
  O   O26       1.0  0.42300  0.31800  0.54400  1.0000
  O   O27       1.0  0.18200  0.95600  0.57700  1.0000
  O   O28       1.0  0.89600  0.62100  0.57700  1.0000
  O   O29       1.0  0.92300  0.87900  0.60400  1.0000
  O   O30       1.0  0.18200  0.72500  0.60400  1.0000
  O   O31       1.0  0.72500  0.04360  0.62100  1.0000
  O   O32       1.0  0.39600  0.57700  0.62100  1.0000
  O   O33       1.0  0.10400  0.22500  0.68200  1.0000
  O   O34       1.0  0.07740  0.45600  0.68200  1.0000
  O   O35       1.0  0.68200  0.60400  0.72500  1.0000
  O   O36       1.0  0.54400  0.12100  0.72500  1.0000
  O   O37       1.0  0.39600  0.31800  0.77500  1.0000
  O   O38       1.0  0.87900  0.45600  0.77500  1.0000
  O   O39       1.0  0.77500  0.89600  0.81800  1.0000
  O   O40       1.0  0.54400  0.92300  0.81800  1.0000
  O   O41       1.0  0.95600  0.27500  0.87900  1.0000
  O   O42       1.0  0.42300  0.60400  0.87900  1.0000
  O   O43       1.0  0.12100  0.07740  0.89600  1.0000
  O   O44       1.0  0.27500  0.81800  0.89600  1.0000
  O   O45       1.0  0.37900  0.10400  0.92300  1.0000
  O   O46       1.0  0.04360  0.81800  0.92300  1.0000
  O   O47       1.0  0.77500  0.37900  0.95600  1.0000
  O   O48       1.0  0.68200  0.57700  0.95600  1.0000
  Ta  Ta1       1.0  0.00000  0.00000  0.00000  1.0000
  Ta  Ta2       1.0  0.50000  0.00000  0.00000  1.0000
  Ta  Ta3       1.0  0.00000  0.50000  0.00000  1.0000
  Ta  Ta4       1.0  0.50000  0.50000  0.00000  1.0000
  Ta  Ta5       1.0  0.00000  0.00000  0.50000  1.0000
  Ta  Ta6       1.0  0.50000  0.00000  0.50000  1.0000
  Ta  Ta7       1.0  0.00000  0.50000  0.50000  1.0000
  Ta  Ta8       1.0  0.50000  0.50000  0.50000  1.0000
