data_image0
_chemical_formula_structural       C4Co2H12N4O6S4
_chemical_formula_sum              "C4 Co2 H12 N4 O6 S4"
_cell_length_a       5.89597
_cell_length_b       6.7536
_cell_length_c       10.5095
_cell_angle_alpha    89.8806
_cell_angle_beta     90
_cell_angle_gamma    115.881

_space_group_name_H-M_alt    "P 1"
_space_group_IT_number       1

loop_
  _space_group_symop_operation_xyz
  'x, y, z'

loop_
  _atom_site_type_symbol
  _atom_site_label
  _atom_site_symmetry_multiplicity
  _atom_site_fract_x
  _atom_site_fract_y
  _atom_site_fract_z
  _atom_site_occupancy
  C   C1        1.0  0.59100  0.33700  0.23100  1.0000
  C   C2        1.0  0.25400  0.66300  0.26900  1.0000
  C   C3        1.0  0.74600  0.33700  0.73100  1.0000
  C   C4        1.0  0.40900  0.66300  0.76900  1.0000
  Co  Co1       1.0  0.00000  0.50000  0.00000  1.0000
  Co  Co2       1.0  0.50000  0.50000  0.50000  1.0000
  H   H1        1.0  0.26100  0.25400  0.00625  1.0000
  H   H2        1.0  0.93400  0.84000  0.10800  1.0000
  H   H3        1.0  0.88100  0.09880  0.20300  1.0000
  H   H4        1.0  0.78300  0.90100  0.29700  1.0000
  H   H5        1.0  0.09380  0.16000  0.39200  1.0000
  H   H6        1.0  0.00705  0.74600  0.49400  1.0000
  H   H7        1.0  0.99300  0.25400  0.50600  1.0000
  H   H8        1.0  0.90600  0.84000  0.60800  1.0000
  H   H9        1.0  0.21700  0.09880  0.70300  1.0000
  H   H10       1.0  0.11900  0.90100  0.79700  1.0000
  H   H11       1.0  0.06590  0.16000  0.89200  1.0000
  H   H12       1.0  0.73900  0.74600  0.99400  1.0000
  N   N1        1.0  0.17300  0.57700  0.17100  1.0000
  N   N2        1.0  0.59700  0.42300  0.32900  1.0000
  N   N3        1.0  0.40300  0.57700  0.67100  1.0000
  N   N4        1.0  0.82700  0.42300  0.82900  1.0000
  O   O1        1.0  0.90000  0.75600  0.02730  1.0000
  O   O2        1.0  0.93500  0.00000  0.25000  1.0000
  O   O3        1.0  0.14400  0.24400  0.47300  1.0000
  O   O4        1.0  0.85600  0.75600  0.52700  1.0000
  O   O5        1.0  0.06460  0.00000  0.75000  1.0000
  O   O6        1.0  0.09980  0.24400  0.97300  1.0000
  S   S1        1.0  0.58700  0.21700  0.09610  1.0000
  S   S2        1.0  0.37100  0.78300  0.40400  1.0000
  S   S3        1.0  0.62900  0.21700  0.59600  1.0000
  S   S4        1.0  0.41300  0.78300  0.90400  1.0000
