data_image0
_chemical_formula_structural       Cd2Na14O9
_chemical_formula_sum              "Cd2 Na14 O9"
_cell_length_a       6.73731
_cell_length_b       6.73739
_cell_length_c       9.37338
_cell_angle_alpha    90.0001
_cell_angle_beta     90.0008
_cell_angle_gamma    120

_space_group_name_H-M_alt    "P 1"
_space_group_IT_number       1

loop_
  _space_group_symop_operation_xyz
  'x, y, z'

loop_
  _atom_site_type_symbol
  _atom_site_label
  _atom_site_symmetry_multiplicity
  _atom_site_fract_x
  _atom_site_fract_y
  _atom_site_fract_z
  _atom_site_occupancy
  Cd  Cd1       1.0  0.33300  0.66700  0.26000  1.0000
  Cd  Cd2       1.0  0.66700  0.33300  0.74000  1.0000
  Na  Na1       1.0  0.95800  0.31700  0.09270  1.0000
  Na  Na2       1.0  0.68300  0.64100  0.09270  1.0000
  Na  Na3       1.0  0.35900  0.04230  0.09270  1.0000
  Na  Na4       1.0  0.00000  0.00000  0.25500  1.0000
  Na  Na5       1.0  0.93800  0.62400  0.40900  1.0000
  Na  Na6       1.0  0.37600  0.31400  0.40900  1.0000
  Na  Na7       1.0  0.68600  0.06210  0.40900  1.0000
  Na  Na8       1.0  0.31400  0.93800  0.59100  1.0000
  Na  Na9       1.0  0.62400  0.68600  0.59100  1.0000
  Na  Na10      1.0  0.06220  0.37600  0.59100  1.0000
  Na  Na11      1.0  0.00000  0.00000  0.74500  1.0000
  Na  Na12      1.0  0.31700  0.35900  0.90700  1.0000
  Na  Na13      1.0  0.04230  0.68300  0.90700  1.0000
  Na  Na14      1.0  0.64100  0.95800  0.90700  1.0000
  O   O1        1.0  0.00000  0.00000  0.00000  1.0000
  O   O2        1.0  0.33300  0.66700  0.02240  1.0000
  O   O3        1.0  0.65700  0.69400  0.34000  1.0000
  O   O4        1.0  0.30600  0.96400  0.34000  1.0000
  O   O5        1.0  0.03640  0.34300  0.34000  1.0000
  O   O6        1.0  0.96400  0.65700  0.66000  1.0000
  O   O7        1.0  0.69400  0.03640  0.66000  1.0000
  O   O8        1.0  0.34300  0.30600  0.66000  1.0000
  O   O9        1.0  0.66700  0.33300  0.97800  1.0000
