data_image0
_chemical_formula_structural       Cu8F4O16P4
_chemical_formula_sum              "Cu8 F4 O16 P4"
_cell_length_a       6.16625
_cell_length_b       7.05695
_cell_length_c       9.346
_cell_angle_alpha    89.9561
_cell_angle_beta     109.262
_cell_angle_gamma    115.906

_space_group_name_H-M_alt    "P 1"
_space_group_IT_number       1

loop_
  _space_group_symop_operation_xyz
  'x, y, z'

loop_
  _atom_site_type_symbol
  _atom_site_label
  _atom_site_symmetry_multiplicity
  _atom_site_fract_x
  _atom_site_fract_y
  _atom_site_fract_z
  _atom_site_occupancy
  Cu  Cu1       1.0  0.68000  0.87900  0.00292  1.0000
  Cu  Cu2       1.0  0.18700  0.45500  0.14900  1.0000
  Cu  Cu3       1.0  0.08230  0.04470  0.35100  1.0000
  Cu  Cu4       1.0  0.29900  0.62100  0.49700  1.0000
  Cu  Cu5       1.0  0.70100  0.37900  0.50300  1.0000
  Cu  Cu6       1.0  0.91800  0.95500  0.64900  1.0000
  Cu  Cu7       1.0  0.81300  0.54500  0.85100  1.0000
  Cu  Cu8       1.0  0.32000  0.12100  0.99700  1.0000
  F   F1        1.0  0.00165  0.14500  0.09810  1.0000
  F   F2        1.0  0.25800  0.35500  0.40200  1.0000
  F   F3        1.0  0.74200  0.64500  0.59800  1.0000
  F   F4        1.0  0.99800  0.85500  0.90200  1.0000
  O   O1        1.0  0.86400  0.46200  0.09330  1.0000
  O   O2        1.0  0.46200  0.40400  0.13100  1.0000
  O   O3        1.0  0.48900  0.98100  0.13400  1.0000
  O   O4        1.0  0.83200  0.78300  0.19000  1.0000
  O   O5        1.0  0.35900  0.71700  0.31000  1.0000
  O   O6        1.0  0.87400  0.51900  0.36600  1.0000
  O   O7        1.0  0.42700  0.09630  0.36900  1.0000
  O   O8        1.0  0.80900  0.03830  0.40700  1.0000
  O   O9        1.0  0.19100  0.96200  0.59300  1.0000
  O   O10       1.0  0.57300  0.90400  0.63100  1.0000
  O   O11       1.0  0.12600  0.48100  0.63400  1.0000
  O   O12       1.0  0.64100  0.28300  0.69000  1.0000
  O   O13       1.0  0.16800  0.21700  0.81000  1.0000
  O   O14       1.0  0.51100  0.01940  0.86600  1.0000
  O   O15       1.0  0.53800  0.59600  0.86900  1.0000
  O   O16       1.0  0.13600  0.53800  0.90700  1.0000
  P   P1        1.0  0.76300  0.54300  0.19800  1.0000
  P   P2        1.0  0.52200  0.95700  0.30200  1.0000
  P   P3        1.0  0.47800  0.04250  0.69800  1.0000
  P   P4        1.0  0.23700  0.45700  0.80200  1.0000
