data_image0
_chemical_formula_structural       B12Cs4O20
_chemical_formula_sum              "B12 Cs4 O20"
_cell_length_a       6.14553
_cell_length_b       8.44912
_cell_length_c       9.0648
_cell_angle_alpha    90
_cell_angle_beta     90
_cell_angle_gamma    90

_space_group_name_H-M_alt    "P 1"
_space_group_IT_number       1

loop_
  _space_group_symop_operation_xyz
  'x, y, z'

loop_
  _atom_site_type_symbol
  _atom_site_label
  _atom_site_symmetry_multiplicity
  _atom_site_fract_x
  _atom_site_fract_y
  _atom_site_fract_z
  _atom_site_occupancy
  B   B1        1.0  0.76900  0.87400  0.02880  1.0000
  B   B2        1.0  0.58300  0.64600  0.14800  1.0000
  B   B3        1.0  0.46700  0.92400  0.19200  1.0000
  B   B4        1.0  0.53300  0.42400  0.30800  1.0000
  B   B5        1.0  0.41700  0.14600  0.35200  1.0000
  B   B6        1.0  0.23100  0.37400  0.47100  1.0000
  B   B7        1.0  0.73100  0.12600  0.52900  1.0000
  B   B8        1.0  0.91700  0.35400  0.64800  1.0000
  B   B9        1.0  0.03310  0.07590  0.69200  1.0000
  B   B10       1.0  0.96700  0.57600  0.80800  1.0000
  B   B11       1.0  0.08340  0.85400  0.85200  1.0000
  B   B12       1.0  0.26900  0.62600  0.97100  1.0000
  Cs  Cs1       1.0  0.98300  0.25900  0.12800  1.0000
  Cs  Cs2       1.0  0.01750  0.75900  0.37200  1.0000
  Cs  Cs3       1.0  0.51700  0.74100  0.62800  1.0000
  Cs  Cs4       1.0  0.48300  0.24100  0.87200  1.0000
  O   O1        1.0  0.42400  0.55900  0.05720  1.0000
  O   O2        1.0  0.75800  0.71600  0.05830  1.0000
  O   O3        1.0  0.62200  0.98100  0.09290  1.0000
  O   O4        1.0  0.46800  0.77000  0.23500  1.0000
  O   O5        1.0  0.68100  0.52900  0.24800  1.0000
  O   O6        1.0  0.31900  0.02860  0.25200  1.0000
  O   O7        1.0  0.53200  0.27000  0.26500  1.0000
  O   O8        1.0  0.37800  0.48100  0.40700  1.0000
  O   O9        1.0  0.24100  0.21600  0.44200  1.0000
  O   O10       1.0  0.57600  0.05860  0.44300  1.0000
  O   O11       1.0  0.07620  0.44100  0.55700  1.0000
  O   O12       1.0  0.74200  0.28400  0.55800  1.0000
  O   O13       1.0  0.87800  0.01940  0.59300  1.0000
  O   O14       1.0  0.03180  0.23000  0.73500  1.0000
  O   O15       1.0  0.81900  0.47100  0.74800  1.0000
  O   O16       1.0  0.18100  0.97100  0.75200  1.0000
  O   O17       1.0  0.96800  0.73000  0.76500  1.0000
  O   O18       1.0  0.12200  0.51900  0.90700  1.0000
  O   O19       1.0  0.25900  0.78400  0.94200  1.0000
  O   O20       1.0  0.92400  0.94100  0.94300  1.0000
