data_image0
_chemical_formula_structural       O16Rb8S4
_chemical_formula_sum              "O16 Rb8 S4"
_cell_length_a       7.74372
_cell_length_b       10.338
_cell_length_c       5.921
_cell_angle_alpha    90
_cell_angle_beta     90
_cell_angle_gamma    90

_space_group_name_H-M_alt    "P 1"
_space_group_IT_number       1

loop_
  _space_group_symop_operation_xyz
  'x, y, z'

loop_
  _atom_site_type_symbol
  _atom_site_label
  _atom_site_symmetry_multiplicity
  _atom_site_fract_x
  _atom_site_fract_y
  _atom_site_fract_z
  _atom_site_occupancy
  O   O1        1.0  0.80400  0.14700  0.04420  1.0000
  O   O2        1.0  0.30400  0.35300  0.04420  1.0000
  O   O3        1.0  0.54500  0.08600  0.25000  1.0000
  O   O4        1.0  0.04450  0.41400  0.25000  1.0000
  O   O5        1.0  0.29900  0.55600  0.25000  1.0000
  O   O6        1.0  0.79900  0.94400  0.25000  1.0000
  O   O7        1.0  0.80400  0.14700  0.45600  1.0000
  O   O8        1.0  0.30400  0.35300  0.45600  1.0000
  O   O9        1.0  0.69600  0.64700  0.54400  1.0000
  O   O10       1.0  0.19600  0.85300  0.54400  1.0000
  O   O11       1.0  0.20100  0.05610  0.75000  1.0000
  O   O12       1.0  0.70100  0.44400  0.75000  1.0000
  O   O13       1.0  0.95500  0.58600  0.75000  1.0000
  O   O14       1.0  0.45500  0.91400  0.75000  1.0000
  O   O15       1.0  0.69600  0.64700  0.95600  1.0000
  O   O16       1.0  0.19600  0.85300  0.95600  1.0000
  Rb  Rb1       1.0  0.17500  0.09040  0.25000  1.0000
  Rb  Rb2       1.0  0.67500  0.41000  0.25000  1.0000
  Rb  Rb3       1.0  0.98800  0.70200  0.25000  1.0000
  Rb  Rb4       1.0  0.48800  0.79800  0.25000  1.0000
  Rb  Rb5       1.0  0.51200  0.20200  0.75000  1.0000
  Rb  Rb6       1.0  0.01190  0.29800  0.75000  1.0000
  Rb  Rb7       1.0  0.32500  0.59000  0.75000  1.0000
  Rb  Rb8       1.0  0.82500  0.91000  0.75000  1.0000
  S   S1        1.0  0.73700  0.08100  0.25000  1.0000
  S   S2        1.0  0.23700  0.41900  0.25000  1.0000
  S   S3        1.0  0.76300  0.58100  0.75000  1.0000
  S   S4        1.0  0.26300  0.91900  0.75000  1.0000
