data_image0
_chemical_formula_structural       B4Ca8Cl4O12
_chemical_formula_sum              "B4 Ca8 Cl4 O12"
_cell_length_a       3.91824
_cell_length_b       8.67327
_cell_length_c       12.374
_cell_angle_alpha    90
_cell_angle_beta     100.485
_cell_angle_gamma    90

_space_group_name_H-M_alt    "P 1"
_space_group_IT_number       1

loop_
  _space_group_symop_operation_xyz
  'x, y, z'

loop_
  _atom_site_type_symbol
  _atom_site_label
  _atom_site_symmetry_multiplicity
  _atom_site_fract_x
  _atom_site_fract_y
  _atom_site_fract_z
  _atom_site_occupancy
  B   B1        1.0  0.29000  0.36600  0.15600  1.0000
  B   B2        1.0  0.71000  0.86600  0.34400  1.0000
  B   B3        1.0  0.29000  0.13400  0.65600  1.0000
  B   B4        1.0  0.71000  0.63400  0.84400  1.0000
  Ca  Ca1       1.0  0.67000  0.62200  0.11600  1.0000
  Ca  Ca2       1.0  0.70500  0.11700  0.13800  1.0000
  Ca  Ca3       1.0  0.29500  0.61700  0.36200  1.0000
  Ca  Ca4       1.0  0.33000  0.12200  0.38400  1.0000
  Ca  Ca5       1.0  0.67000  0.87800  0.61600  1.0000
  Ca  Ca6       1.0  0.70500  0.38300  0.63800  1.0000
  Ca  Ca7       1.0  0.29500  0.88300  0.86200  1.0000
  Ca  Ca8       1.0  0.33000  0.37800  0.88400  1.0000
  Cl  Cl1       1.0  0.19800  0.87500  0.08750  1.0000
  Cl  Cl2       1.0  0.80200  0.37500  0.41300  1.0000
  Cl  Cl3       1.0  0.19800  0.62500  0.58700  1.0000
  Cl  Cl4       1.0  0.80200  0.12500  0.91300  1.0000
  O   O1        1.0  0.48400  0.35900  0.07200  1.0000
  O   O2        1.0  0.19800  0.51100  0.18800  1.0000
  O   O3        1.0  0.22400  0.23000  0.20600  1.0000
  O   O4        1.0  0.77600  0.73000  0.29400  1.0000
  O   O5        1.0  0.80200  0.01130  0.31200  1.0000
  O   O6        1.0  0.51600  0.85900  0.42800  1.0000
  O   O7        1.0  0.48400  0.14100  0.57200  1.0000
  O   O8        1.0  0.19800  0.98900  0.68800  1.0000
  O   O9        1.0  0.22400  0.27000  0.70600  1.0000
  O   O10       1.0  0.77600  0.77000  0.79400  1.0000
  O   O11       1.0  0.80200  0.48900  0.81200  1.0000
  O   O12       1.0  0.51600  0.64100  0.92800  1.0000
