data_image0
_chemical_formula_structural       P6S18Zn4
_chemical_formula_sum              "P6 S18 Zn4"
_cell_length_a       6.69396
_cell_length_b       10.6381
_cell_length_c       10.6381
_cell_angle_alpha    119.592
_cell_angle_beta     94.6118
_cell_angle_gamma    85.3882

_space_group_name_H-M_alt    "P 1"
_space_group_IT_number       1

loop_
  _space_group_symop_operation_xyz
  'x, y, z'

loop_
  _atom_site_type_symbol
  _atom_site_label
  _atom_site_symmetry_multiplicity
  _atom_site_fract_x
  _atom_site_fract_y
  _atom_site_fract_z
  _atom_site_occupancy
  P   P1        1.0  0.35300  0.97500  0.02450  1.0000
  P   P2        1.0  0.62000  0.72000  0.28000  1.0000
  P   P3        1.0  0.29600  0.62600  0.37400  1.0000
  P   P4        1.0  0.70400  0.37400  0.62600  1.0000
  P   P5        1.0  0.38000  0.28000  0.72000  1.0000
  P   P6        1.0  0.64700  0.02450  0.97500  1.0000
  S   S1        1.0  0.83900  0.92900  0.07120  1.0000
  S   S2        1.0  0.66700  0.24200  0.08100  1.0000
  S   S3        1.0  0.74800  0.58700  0.09100  1.0000
  S   S4        1.0  0.33300  0.08100  0.24200  1.0000
  S   S5        1.0  0.29900  0.74100  0.25900  1.0000
  S   S6        1.0  0.16400  0.43600  0.26600  1.0000
  S   S7        1.0  0.61600  0.60500  0.39500  1.0000
  S   S8        1.0  0.74800  0.90900  0.41300  1.0000
  S   S9        1.0  0.83600  0.26600  0.43600  1.0000
  S   S10       1.0  0.16400  0.73400  0.56400  1.0000
  S   S11       1.0  0.25200  0.09100  0.58700  1.0000
  S   S12       1.0  0.38400  0.39500  0.60500  1.0000
  S   S13       1.0  0.83600  0.56400  0.73400  1.0000
  S   S14       1.0  0.70100  0.25900  0.74100  1.0000
  S   S15       1.0  0.66700  0.91900  0.75800  1.0000
  S   S16       1.0  0.25200  0.41300  0.90900  1.0000
  S   S17       1.0  0.33300  0.75800  0.91900  1.0000
  S   S18       1.0  0.16100  0.07120  0.92900  1.0000
  Zn  Zn1       1.0  0.32700  0.29800  0.04730  1.0000
  Zn  Zn2       1.0  0.67300  0.04730  0.29800  1.0000
  Zn  Zn3       1.0  0.32700  0.95300  0.70200  1.0000
  Zn  Zn4       1.0  0.67300  0.70200  0.95300  1.0000
