data_image0
_chemical_formula_structural       CrF3H18O9
_chemical_formula_sum              "Cr1 F3 H18 O9"
_cell_length_a       6.58572
_cell_length_b       6.58572
_cell_length_c       6.58572
_cell_angle_alpha    104.796
_cell_angle_beta     104.796
_cell_angle_gamma    104.796

_space_group_name_H-M_alt    "P 1"
_space_group_IT_number       1

loop_
  _space_group_symop_operation_xyz
  'x, y, z'

loop_
  _atom_site_type_symbol
  _atom_site_label
  _atom_site_symmetry_multiplicity
  _atom_site_fract_x
  _atom_site_fract_y
  _atom_site_fract_z
  _atom_site_occupancy
  Cr  Cr1       1.0  0.00037  0.00037  0.00037  1.0000
  F   F1        1.0  0.67600  0.31800  0.28400  1.0000
  F   F2        1.0  0.28400  0.67600  0.31800  1.0000
  F   F3        1.0  0.31800  0.28400  0.67600  1.0000
  H   H1        1.0  0.44700  0.19500  0.10700  1.0000
  H   H2        1.0  0.69800  0.80400  0.13800  1.0000
  H   H3        1.0  0.86000  0.30200  0.19400  1.0000
  H   H4        1.0  0.10700  0.44700  0.19500  1.0000
  H   H5        1.0  0.19400  0.86000  0.30200  1.0000
  H   H6        1.0  0.68500  0.55700  0.30800  1.0000
  H   H7        1.0  0.51100  0.68800  0.31400  1.0000
  H   H8        1.0  0.19500  0.10700  0.44700  1.0000
  H   H9        1.0  0.68800  0.31400  0.51100  1.0000
  H   H10       1.0  0.80400  0.88800  0.55600  1.0000
  H   H11       1.0  0.30800  0.68500  0.55700  1.0000
  H   H12       1.0  0.55700  0.30800  0.68500  1.0000
  H   H13       1.0  0.31400  0.51100  0.68800  1.0000
  H   H14       1.0  0.80400  0.13800  0.69800  1.0000
  H   H15       1.0  0.88800  0.55600  0.80400  1.0000
  H   H16       1.0  0.13800  0.69800  0.80400  1.0000
  H   H17       1.0  0.30200  0.19400  0.86000  1.0000
  H   H18       1.0  0.55600  0.80400  0.88800  1.0000
  O   O1        1.0  0.70300  0.87600  0.01930  1.0000
  O   O2        1.0  0.98200  0.29900  0.12700  1.0000
  O   O3        1.0  0.12700  0.98200  0.29900  1.0000
  O   O4        1.0  0.67100  0.70800  0.32300  1.0000
  O   O5        1.0  0.70800  0.32300  0.67100  1.0000
  O   O6        1.0  0.87600  0.01930  0.70300  1.0000
  O   O7        1.0  0.32300  0.67100  0.70800  1.0000
  O   O8        1.0  0.01930  0.70300  0.87600  1.0000
  O   O9        1.0  0.29900  0.12700  0.98200  1.0000
