data_image0
_chemical_formula_structural       Cl4Fe8O16P4
_chemical_formula_sum              "Cl4 Fe8 O16 P4"
_cell_length_a       8.25485
_cell_length_b       8.25485
_cell_length_c       8.28753
_cell_angle_alpha    105.429
_cell_angle_beta     111.018
_cell_angle_gamma    111.89

_space_group_name_H-M_alt    "P 1"
_space_group_IT_number       1

loop_
  _space_group_symop_operation_xyz
  'x, y, z'

loop_
  _atom_site_type_symbol
  _atom_site_label
  _atom_site_symmetry_multiplicity
  _atom_site_fract_x
  _atom_site_fract_y
  _atom_site_fract_z
  _atom_site_occupancy
  Cl  Cl1       1.0  0.27500  0.34300  0.07540  1.0000
  Cl  Cl2       1.0  0.76800  0.20000  0.42500  1.0000
  Cl  Cl3       1.0  0.23200  0.80000  0.57500  1.0000
  Cl  Cl4       1.0  0.72500  0.65700  0.92500  1.0000
  Fe  Fe1       1.0  0.00000  0.00000  0.00000  1.0000
  Fe  Fe2       1.0  0.73300  0.92600  0.17800  1.0000
  Fe  Fe3       1.0  0.97600  0.72600  0.25000  1.0000
  Fe  Fe4       1.0  0.24800  0.55500  0.32200  1.0000
  Fe  Fe5       1.0  0.50000  0.00000  0.50000  1.0000
  Fe  Fe6       1.0  0.75200  0.44500  0.67800  1.0000
  Fe  Fe7       1.0  0.02400  0.27400  0.75000  1.0000
  Fe  Fe8       1.0  0.26700  0.07380  0.82200  1.0000
  O   O1        1.0  0.80200  0.08030  0.01840  1.0000
  O   O2        1.0  0.43900  0.79100  0.03510  1.0000
  O   O3        1.0  0.93500  0.44500  0.15800  1.0000
  O   O4        1.0  0.23800  0.77100  0.20900  1.0000
  O   O5        1.0  0.06250  0.02870  0.29100  1.0000
  O   O6        1.0  0.78800  0.77700  0.34200  1.0000
  O   O7        1.0  0.25600  0.40400  0.46500  1.0000
  O   O8        1.0  0.56200  0.78400  0.48200  1.0000
  O   O9        1.0  0.43800  0.21600  0.51800  1.0000
  O   O10       1.0  0.74400  0.59600  0.53500  1.0000
  O   O11       1.0  0.21200  0.22300  0.65800  1.0000
  O   O12       1.0  0.93800  0.97100  0.70900  1.0000
  O   O13       1.0  0.76200  0.22900  0.79100  1.0000
  O   O14       1.0  0.06540  0.55500  0.84200  1.0000
  O   O15       1.0  0.56100  0.20900  0.96500  1.0000
  O   O16       1.0  0.19800  0.92000  0.98200  1.0000
  P   P1        1.0  0.24000  0.75900  0.01530  1.0000
  P   P2        1.0  0.24400  0.22400  0.48500  1.0000
  P   P3        1.0  0.75600  0.77600  0.51500  1.0000
  P   P4        1.0  0.76000  0.24100  0.98500  1.0000
