data_image0
_chemical_formula_structural       Ba4Cl8H16O8
_chemical_formula_sum              "Ba4 Cl8 H16 O8"
_cell_length_a       6.69926
_cell_length_b       10.8915
_cell_length_c       7.04954
_cell_angle_alpha    90
_cell_angle_beta     91.0912
_cell_angle_gamma    90

_space_group_name_H-M_alt    "P 1"
_space_group_IT_number       1

loop_
  _space_group_symop_operation_xyz
  'x, y, z'

loop_
  _atom_site_type_symbol
  _atom_site_label
  _atom_site_symmetry_multiplicity
  _atom_site_fract_x
  _atom_site_fract_y
  _atom_site_fract_z
  _atom_site_occupancy
  Ba  Ba1       1.0  0.04080  0.21700  0.14600  1.0000
  Ba  Ba2       1.0  0.45900  0.71700  0.35400  1.0000
  Ba  Ba3       1.0  0.54100  0.28300  0.64600  1.0000
  Ba  Ba4       1.0  0.95900  0.78300  0.85400  1.0000
  Cl  Cl1       1.0  0.86000  0.60100  0.20200  1.0000
  Cl  Cl2       1.0  0.13400  0.91900  0.21300  1.0000
  Cl  Cl3       1.0  0.36600  0.41900  0.28700  1.0000
  Cl  Cl4       1.0  0.64000  0.10100  0.29800  1.0000
  Cl  Cl5       1.0  0.36000  0.89900  0.70200  1.0000
  Cl  Cl6       1.0  0.63400  0.58100  0.71300  1.0000
  Cl  Cl7       1.0  0.86600  0.08100  0.78700  1.0000
  Cl  Cl8       1.0  0.14000  0.39900  0.79800  1.0000
  H   H1        1.0  0.25100  0.56300  0.01140  1.0000
  H   H2        1.0  0.47700  0.12500  0.04570  1.0000
  H   H3        1.0  0.59300  0.36400  0.10200  1.0000
  H   H4        1.0  0.64500  0.94000  0.12100  1.0000
  H   H5        1.0  0.85500  0.44000  0.37900  1.0000
  H   H6        1.0  0.90700  0.86400  0.39800  1.0000
  H   H7        1.0  0.02290  0.62500  0.45400  1.0000
  H   H8        1.0  0.24900  0.06300  0.48900  1.0000
  H   H9        1.0  0.75100  0.93700  0.51100  1.0000
  H   H10       1.0  0.97700  0.37500  0.54600  1.0000
  H   H11       1.0  0.09290  0.13600  0.60200  1.0000
  H   H12       1.0  0.14500  0.56000  0.62100  1.0000
  H   H13       1.0  0.35500  0.05970  0.87900  1.0000
  H   H14       1.0  0.40700  0.63600  0.89800  1.0000
  H   H15       1.0  0.52300  0.87500  0.95400  1.0000
  H   H16       1.0  0.74900  0.43700  0.98900  1.0000
  O   O1        1.0  0.70100  0.35300  0.00782  1.0000
  O   O2        1.0  0.62200  0.86000  0.05820  1.0000
  O   O3        1.0  0.87800  0.36000  0.44200  1.0000
  O   O4        1.0  0.79900  0.85300  0.49200  1.0000
  O   O5        1.0  0.20100  0.14700  0.50800  1.0000
  O   O6        1.0  0.12200  0.64000  0.55800  1.0000
  O   O7        1.0  0.37800  0.14000  0.94200  1.0000
  O   O8        1.0  0.29900  0.64700  0.99200  1.0000
