data_image0
_chemical_formula_structural       Co4Mo4P4
_chemical_formula_sum              "Co4 Mo4 P4"
_cell_length_a       5.79655
_cell_length_b       3.73345
_cell_length_c       6.72365
_cell_angle_alpha    90
_cell_angle_beta     90
_cell_angle_gamma    90

_space_group_name_H-M_alt    "P 1"
_space_group_IT_number       1

loop_
  _space_group_symop_operation_xyz
  'x, y, z'

loop_
  _atom_site_type_symbol
  _atom_site_label
  _atom_site_symmetry_multiplicity
  _atom_site_fract_x
  _atom_site_fract_y
  _atom_site_fract_z
  _atom_site_occupancy
  Co  Co1       1.0  0.86000  0.25000  0.06680  1.0000
  Co  Co2       1.0  0.36000  0.25000  0.43300  1.0000
  Co  Co3       1.0  0.64000  0.75000  0.56700  1.0000
  Co  Co4       1.0  0.14000  0.75000  0.93300  1.0000
  Mo  Mo1       1.0  0.53200  0.75000  0.17000  1.0000
  Mo  Mo2       1.0  0.03200  0.75000  0.33000  1.0000
  Mo  Mo3       1.0  0.96800  0.25000  0.67000  1.0000
  Mo  Mo4       1.0  0.46800  0.25000  0.83000  1.0000
  P   P1        1.0  0.23400  0.25000  0.11900  1.0000
  P   P2        1.0  0.73400  0.25000  0.38100  1.0000
  P   P3        1.0  0.26600  0.75000  0.61900  1.0000
  P   P4        1.0  0.76600  0.75000  0.88100  1.0000
