data_image0
_chemical_formula_structural       Bi2H2O24P8
_chemical_formula_sum              "Bi2 H2 O24 P8"
_cell_length_a       8.5291
_cell_length_b       8.78848
_cell_length_c       7.01053
_cell_angle_alpha    111.946
_cell_angle_beta     108.928
_cell_angle_gamma    99.0401

_space_group_name_H-M_alt    "P 1"
_space_group_IT_number       1

loop_
  _space_group_symop_operation_xyz
  'x, y, z'

loop_
  _atom_site_type_symbol
  _atom_site_label
  _atom_site_symmetry_multiplicity
  _atom_site_fract_x
  _atom_site_fract_y
  _atom_site_fract_z
  _atom_site_occupancy
  Bi  Bi1       1.0  0.25800  0.25900  0.09090  1.0000
  Bi  Bi2       1.0  0.74200  0.74100  0.90900  1.0000
  H   H1        1.0  0.84600  0.75400  0.46800  1.0000
  H   H2        1.0  0.15400  0.24600  0.53200  1.0000
  O   O1        1.0  0.03830  0.74500  0.03780  1.0000
  O   O2        1.0  0.57900  0.69500  0.12500  1.0000
  O   O3        1.0  0.74000  0.42100  0.17000  1.0000
  O   O4        1.0  0.80000  0.04730  0.18200  1.0000
  O   O5        1.0  0.32100  0.56000  0.19100  1.0000
  O   O6        1.0  0.37100  0.85400  0.19200  1.0000
  O   O7        1.0  0.20900  0.07260  0.24400  1.0000
  O   O8        1.0  0.54100  0.29100  0.31400  1.0000
  O   O9        1.0  0.93200  0.81100  0.42500  1.0000
  O   O10       1.0  0.24200  0.39400  0.45100  1.0000
  O   O11       1.0  0.23700  0.90700  0.46300  1.0000
  O   O12       1.0  0.86900  0.35400  0.48900  1.0000
  O   O13       1.0  0.13100  0.64600  0.51100  1.0000
  O   O14       1.0  0.76300  0.09260  0.53700  1.0000
  O   O15       1.0  0.75800  0.60600  0.54900  1.0000
  O   O16       1.0  0.06760  0.18900  0.57500  1.0000
  O   O17       1.0  0.45900  0.70900  0.68600  1.0000
  O   O18       1.0  0.79100  0.92700  0.75600  1.0000
  O   O19       1.0  0.62900  0.14600  0.80800  1.0000
  O   O20       1.0  0.67900  0.44000  0.80900  1.0000
  O   O21       1.0  0.20000  0.95300  0.81800  1.0000
  O   O22       1.0  0.26000  0.57900  0.83000  1.0000
  O   O23       1.0  0.42100  0.30500  0.87500  1.0000
  O   O24       1.0  0.96200  0.25500  0.96200  1.0000
  P   P1        1.0  0.39400  0.66400  0.09380  1.0000
  P   P2        1.0  0.19900  0.89400  0.21300  1.0000
  P   P3        1.0  0.71200  0.41900  0.38400  1.0000
  P   P4        1.0  0.87300  0.16100  0.42900  1.0000
  P   P5        1.0  0.12700  0.83900  0.57100  1.0000
  P   P6        1.0  0.28800  0.58100  0.61600  1.0000
  P   P7        1.0  0.80100  0.10600  0.78700  1.0000
  P   P8        1.0  0.60600  0.33600  0.90600  1.0000
