data_image0
_chemical_formula_structural       Al8B4Co2O20
_chemical_formula_sum              "Al8 B4 Co2 O20"
_cell_length_a       7.19989
_cell_length_b       4.36089
_cell_length_c       9.52089
_cell_angle_alpha    90
_cell_angle_beta     108.523
_cell_angle_gamma    90

_space_group_name_H-M_alt    "P 1"
_space_group_IT_number       1

loop_
  _space_group_symop_operation_xyz
  'x, y, z'

loop_
  _atom_site_type_symbol
  _atom_site_label
  _atom_site_symmetry_multiplicity
  _atom_site_fract_x
  _atom_site_fract_y
  _atom_site_fract_z
  _atom_site_occupancy
  Al  Al1       1.0  0.92400  0.50500  0.10800  1.0000
  Al  Al2       1.0  0.29600  0.01960  0.16900  1.0000
  Al  Al3       1.0  0.70400  0.52000  0.33100  1.0000
  Al  Al4       1.0  0.07560  0.00462  0.39200  1.0000
  Al  Al5       1.0  0.92400  0.99500  0.60800  1.0000
  Al  Al6       1.0  0.29600  0.48000  0.66900  1.0000
  Al  Al7       1.0  0.70400  0.98000  0.83100  1.0000
  Al  Al8       1.0  0.07560  0.49500  0.89200  1.0000
  B   B1        1.0  0.70900  0.07100  0.14900  1.0000
  B   B2        1.0  0.29100  0.57100  0.35100  1.0000
  B   B3        1.0  0.70900  0.42900  0.64900  1.0000
  B   B4        1.0  0.29100  0.92900  0.85100  1.0000
  Co  Co1       1.0  0.50000  0.50000  0.00000  1.0000
  Co  Co2       1.0  0.50000  0.00000  0.50000  1.0000
  O   O1        1.0  0.71300  0.20000  0.00396  1.0000
  O   O2        1.0  0.11200  0.28300  0.06150  1.0000
  O   O3        1.0  0.71800  0.74100  0.15500  1.0000
  O   O4        1.0  0.54100  0.20800  0.18500  1.0000
  O   O5        1.0  0.12000  0.74300  0.24200  1.0000
  O   O6        1.0  0.88000  0.24300  0.25800  1.0000
  O   O7        1.0  0.45900  0.70800  0.31500  1.0000
  O   O8        1.0  0.28200  0.24100  0.34500  1.0000
  O   O9        1.0  0.88800  0.78300  0.43800  1.0000
  O   O10       1.0  0.28700  0.70000  0.49600  1.0000
  O   O11       1.0  0.71300  0.30000  0.50400  1.0000
  O   O12       1.0  0.11200  0.21700  0.56200  1.0000
  O   O13       1.0  0.71800  0.75900  0.65500  1.0000
  O   O14       1.0  0.54100  0.29200  0.68500  1.0000
  O   O15       1.0  0.12000  0.75700  0.74200  1.0000
  O   O16       1.0  0.88000  0.25700  0.75800  1.0000
  O   O17       1.0  0.45900  0.79200  0.81500  1.0000
  O   O18       1.0  0.28200  0.25900  0.84500  1.0000
  O   O19       1.0  0.88800  0.71700  0.93800  1.0000
  O   O20       1.0  0.28700  0.80000  0.99600  1.0000
