data_image0
_chemical_formula_structural       CoLi4O6Te
_chemical_formula_sum              "Co1 Li4 O6 Te1"
_cell_length_a       5.15905
_cell_length_b       5.15905
_cell_length_c       5.11726
_cell_angle_alpha    100.024
_cell_angle_beta     100.023
_cell_angle_gamma    119.708

_space_group_name_H-M_alt    "P 1"
_space_group_IT_number       1

loop_
  _space_group_symop_operation_xyz
  'x, y, z'

loop_
  _atom_site_type_symbol
  _atom_site_label
  _atom_site_symmetry_multiplicity
  _atom_site_fract_x
  _atom_site_fract_y
  _atom_site_fract_z
  _atom_site_occupancy
  Co  Co1       1.0  0.83300  0.16700  0.00000  1.0000
  Li  Li1       1.0  0.50000  0.50000  0.00000  1.0000
  Li  Li2       1.0  0.99700  0.00270  0.50000  1.0000
  Li  Li3       1.0  0.34000  0.66000  0.50000  1.0000
  Li  Li4       1.0  0.66300  0.33700  0.50000  1.0000
  O   O1        1.0  0.93800  0.60100  0.22900  1.0000
  O   O2        1.0  0.55700  0.91500  0.23700  1.0000
  O   O3        1.0  0.24000  0.21900  0.23900  1.0000
  O   O4        1.0  0.78100  0.76000  0.76100  1.0000
  O   O5        1.0  0.08470  0.44300  0.76300  1.0000
  O   O6        1.0  0.39900  0.06220  0.77100  1.0000
  Te  Te1       1.0  0.16700  0.83300  0.00000  1.0000
