data_image0
_chemical_formula_structural       Li4O6TaTi
_chemical_formula_sum              "Li4 O6 Ta1 Ti1"
_cell_length_a       5.12009
_cell_length_b       5.12009
_cell_length_c       5.13537
_cell_angle_alpha    99.4304
_cell_angle_beta     99.4304
_cell_angle_gamma    119.796

_space_group_name_H-M_alt    "P 1"
_space_group_IT_number       1

loop_
  _space_group_symop_operation_xyz
  'x, y, z'

loop_
  _atom_site_type_symbol
  _atom_site_label
  _atom_site_symmetry_multiplicity
  _atom_site_fract_x
  _atom_site_fract_y
  _atom_site_fract_z
  _atom_site_occupancy
  Li  Li1       1.0  0.50000  0.50000  0.00000  1.0000
  Li  Li2       1.0  0.99400  0.00581  0.50000  1.0000
  Li  Li3       1.0  0.66100  0.33900  0.50000  1.0000
  Li  Li4       1.0  0.34500  0.65500  0.50000  1.0000
  O   O1        1.0  0.57900  0.92800  0.22700  1.0000
  O   O2        1.0  0.93000  0.58500  0.23100  1.0000
  O   O3        1.0  0.24100  0.23700  0.25000  1.0000
  O   O4        1.0  0.76300  0.75900  0.75000  1.0000
  O   O5        1.0  0.41500  0.06990  0.76900  1.0000
  O   O6        1.0  0.07200  0.42100  0.77300  1.0000
  Ta  Ta1       1.0  0.15900  0.84100  0.00000  1.0000
  Ti  Ti1       1.0  0.83900  0.16100  0.00000  1.0000
