data_image0
_chemical_formula_structural       Cd4I8O24
_chemical_formula_sum              "Cd4 I8 O24"
_cell_length_a       5.76471
_cell_length_b       17.2149
_cell_length_c       5.54648
_cell_angle_alpha    90
_cell_angle_beta     90
_cell_angle_gamma    90

_space_group_name_H-M_alt    "P 1"
_space_group_IT_number       1

loop_
  _space_group_symop_operation_xyz
  'x, y, z'

loop_
  _atom_site_type_symbol
  _atom_site_label
  _atom_site_symmetry_multiplicity
  _atom_site_fract_x
  _atom_site_fract_y
  _atom_site_fract_z
  _atom_site_occupancy
  Cd  Cd1       1.0  0.32500  0.90600  0.20600  1.0000
  Cd  Cd2       1.0  0.67500  0.40600  0.29400  1.0000
  Cd  Cd3       1.0  0.17500  0.09440  0.70600  1.0000
  Cd  Cd4       1.0  0.82500  0.59400  0.79400  1.0000
  I   I1        1.0  0.64100  0.07730  0.04610  1.0000
  I   I2        1.0  0.22600  0.21300  0.24900  1.0000
  I   I3        1.0  0.77400  0.71300  0.25100  1.0000
  I   I4        1.0  0.35900  0.57700  0.45400  1.0000
  I   I5        1.0  0.85900  0.92300  0.54600  1.0000
  I   I6        1.0  0.27400  0.78700  0.74900  1.0000
  I   I7        1.0  0.72600  0.28700  0.75100  1.0000
  I   I8        1.0  0.14100  0.42300  0.95400  1.0000
  O   O1        1.0  0.46000  0.78900  0.01930  1.0000
  O   O2        1.0  0.89100  0.48400  0.03980  1.0000
  O   O3        1.0  0.01820  0.16500  0.04380  1.0000
  O   O4        1.0  0.00882  0.33600  0.10600  1.0000
  O   O5        1.0  0.61500  0.62500  0.14000  1.0000
  O   O6        1.0  0.31400  0.45500  0.22000  1.0000
  O   O7        1.0  0.68600  0.95500  0.28000  1.0000
  O   O8        1.0  0.38500  0.12500  0.36000  1.0000
  O   O9        1.0  0.99100  0.83600  0.39400  1.0000
  O   O10       1.0  0.98200  0.66500  0.45600  1.0000
  O   O11       1.0  0.10900  0.98400  0.46000  1.0000
  O   O12       1.0  0.54000  0.28900  0.48100  1.0000
  O   O13       1.0  0.04020  0.21100  0.51900  1.0000
  O   O14       1.0  0.60900  0.51600  0.54000  1.0000
  O   O15       1.0  0.48200  0.83500  0.54400  1.0000
  O   O16       1.0  0.49100  0.66400  0.60600  1.0000
  O   O17       1.0  0.88500  0.37500  0.64000  1.0000
  O   O18       1.0  0.18600  0.54500  0.72000  1.0000
  O   O19       1.0  0.81400  0.04520  0.78000  1.0000
  O   O20       1.0  0.11500  0.87500  0.86000  1.0000
  O   O21       1.0  0.50900  0.16400  0.89400  1.0000
  O   O22       1.0  0.51800  0.33500  0.95600  1.0000
  O   O23       1.0  0.39100  0.01620  0.96000  1.0000
  O   O24       1.0  0.96000  0.71100  0.98100  1.0000
