data_image0
_chemical_formula_structural       H12N4O16
_chemical_formula_sum              "H12 N4 O16"
_cell_length_a       5.32012
_cell_length_b       8.38411
_cell_length_c       5.80664
_cell_angle_alpha    90
_cell_angle_beta     90
_cell_angle_gamma    90

_space_group_name_H-M_alt    "P 1"
_space_group_IT_number       1

loop_
  _space_group_symop_operation_xyz
  'x, y, z'

loop_
  _atom_site_type_symbol
  _atom_site_label
  _atom_site_symmetry_multiplicity
  _atom_site_fract_x
  _atom_site_fract_y
  _atom_site_fract_z
  _atom_site_occupancy
  H   H1        1.0  0.18500  0.75200  0.08300  1.0000
  H   H2        1.0  0.92700  0.86500  0.11200  1.0000
  H   H3        1.0  0.90000  0.66800  0.12100  1.0000
  H   H4        1.0  0.40000  0.16800  0.37900  1.0000
  H   H5        1.0  0.42700  0.36500  0.38800  1.0000
  H   H6        1.0  0.68500  0.25200  0.41700  1.0000
  H   H7        1.0  0.18500  0.74800  0.58300  1.0000
  H   H8        1.0  0.92700  0.63500  0.61200  1.0000
  H   H9        1.0  0.90000  0.83200  0.62100  1.0000
  H   H10       1.0  0.40000  0.33200  0.87900  1.0000
  H   H11       1.0  0.42700  0.13500  0.88800  1.0000
  H   H12       1.0  0.68500  0.24800  0.91700  1.0000
  N   N1        1.0  0.50500  0.59500  0.20200  1.0000
  N   N2        1.0  0.00487  0.09470  0.29800  1.0000
  N   N3        1.0  0.50500  0.90500  0.70200  1.0000
  N   N4        1.0  0.00487  0.40500  0.79800  1.0000
  O   O1        1.0  0.99700  0.76000  0.04430  1.0000
  O   O2        1.0  0.46800  0.73000  0.11200  1.0000
  O   O3        1.0  0.72500  0.53800  0.21700  1.0000
  O   O4        1.0  0.82000  0.01540  0.22000  1.0000
  O   O5        1.0  0.32000  0.51500  0.28000  1.0000
  O   O6        1.0  0.22500  0.03840  0.28300  1.0000
  O   O7        1.0  0.96800  0.23000  0.38800  1.0000
  O   O8        1.0  0.49700  0.26000  0.45600  1.0000
  O   O9        1.0  0.99700  0.74000  0.54400  1.0000
  O   O10       1.0  0.46800  0.77000  0.61200  1.0000
  O   O11       1.0  0.72500  0.96200  0.71700  1.0000
  O   O12       1.0  0.82000  0.48500  0.72000  1.0000
  O   O13       1.0  0.32000  0.98500  0.78000  1.0000
  O   O14       1.0  0.22500  0.46200  0.78300  1.0000
  O   O15       1.0  0.96800  0.27000  0.88800  1.0000
  O   O16       1.0  0.49700  0.24000  0.95600  1.0000
