data_image0
_chemical_formula_structural       CoLi4MoO6
_chemical_formula_sum              "Co1 Li4 Mo1 O6"
_cell_length_a       5.05399
_cell_length_b       5.05399
_cell_length_c       5.05643
_cell_angle_alpha    99.6525
_cell_angle_beta     99.6525
_cell_angle_gamma    119.887

_space_group_name_H-M_alt    "P 1"
_space_group_IT_number       1

loop_
  _space_group_symop_operation_xyz
  'x, y, z'

loop_
  _atom_site_type_symbol
  _atom_site_label
  _atom_site_symmetry_multiplicity
  _atom_site_fract_x
  _atom_site_fract_y
  _atom_site_fract_z
  _atom_site_occupancy
  Co  Co1       1.0  0.83500  0.16500  0.00000  1.0000
  Li  Li1       1.0  0.50000  0.50000  0.00000  1.0000
  Li  Li2       1.0  0.99400  0.00632  0.50000  1.0000
  Li  Li3       1.0  0.66400  0.33600  0.50000  1.0000
  Li  Li4       1.0  0.34400  0.65600  0.50000  1.0000
  Mo  Mo1       1.0  0.16500  0.83500  0.00000  1.0000
  O   O1        1.0  0.93200  0.59900  0.23300  1.0000
  O   O2        1.0  0.56100  0.91400  0.23700  1.0000
  O   O3        1.0  0.24600  0.22800  0.24200  1.0000
  O   O4        1.0  0.77200  0.75400  0.75800  1.0000
  O   O5        1.0  0.08620  0.43900  0.76300  1.0000
  O   O6        1.0  0.40100  0.06780  0.76700  1.0000
