data_image0
_chemical_formula_structural       K4O8S2
_chemical_formula_sum              "K4 O8 S2"
_cell_length_a       6.9709
_cell_length_b       6.14426
_cell_length_c       6.29441
_cell_angle_alpha    90
_cell_angle_beta     88.1925
_cell_angle_gamma    116.149

_space_group_name_H-M_alt    "P 1"
_space_group_IT_number       1

loop_
  _space_group_symop_operation_xyz
  'x, y, z'

loop_
  _atom_site_type_symbol
  _atom_site_label
  _atom_site_symmetry_multiplicity
  _atom_site_fract_x
  _atom_site_fract_y
  _atom_site_fract_z
  _atom_site_occupancy
  K   K1        1.0  0.00000  0.00000  0.00000  1.0000
  K   K2        1.0  0.50500  0.25200  0.17500  1.0000
  K   K3        1.0  0.00000  0.00000  0.50000  1.0000
  K   K4        1.0  0.49500  0.74800  0.82500  1.0000
  O   O1        1.0  0.19800  0.79600  0.18300  1.0000
  O   O2        1.0  0.19800  0.40100  0.18300  1.0000
  O   O3        1.0  0.67900  0.83900  0.23200  1.0000
  O   O4        1.0  0.87800  0.43900  0.31400  1.0000
  O   O5        1.0  0.12200  0.56100  0.68600  1.0000
  O   O6        1.0  0.32100  0.16100  0.76800  1.0000
  O   O7        1.0  0.80200  0.59900  0.81700  1.0000
  O   O8        1.0  0.80200  0.20400  0.81700  1.0000
  S   S1        1.0  0.06620  0.53300  0.17200  1.0000
  S   S2        1.0  0.93400  0.46700  0.82800  1.0000
