data_image0
_chemical_formula_structural       Ba6Cu2O18Sb4
_chemical_formula_sum              "Ba6 Cu2 O18 Sb4"
_cell_length_a       5.81151
_cell_length_b       5.81146
_cell_length_c       14.3918
_cell_angle_alpha    90
_cell_angle_beta     90
_cell_angle_gamma    120

_space_group_name_H-M_alt    "P 1"
_space_group_IT_number       1

loop_
  _space_group_symop_operation_xyz
  'x, y, z'

loop_
  _atom_site_type_symbol
  _atom_site_label
  _atom_site_symmetry_multiplicity
  _atom_site_fract_x
  _atom_site_fract_y
  _atom_site_fract_z
  _atom_site_occupancy
  Ba  Ba1       1.0  0.33300  0.66700  0.10300  1.0000
  Ba  Ba2       1.0  0.00000  0.00000  0.24000  1.0000
  Ba  Ba3       1.0  0.33300  0.66700  0.40900  1.0000
  Ba  Ba4       1.0  0.66700  0.33300  0.60300  1.0000
  Ba  Ba5       1.0  0.00000  0.00000  0.74000  1.0000
  Ba  Ba6       1.0  0.66700  0.33300  0.90900  1.0000
  Cu  Cu1       1.0  0.66700  0.33300  0.14400  1.0000
  Cu  Cu2       1.0  0.33300  0.66700  0.64400  1.0000
  O   O1        1.0  0.83900  0.67700  0.07470  1.0000
  O   O2        1.0  0.32300  0.16100  0.07470  1.0000
  O   O3        1.0  0.83900  0.16100  0.07470  1.0000
  O   O4        1.0  0.50800  0.01580  0.25200  1.0000
  O   O5        1.0  0.50800  0.49200  0.25200  1.0000
  O   O6        1.0  0.98400  0.49200  0.25200  1.0000
  O   O7        1.0  0.33200  0.16600  0.41400  1.0000
  O   O8        1.0  0.83400  0.16600  0.41400  1.0000
  O   O9        1.0  0.83400  0.66800  0.41400  1.0000
  O   O10       1.0  0.16100  0.32300  0.57500  1.0000
  O   O11       1.0  0.16100  0.83900  0.57500  1.0000
  O   O12       1.0  0.67700  0.83900  0.57500  1.0000
  O   O13       1.0  0.49200  0.98400  0.75200  1.0000
  O   O14       1.0  0.01580  0.50800  0.75200  1.0000
  O   O15       1.0  0.49200  0.50800  0.75200  1.0000
  O   O16       1.0  0.16600  0.83400  0.91400  1.0000
  O   O17       1.0  0.66800  0.83400  0.91400  1.0000
  O   O18       1.0  0.16600  0.33200  0.91400  1.0000
  Sb  Sb1       1.0  0.66700  0.33300  0.33200  1.0000
  Sb  Sb2       1.0  0.00000  0.00000  0.49800  1.0000
  Sb  Sb3       1.0  0.33300  0.66700  0.83200  1.0000
  Sb  Sb4       1.0  0.00000  0.00000  0.99800  1.0000
