data_image0
_chemical_formula_structural       O20Se8Zn4
_chemical_formula_sum              "O20 Se8 Zn4"
_cell_length_a       6.79019
_cell_length_b       10.423
_cell_length_c       6.00939
_cell_angle_alpha    90
_cell_angle_beta     90
_cell_angle_gamma    90

_space_group_name_H-M_alt    "P 1"
_space_group_IT_number       1

loop_
  _space_group_symop_operation_xyz
  'x, y, z'

loop_
  _atom_site_type_symbol
  _atom_site_label
  _atom_site_symmetry_multiplicity
  _atom_site_fract_x
  _atom_site_fract_y
  _atom_site_fract_z
  _atom_site_occupancy
  O   O1        1.0  0.34300  0.43400  0.04320  1.0000
  O   O2        1.0  0.15700  0.93400  0.04320  1.0000
  O   O3        1.0  0.20000  0.20800  0.15800  1.0000
  O   O4        1.0  0.30000  0.70800  0.15800  1.0000
  O   O5        1.0  0.00000  0.43300  0.25000  1.0000
  O   O6        1.0  0.50000  0.93300  0.25000  1.0000
  O   O7        1.0  0.80000  0.20800  0.34200  1.0000
  O   O8        1.0  0.70000  0.70800  0.34200  1.0000
  O   O9        1.0  0.65700  0.43400  0.45700  1.0000
  O   O10       1.0  0.84300  0.93400  0.45700  1.0000
  O   O11       1.0  0.15700  0.06620  0.54300  1.0000
  O   O12       1.0  0.34300  0.56600  0.54300  1.0000
  O   O13       1.0  0.30000  0.29200  0.65800  1.0000
  O   O14       1.0  0.20000  0.79200  0.65800  1.0000
  O   O15       1.0  0.50000  0.06680  0.75000  1.0000
  O   O16       1.0  0.00000  0.56700  0.75000  1.0000
  O   O17       1.0  0.70000  0.29200  0.84200  1.0000
  O   O18       1.0  0.80000  0.79200  0.84200  1.0000
  O   O19       1.0  0.84300  0.06620  0.95700  1.0000
  O   O20       1.0  0.65700  0.56600  0.95700  1.0000
  Se  Se1       1.0  0.13100  0.34400  0.02530  1.0000
  Se  Se2       1.0  0.36900  0.84400  0.02530  1.0000
  Se  Se3       1.0  0.86900  0.34400  0.47500  1.0000
  Se  Se4       1.0  0.63100  0.84400  0.47500  1.0000
  Se  Se5       1.0  0.36900  0.15600  0.52500  1.0000
  Se  Se6       1.0  0.13100  0.65600  0.52500  1.0000
  Se  Se7       1.0  0.63100  0.15600  0.97500  1.0000
  Se  Se8       1.0  0.86900  0.65600  0.97500  1.0000
  Zn  Zn1       1.0  0.00000  0.05870  0.25000  1.0000
  Zn  Zn2       1.0  0.50000  0.55900  0.25000  1.0000
  Zn  Zn3       1.0  0.50000  0.44100  0.75000  1.0000
  Zn  Zn4       1.0  0.00000  0.94100  0.75000  1.0000
