data_image0
_chemical_formula_structural       Cu4Li4O36P12
_chemical_formula_sum              "Cu4 Li4 O36 P12"
_cell_length_a       8.63437
_cell_length_b       8.17403
_cell_length_c       8.53078
_cell_angle_alpha    90
_cell_angle_beta     90
_cell_angle_gamma    90

_space_group_name_H-M_alt    "P 1"
_space_group_IT_number       1

loop_
  _space_group_symop_operation_xyz
  'x, y, z'

loop_
  _atom_site_type_symbol
  _atom_site_label
  _atom_site_symmetry_multiplicity
  _atom_site_fract_x
  _atom_site_fract_y
  _atom_site_fract_z
  _atom_site_occupancy
  Cu  Cu1       1.0  0.11400  0.09840  0.13500  1.0000
  Cu  Cu2       1.0  0.88600  0.59800  0.36500  1.0000
  Cu  Cu3       1.0  0.38600  0.90200  0.63500  1.0000
  Cu  Cu4       1.0  0.61400  0.40200  0.86500  1.0000
  Li  Li1       1.0  0.88800  0.38000  0.08730  1.0000
  Li  Li2       1.0  0.11200  0.88000  0.41300  1.0000
  Li  Li3       1.0  0.61200  0.62000  0.58700  1.0000
  Li  Li4       1.0  0.38800  0.12000  0.91300  1.0000
  O   O1        1.0  0.20400  0.61200  0.01960  1.0000
  O   O2        1.0  0.85400  0.13000  0.07930  1.0000
  O   O3        1.0  0.65200  0.43600  0.09020  1.0000
  O   O4        1.0  0.50900  0.71000  0.09630  1.0000
  O   O5        1.0  0.12800  0.33500  0.11900  1.0000
  O   O6        1.0  0.93200  0.62200  0.13700  1.0000
  O   O7        1.0  0.39600  0.08520  0.14900  1.0000
  O   O8        1.0  0.12100  0.86300  0.17100  1.0000
  O   O9        1.0  0.37900  0.46600  0.20400  1.0000
  O   O10       1.0  0.62100  0.96600  0.29600  1.0000
  O   O11       1.0  0.87900  0.36300  0.32900  1.0000
  O   O12       1.0  0.60400  0.58500  0.35100  1.0000
  O   O13       1.0  0.06830  0.12200  0.36300  1.0000
  O   O14       1.0  0.87200  0.83500  0.38100  1.0000
  O   O15       1.0  0.49100  0.21000  0.40400  1.0000
  O   O16       1.0  0.34800  0.93600  0.41000  1.0000
  O   O17       1.0  0.14600  0.63000  0.42100  1.0000
  O   O18       1.0  0.79600  0.11200  0.48000  1.0000
  O   O19       1.0  0.29600  0.38800  0.52000  1.0000
  O   O20       1.0  0.64600  0.87000  0.57900  1.0000
  O   O21       1.0  0.84800  0.56400  0.59000  1.0000
  O   O22       1.0  0.99100  0.29000  0.59600  1.0000
  O   O23       1.0  0.37200  0.66500  0.61900  1.0000
  O   O24       1.0  0.56800  0.37800  0.63700  1.0000
  O   O25       1.0  0.10400  0.91500  0.64900  1.0000
  O   O26       1.0  0.37900  0.13700  0.67100  1.0000
  O   O27       1.0  0.12100  0.53400  0.70400  1.0000
  O   O28       1.0  0.87900  0.03430  0.79600  1.0000
  O   O29       1.0  0.62100  0.63700  0.82900  1.0000
  O   O30       1.0  0.89600  0.41500  0.85100  1.0000
  O   O31       1.0  0.43200  0.87800  0.86300  1.0000
  O   O32       1.0  0.62800  0.16500  0.88100  1.0000
  O   O33       1.0  0.00872  0.79000  0.90400  1.0000
  O   O34       1.0  0.15200  0.06430  0.91000  1.0000
  O   O35       1.0  0.35400  0.37000  0.92100  1.0000
  O   O36       1.0  0.70400  0.88800  0.98000  1.0000
  P   P1        1.0  0.26400  0.43100  0.05760  1.0000
  P   P2        1.0  0.06160  0.72500  0.07130  1.0000
  P   P3        1.0  0.54900  0.54300  0.19100  1.0000
  P   P4        1.0  0.45100  0.04330  0.30900  1.0000
  P   P5        1.0  0.93800  0.22500  0.42900  1.0000
  P   P6        1.0  0.73600  0.93100  0.44200  1.0000
  P   P7        1.0  0.23600  0.56900  0.55800  1.0000
  P   P8        1.0  0.43800  0.27500  0.57100  1.0000
  P   P9        1.0  0.95100  0.45700  0.69100  1.0000
  P   P10       1.0  0.04910  0.95700  0.80900  1.0000
  P   P11       1.0  0.56200  0.77500  0.92900  1.0000
  P   P12       1.0  0.76400  0.06870  0.94200  1.0000
