data_image0
_chemical_formula_structural       Ca2O22Ta8
_chemical_formula_sum              "Ca2 O22 Ta8"
_cell_length_a       6.21159
_cell_length_b       6.21159
_cell_length_c       12.2843
_cell_angle_alpha    90.0009
_cell_angle_beta     89.9991
_cell_angle_gamma    120

_space_group_name_H-M_alt    "P 1"
_space_group_IT_number       1

loop_
  _space_group_symop_operation_xyz
  'x, y, z'

loop_
  _atom_site_type_symbol
  _atom_site_label
  _atom_site_symmetry_multiplicity
  _atom_site_fract_x
  _atom_site_fract_y
  _atom_site_fract_z
  _atom_site_occupancy
  Ca  Ca1       1.0  0.66700  0.33300  0.25000  1.0000
  Ca  Ca2       1.0  0.33300  0.66700  0.75000  1.0000
  O   O1        1.0  0.75100  0.00000  0.00000  1.0000
  O   O2        1.0  0.24900  0.24900  0.00000  1.0000
  O   O3        1.0  0.00000  0.75100  0.00000  1.0000
  O   O4        1.0  0.66700  0.33300  0.03590  1.0000
  O   O5        1.0  0.05350  0.42800  0.15700  1.0000
  O   O6        1.0  0.57200  0.62600  0.15700  1.0000
  O   O7        1.0  0.37400  0.94700  0.15700  1.0000
  O   O8        1.0  0.57200  0.94700  0.34300  1.0000
  O   O9        1.0  0.37400  0.42800  0.34300  1.0000
  O   O10       1.0  0.05350  0.62600  0.34300  1.0000
  O   O11       1.0  0.66700  0.33300  0.46400  1.0000
  O   O12       1.0  0.24900  0.00000  0.50000  1.0000
  O   O13       1.0  0.75100  0.75100  0.50000  1.0000
  O   O14       1.0  0.00000  0.24900  0.50000  1.0000
  O   O15       1.0  0.33300  0.66700  0.53600  1.0000
  O   O16       1.0  0.62600  0.05350  0.65700  1.0000
  O   O17       1.0  0.42800  0.37400  0.65700  1.0000
  O   O18       1.0  0.94700  0.57200  0.65700  1.0000
  O   O19       1.0  0.94700  0.37400  0.84300  1.0000
  O   O20       1.0  0.62600  0.57200  0.84300  1.0000
  O   O21       1.0  0.42800  0.05350  0.84300  1.0000
  O   O22       1.0  0.33300  0.66700  0.96400  1.0000
  Ta  Ta1       1.0  0.36000  0.00000  0.00000  1.0000
  Ta  Ta2       1.0  0.00000  0.36000  0.00000  1.0000
  Ta  Ta3       1.0  0.64000  0.64000  0.00000  1.0000
  Ta  Ta4       1.0  0.33300  0.66700  0.25000  1.0000
  Ta  Ta5       1.0  0.00000  0.64000  0.50000  1.0000
  Ta  Ta6       1.0  0.36000  0.36000  0.50000  1.0000
  Ta  Ta7       1.0  0.64000  0.00000  0.50000  1.0000
  Ta  Ta8       1.0  0.66700  0.33300  0.75000  1.0000
