data_image0
_chemical_formula_structural       Rb4S14Sb8
_chemical_formula_sum              "Rb4 S14 Sb8"
_cell_length_a       9.78626
_cell_length_b       11.8269
_cell_length_c       7.53383
_cell_angle_alpha    87.623
_cell_angle_beta     102.694
_cell_angle_gamma    100.179

_space_group_name_H-M_alt    "P 1"
_space_group_IT_number       1

loop_
  _space_group_symop_operation_xyz
  'x, y, z'

loop_
  _atom_site_type_symbol
  _atom_site_label
  _atom_site_symmetry_multiplicity
  _atom_site_fract_x
  _atom_site_fract_y
  _atom_site_fract_z
  _atom_site_occupancy
  Rb  Rb1       1.0  0.33900  0.10500  0.27400  1.0000
  Rb  Rb2       1.0  0.73300  0.56300  0.42300  1.0000
  Rb  Rb3       1.0  0.26700  0.43700  0.57700  1.0000
  Rb  Rb4       1.0  0.66100  0.89500  0.72600  1.0000
  S   S1        1.0  0.69800  0.35400  0.04670  1.0000
  S   S2        1.0  0.67100  0.77000  0.12900  1.0000
  S   S3        1.0  0.13100  0.84800  0.18900  1.0000
  S   S4        1.0  0.01890  0.53900  0.23400  1.0000
  S   S5        1.0  0.67300  0.04900  0.34000  1.0000
  S   S6        1.0  0.06690  0.15000  0.44000  1.0000
  S   S7        1.0  0.42400  0.71000  0.44900  1.0000
  S   S8        1.0  0.57600  0.29000  0.55100  1.0000
  S   S9        1.0  0.93300  0.85000  0.56000  1.0000
  S   S10       1.0  0.32700  0.95100  0.66000  1.0000
  S   S11       1.0  0.98100  0.46100  0.76600  1.0000
  S   S12       1.0  0.86900  0.15200  0.81100  1.0000
  S   S13       1.0  0.32900  0.23000  0.87100  1.0000
  S   S14       1.0  0.30200  0.64600  0.95300  1.0000
  Sb  Sb1       1.0  0.94900  0.34400  0.03330  1.0000
  Sb  Sb2       1.0  0.43400  0.81000  0.15500  1.0000
  Sb  Sb3       1.0  0.86500  0.94900  0.26900  1.0000
  Sb  Sb4       1.0  0.18700  0.77000  0.50000  1.0000
  Sb  Sb5       1.0  0.81300  0.23000  0.50000  1.0000
  Sb  Sb6       1.0  0.13500  0.05120  0.73100  1.0000
  Sb  Sb7       1.0  0.56600  0.19000  0.84500  1.0000
  Sb  Sb8       1.0  0.05100  0.65600  0.96700  1.0000
