data_image0
_chemical_formula_structural       Fe2I6O18
_chemical_formula_sum              "Fe2 I6 O18"
_cell_length_a       9.12876
_cell_length_b       9.12881
_cell_length_c       5.11517
_cell_angle_alpha    90
_cell_angle_beta     90
_cell_angle_gamma    120.001

_space_group_name_H-M_alt    "P 1"
_space_group_IT_number       1

loop_
  _space_group_symop_operation_xyz
  'x, y, z'

loop_
  _atom_site_type_symbol
  _atom_site_label
  _atom_site_symmetry_multiplicity
  _atom_site_fract_x
  _atom_site_fract_y
  _atom_site_fract_z
  _atom_site_occupancy
  Fe  Fe1       1.0  0.66700  0.33300  0.12800  1.0000
  Fe  Fe2       1.0  0.33300  0.66700  0.62800  1.0000
  I   I1        1.0  0.66500  0.68600  0.00431  1.0000
  I   I2        1.0  0.02080  0.33500  0.00432  1.0000
  I   I3        1.0  0.31400  0.97900  0.00432  1.0000
  I   I4        1.0  0.33500  0.31400  0.50400  1.0000
  I   I5        1.0  0.68600  0.02090  0.50400  1.0000
  I   I6        1.0  0.97900  0.66500  0.50400  1.0000
  O   O1        1.0  0.83800  0.05910  0.24900  1.0000
  O   O2        1.0  0.94100  0.77900  0.24900  1.0000
  O   O3        1.0  0.22100  0.16200  0.24900  1.0000
  O   O4        1.0  0.55100  0.42900  0.34600  1.0000
  O   O5        1.0  0.87800  0.44900  0.34600  1.0000
  O   O6        1.0  0.57100  0.12200  0.34600  1.0000
  O   O7        1.0  0.19400  0.72100  0.39000  1.0000
  O   O8        1.0  0.27900  0.47300  0.39000  1.0000
  O   O9        1.0  0.52700  0.80600  0.39000  1.0000
  O   O10       1.0  0.16200  0.94100  0.74900  1.0000
  O   O11       1.0  0.05910  0.22100  0.74900  1.0000
  O   O12       1.0  0.77900  0.83800  0.74900  1.0000
  O   O13       1.0  0.44900  0.57100  0.84600  1.0000
  O   O14       1.0  0.12200  0.55100  0.84600  1.0000
  O   O15       1.0  0.42900  0.87800  0.84600  1.0000
  O   O16       1.0  0.80600  0.27900  0.89000  1.0000
  O   O17       1.0  0.72100  0.52700  0.89000  1.0000
  O   O18       1.0  0.47300  0.19400  0.89000  1.0000
