data_image0
_chemical_formula_structural       Ni6O16V4
_chemical_formula_sum              "Ni6 O16 V4"
_cell_length_a       5.89587
_cell_length_b       6.40615
_cell_length_c       8.2159
_cell_angle_alpha    90
_cell_angle_beta     90
_cell_angle_gamma    62.6017

_space_group_name_H-M_alt    "P 1"
_space_group_IT_number       1

loop_
  _space_group_symop_operation_xyz
  'x, y, z'

loop_
  _atom_site_type_symbol
  _atom_site_label
  _atom_site_symmetry_multiplicity
  _atom_site_fract_x
  _atom_site_fract_y
  _atom_site_fract_z
  _atom_site_occupancy
  Ni  Ni1       1.0  0.00000  0.00000  0.00000  1.0000
  Ni  Ni2       1.0  0.11900  0.26100  0.25000  1.0000
  Ni  Ni3       1.0  0.61900  0.26100  0.25000  1.0000
  Ni  Ni4       1.0  0.50000  0.00000  0.50000  1.0000
  Ni  Ni5       1.0  0.38100  0.73900  0.75000  1.0000
  Ni  Ni6       1.0  0.88100  0.73900  0.75000  1.0000
  O   O1        1.0  0.14200  0.24000  0.00163  1.0000
  O   O2        1.0  0.61800  0.24000  0.00163  1.0000
  O   O3        1.0  0.75200  0.49700  0.23400  1.0000
  O   O4        1.0  0.99900  0.00281  0.24500  1.0000
  O   O5        1.0  0.49900  0.00281  0.25500  1.0000
  O   O6        1.0  0.25200  0.49700  0.26600  1.0000
  O   O7        1.0  0.11800  0.24000  0.49800  1.0000
  O   O8        1.0  0.64200  0.24000  0.49800  1.0000
  O   O9        1.0  0.35800  0.76000  0.50200  1.0000
  O   O10       1.0  0.88200  0.76000  0.50200  1.0000
  O   O11       1.0  0.74800  0.50300  0.73400  1.0000
  O   O12       1.0  0.50100  0.99700  0.74500  1.0000
  O   O13       1.0  0.00141  0.99700  0.75500  1.0000
  O   O14       1.0  0.24800  0.50300  0.76600  1.0000
  O   O15       1.0  0.38200  0.76000  0.99800  1.0000
  O   O16       1.0  0.85800  0.76000  0.99800  1.0000
  V   V1        1.0  0.62400  0.75200  0.11900  1.0000
  V   V2        1.0  0.12400  0.75200  0.38100  1.0000
  V   V3        1.0  0.87600  0.24800  0.61900  1.0000
  V   V4        1.0  0.37600  0.24800  0.88100  1.0000
