data_image0
_chemical_formula_structural       Be4F14Li2Na4
_chemical_formula_sum              "Be4 F14 Li2 Na4"
_cell_length_a       7.34934
_cell_length_b       7.34934
_cell_length_c       4.64881
_cell_angle_alpha    90
_cell_angle_beta     90
_cell_angle_gamma    90

_space_group_name_H-M_alt    "P 1"
_space_group_IT_number       1

loop_
  _space_group_symop_operation_xyz
  'x, y, z'

loop_
  _atom_site_type_symbol
  _atom_site_label
  _atom_site_symmetry_multiplicity
  _atom_site_fract_x
  _atom_site_fract_y
  _atom_site_fract_z
  _atom_site_occupancy
  Be  Be1       1.0  0.64400  0.14400  0.07240  1.0000
  Be  Be2       1.0  0.35600  0.85600  0.07240  1.0000
  Be  Be3       1.0  0.14400  0.35600  0.92800  1.0000
  Be  Be4       1.0  0.85600  0.64400  0.92800  1.0000
  F   F1        1.0  0.50000  0.00000  0.18200  1.0000
  F   F2        1.0  0.82100  0.08270  0.22000  1.0000
  F   F3        1.0  0.58300  0.32100  0.22000  1.0000
  F   F4        1.0  0.41700  0.67900  0.22000  1.0000
  F   F5        1.0  0.17900  0.91700  0.22000  1.0000
  F   F6        1.0  0.14500  0.35500  0.25300  1.0000
  F   F7        1.0  0.85500  0.64500  0.25300  1.0000
  F   F8        1.0  0.64500  0.14500  0.74700  1.0000
  F   F9        1.0  0.35500  0.85500  0.74700  1.0000
  F   F10       1.0  0.08270  0.17900  0.78000  1.0000
  F   F11       1.0  0.32100  0.41700  0.78000  1.0000
  F   F12       1.0  0.67900  0.58300  0.78000  1.0000
  F   F13       1.0  0.91700  0.82100  0.78000  1.0000
  F   F14       1.0  0.00000  0.50000  0.81800  1.0000
  Li  Li1       1.0  0.00000  0.00000  0.00000  1.0000
  Li  Li2       1.0  0.50000  0.50000  0.00000  1.0000
  Na  Na1       1.0  0.83800  0.33800  0.49300  1.0000
  Na  Na2       1.0  0.16200  0.66200  0.49300  1.0000
  Na  Na3       1.0  0.33800  0.16200  0.50700  1.0000
  Na  Na4       1.0  0.66200  0.83800  0.50700  1.0000
