data_image0
_chemical_formula_structural       K6Nd2O16P4
_chemical_formula_sum              "K6 Nd2 O16 P4"
_cell_length_a       9.51538
_cell_length_b       5.63006
_cell_length_c       7.37445
_cell_angle_alpha    90
_cell_angle_beta     90.4389
_cell_angle_gamma    90

_space_group_name_H-M_alt    "P 1"
_space_group_IT_number       1

loop_
  _space_group_symop_operation_xyz
  'x, y, z'

loop_
  _atom_site_type_symbol
  _atom_site_label
  _atom_site_symmetry_multiplicity
  _atom_site_fract_x
  _atom_site_fract_y
  _atom_site_fract_z
  _atom_site_occupancy
  K   K1        1.0  0.58100  0.25000  0.19900  1.0000
  K   K2        1.0  0.09230  0.75000  0.36400  1.0000
  K   K3        1.0  0.30900  0.25000  0.49400  1.0000
  K   K4        1.0  0.69100  0.75000  0.50600  1.0000
  K   K5        1.0  0.90800  0.25000  0.63600  1.0000
  K   K6        1.0  0.41900  0.75000  0.80100  1.0000
  Nd  Nd1       1.0  0.79300  0.75000  0.00468  1.0000
  Nd  Nd2       1.0  0.20700  0.25000  0.99500  1.0000
  O   O1        1.0  0.05420  0.75000  0.01020  1.0000
  O   O2        1.0  0.33900  0.52600  0.16000  1.0000
  O   O3        1.0  0.33900  0.97400  0.16000  1.0000
  O   O4        1.0  0.57000  0.75000  0.17600  1.0000
  O   O5        1.0  0.84100  0.02430  0.25600  1.0000
  O   O6        1.0  0.84100  0.47600  0.25600  1.0000
  O   O7        1.0  0.07230  0.25000  0.29000  1.0000
  O   O8        1.0  0.40200  0.75000  0.44600  1.0000
  O   O9        1.0  0.59800  0.25000  0.55400  1.0000
  O   O10       1.0  0.92800  0.75000  0.71000  1.0000
  O   O11       1.0  0.15900  0.52400  0.74400  1.0000
  O   O12       1.0  0.15900  0.97600  0.74400  1.0000
  O   O13       1.0  0.43000  0.25000  0.82400  1.0000
  O   O14       1.0  0.66100  0.02580  0.84000  1.0000
  O   O15       1.0  0.66100  0.47400  0.84000  1.0000
  O   O16       1.0  0.94600  0.25000  0.99000  1.0000
  P   P1        1.0  0.92400  0.25000  0.19900  1.0000
  P   P2        1.0  0.41400  0.75000  0.23800  1.0000
  P   P3        1.0  0.58600  0.25000  0.76200  1.0000
  P   P4        1.0  0.07630  0.75000  0.80100  1.0000
