data_image0
_chemical_formula_structural       C2F2N10O6S10
_chemical_formula_sum              "C2 F2 N10 O6 S10"
_cell_length_a       8.35666
_cell_length_b       7.86162
_cell_length_c       6.89296
_cell_angle_alpha    105.108
_cell_angle_beta     93.9694
_cell_angle_gamma    95.3863

_space_group_name_H-M_alt    "P 1"
_space_group_IT_number       1

loop_
  _space_group_symop_operation_xyz
  'x, y, z'

loop_
  _atom_site_type_symbol
  _atom_site_label
  _atom_site_symmetry_multiplicity
  _atom_site_fract_x
  _atom_site_fract_y
  _atom_site_fract_z
  _atom_site_occupancy
  C   C1        1.0  0.19000  0.51900  0.10100  1.0000
  C   C2        1.0  0.81000  0.48100  0.89900  1.0000
  F   F1        1.0  0.43300  0.82500  0.33100  1.0000
  F   F2        1.0  0.56700  0.17500  0.66900  1.0000
  N   N1        1.0  0.66300  0.85700  0.04510  1.0000
  N   N2        1.0  0.10800  0.34300  0.07710  1.0000
  N   N3        1.0  0.17300  0.62300  0.28500  1.0000
  N   N4        1.0  0.42700  0.33600  0.33900  1.0000
  N   N5        1.0  0.12200  0.29600  0.44500  1.0000
  N   N6        1.0  0.87800  0.70400  0.55500  1.0000
  N   N7        1.0  0.57300  0.66400  0.66100  1.0000
  N   N8        1.0  0.82700  0.37700  0.71500  1.0000
  N   N9        1.0  0.89200  0.65700  0.92300  1.0000
  N   N10       1.0  0.33700  0.14300  0.95500  1.0000
  O   O1        1.0  0.73700  0.45700  0.04110  1.0000
  O   O2        1.0  0.19500  0.92000  0.19600  1.0000
  O   O3        1.0  0.77700  0.09690  0.44900  1.0000
  O   O4        1.0  0.22300  0.90300  0.55100  1.0000
  O   O5        1.0  0.80500  0.08010  0.80400  1.0000
  O   O6        1.0  0.26300  0.54300  0.95900  1.0000
  S   S1        1.0  0.84200  0.82600  0.10700  1.0000
  S   S2        1.0  0.47100  0.21300  0.13300  1.0000
  S   S3        1.0  0.00125  0.28700  0.25500  1.0000
  S   S4        1.0  0.23900  0.82500  0.34200  1.0000
  S   S5        1.0  0.69300  0.66400  0.49100  1.0000
  S   S6        1.0  0.30700  0.33600  0.50900  1.0000
  S   S7        1.0  0.76100  0.17500  0.65800  1.0000
  S   S8        1.0  0.99900  0.71300  0.74500  1.0000
  S   S9        1.0  0.52900  0.78700  0.86700  1.0000
  S   S10       1.0  0.15800  0.17400  0.89300  1.0000
