data_image0
_chemical_formula_structural       H36N8O16P4
_chemical_formula_sum              "H36 N8 O16 P4"
_cell_length_a       10.7537
_cell_length_b       6.54908
_cell_length_c       7.81525
_cell_angle_alpha    90
_cell_angle_beta     113.321
_cell_angle_gamma    90

_space_group_name_H-M_alt    "P 1"
_space_group_IT_number       1

loop_
  _space_group_symop_operation_xyz
  'x, y, z'

loop_
  _atom_site_type_symbol
  _atom_site_label
  _atom_site_symmetry_multiplicity
  _atom_site_fract_x
  _atom_site_fract_y
  _atom_site_fract_z
  _atom_site_occupancy
  H   H1        1.0  0.52300  0.16600  0.10700  1.0000
  H   H2        1.0  0.41500  0.97000  0.10900  1.0000
  H   H3        1.0  0.17300  0.86400  0.11400  1.0000
  H   H4        1.0  0.37300  0.22400  0.11700  1.0000
  H   H5        1.0  0.83000  0.77800  0.13000  1.0000
  H   H6        1.0  0.87900  0.02770  0.17300  1.0000
  H   H7        1.0  0.17800  0.39800  0.18100  1.0000
  H   H8        1.0  0.02380  0.33700  0.18400  1.0000
  H   H9        1.0  0.49800  0.62000  0.19600  1.0000
  H   H10       1.0  0.50200  0.12000  0.30400  1.0000
  H   H11       1.0  0.97600  0.83700  0.31600  1.0000
  H   H12       1.0  0.82200  0.89800  0.31900  1.0000
  H   H13       1.0  0.12100  0.52800  0.32700  1.0000
  H   H14       1.0  0.17000  0.27800  0.37000  1.0000
  H   H15       1.0  0.62700  0.72400  0.38300  1.0000
  H   H16       1.0  0.82700  0.36400  0.38600  1.0000
  H   H17       1.0  0.58500  0.47000  0.39100  1.0000
  H   H18       1.0  0.47700  0.66600  0.39300  1.0000
  H   H19       1.0  0.52300  0.33400  0.60700  1.0000
  H   H20       1.0  0.41500  0.53000  0.60900  1.0000
  H   H21       1.0  0.17300  0.63600  0.61400  1.0000
  H   H22       1.0  0.37300  0.27600  0.61700  1.0000
  H   H23       1.0  0.83000  0.72200  0.63000  1.0000
  H   H24       1.0  0.87900  0.47200  0.67300  1.0000
  H   H25       1.0  0.17800  0.10200  0.68100  1.0000
  H   H26       1.0  0.02380  0.16300  0.68400  1.0000
  H   H27       1.0  0.49800  0.88000  0.69600  1.0000
  H   H28       1.0  0.50200  0.38000  0.80400  1.0000
  H   H29       1.0  0.97600  0.66300  0.81600  1.0000
  H   H30       1.0  0.82200  0.60200  0.81900  1.0000
  H   H31       1.0  0.12100  0.97200  0.82700  1.0000
  H   H32       1.0  0.17000  0.22200  0.87000  1.0000
  H   H33       1.0  0.62700  0.77600  0.88300  1.0000
  H   H34       1.0  0.82700  0.13600  0.88600  1.0000
  H   H35       1.0  0.58500  0.02960  0.89100  1.0000
  H   H36       1.0  0.47700  0.83400  0.89300  1.0000
  N   N1        1.0  0.45200  0.11500  0.15900  1.0000
  N   N2        1.0  0.87700  0.88600  0.23400  1.0000
  N   N3        1.0  0.12300  0.38600  0.26600  1.0000
  N   N4        1.0  0.54800  0.61500  0.34100  1.0000
  N   N5        1.0  0.45200  0.38500  0.65900  1.0000
  N   N6        1.0  0.87700  0.61400  0.73400  1.0000
  N   N7        1.0  0.12300  0.11400  0.76600  1.0000
  N   N8        1.0  0.54800  0.88500  0.84100  1.0000
  O   O1        1.0  0.62100  0.27300  0.01210  1.0000
  O   O2        1.0  0.26200  0.40900  0.04240  1.0000
  O   O3        1.0  0.86700  0.25900  0.05750  1.0000
  O   O4        1.0  0.20000  0.97300  0.22000  1.0000
  O   O5        1.0  0.80000  0.47300  0.28000  1.0000
  O   O6        1.0  0.13300  0.75900  0.44300  1.0000
  O   O7        1.0  0.73800  0.90900  0.45800  1.0000
  O   O8        1.0  0.37900  0.77300  0.48800  1.0000
  O   O9        1.0  0.62100  0.22700  0.51200  1.0000
  O   O10       1.0  0.26200  0.09110  0.54200  1.0000
  O   O11       1.0  0.86700  0.24100  0.55700  1.0000
  O   O12       1.0  0.20000  0.52700  0.72000  1.0000
  O   O13       1.0  0.80000  0.02740  0.78000  1.0000
  O   O14       1.0  0.13300  0.74100  0.94300  1.0000
  O   O15       1.0  0.73800  0.59100  0.95800  1.0000
  O   O16       1.0  0.37900  0.72700  0.98800  1.0000
  P   P1        1.0  0.75300  0.39500  0.07220  1.0000
  P   P2        1.0  0.24700  0.89500  0.42800  1.0000
  P   P3        1.0  0.75300  0.10500  0.57200  1.0000
  P   P4        1.0  0.24700  0.60500  0.92800  1.0000
