data_image0
_chemical_formula_structural       In12Se14
_chemical_formula_sum              "In12 Se14"
_cell_length_a       9.55396
_cell_length_b       4.11132
_cell_length_c       18.5901
_cell_angle_alpha    90
_cell_angle_beta     109.463
_cell_angle_gamma    90

_space_group_name_H-M_alt    "P 1"
_space_group_IT_number       1

loop_
  _space_group_symop_operation_xyz
  'x, y, z'

loop_
  _atom_site_type_symbol
  _atom_site_label
  _atom_site_symmetry_multiplicity
  _atom_site_fract_x
  _atom_site_fract_y
  _atom_site_fract_z
  _atom_site_occupancy
  In  In1       1.0  0.69400  0.75500  0.04710  1.0000
  In  In2       1.0  0.05560  0.25300  0.12400  1.0000
  In  In3       1.0  0.36800  0.25400  0.18700  1.0000
  In  In4       1.0  0.79800  0.24400  0.27200  1.0000
  In  In5       1.0  0.41200  0.75200  0.39600  1.0000
  In  In6       1.0  0.13800  0.24800  0.46600  1.0000
  In  In7       1.0  0.86200  0.74800  0.53400  1.0000
  In  In8       1.0  0.58800  0.25200  0.60400  1.0000
  In  In9       1.0  0.20200  0.74400  0.72800  1.0000
  In  In10      1.0  0.63200  0.75400  0.81300  1.0000
  In  In11      1.0  0.94400  0.75300  0.87600  1.0000
  In  In12      1.0  0.30600  0.25500  0.95300  1.0000
  Se  Se1       1.0  0.17100  0.75500  0.00750  1.0000
  Se  Se2       1.0  0.53700  0.25500  0.09250  1.0000
  Se  Se3       1.0  0.93400  0.75300  0.18100  1.0000
  Se  Se4       1.0  0.51700  0.75300  0.27400  1.0000
  Se  Se5       1.0  0.21900  0.25200  0.34000  1.0000
  Se  Se6       1.0  0.93600  0.74700  0.40600  1.0000
  Se  Se7       1.0  0.63700  0.24400  0.46700  1.0000
  Se  Se8       1.0  0.36300  0.74400  0.53300  1.0000
  Se  Se9       1.0  0.06390  0.24700  0.59400  1.0000
  Se  Se10      1.0  0.78100  0.75200  0.66000  1.0000
  Se  Se11      1.0  0.48300  0.25300  0.72600  1.0000
  Se  Se12      1.0  0.06580  0.25300  0.81900  1.0000
  Se  Se13      1.0  0.46300  0.75500  0.90800  1.0000
  Se  Se14      1.0  0.82900  0.25500  0.99300  1.0000
