data_image0
_chemical_formula_structural       B4Ga2Li6O12
_chemical_formula_sum              "B4 Ga2 Li6 O12"
_cell_length_a       6.02883
_cell_length_b       4.95546
_cell_length_c       8.73355
_cell_angle_alpha    89.5683
_cell_angle_beta     119.667
_cell_angle_gamma    90.1632

_space_group_name_H-M_alt    "P 1"
_space_group_IT_number       1

loop_
  _space_group_symop_operation_xyz
  'x, y, z'

loop_
  _atom_site_type_symbol
  _atom_site_label
  _atom_site_symmetry_multiplicity
  _atom_site_fract_x
  _atom_site_fract_y
  _atom_site_fract_z
  _atom_site_occupancy
  B   B1        1.0  0.74700  0.65800  0.07020  1.0000
  B   B2        1.0  0.24200  0.83700  0.41200  1.0000
  B   B3        1.0  0.75800  0.16300  0.58800  1.0000
  B   B4        1.0  0.25300  0.34200  0.93000  1.0000
  Ga  Ga1       1.0  0.20200  0.35500  0.23600  1.0000
  Ga  Ga2       1.0  0.79800  0.64500  0.76400  1.0000
  Li  Li1       1.0  0.35400  0.83700  0.10700  1.0000
  Li  Li2       1.0  0.73800  0.17000  0.24600  1.0000
  Li  Li3       1.0  0.81800  0.67500  0.42400  1.0000
  Li  Li4       1.0  0.18200  0.32500  0.57600  1.0000
  Li  Li5       1.0  0.26200  0.83000  0.75400  1.0000
  Li  Li6       1.0  0.64600  0.16300  0.89300  1.0000
  O   O1        1.0  0.32200  0.22100  0.09380  1.0000
  O   O2        1.0  0.84000  0.39100  0.09700  1.0000
  O   O3        1.0  0.70900  0.79100  0.18800  1.0000
  O   O4        1.0  0.29000  0.71200  0.28800  1.0000
  O   O5        1.0  0.22200  0.11900  0.40400  1.0000
  O   O6        1.0  0.78800  0.30100  0.46600  1.0000
  O   O7        1.0  0.21200  0.69900  0.53400  1.0000
  O   O8        1.0  0.77800  0.88100  0.59600  1.0000
  O   O9        1.0  0.71000  0.28800  0.71200  1.0000
  O   O10       1.0  0.29100  0.20900  0.81200  1.0000
  O   O11       1.0  0.16000  0.60900  0.90300  1.0000
  O   O12       1.0  0.67800  0.77900  0.90600  1.0000
