data_image0
_chemical_formula_structural       Cd8Ge4O16
_chemical_formula_sum              "Cd8 Ge4 O16"
_cell_length_a       6.60268
_cell_length_b       5.23001
_cell_length_c       11.1551
_cell_angle_alpha    90
_cell_angle_beta     90
_cell_angle_gamma    90

_space_group_name_H-M_alt    "P 1"
_space_group_IT_number       1

loop_
  _space_group_symop_operation_xyz
  'x, y, z'

loop_
  _atom_site_type_symbol
  _atom_site_label
  _atom_site_symmetry_multiplicity
  _atom_site_fract_x
  _atom_site_fract_y
  _atom_site_fract_z
  _atom_site_occupancy
  Cd  Cd1       1.0  0.00000  0.00000  0.00000  1.0000
  Cd  Cd2       1.0  0.50000  0.00000  0.00000  1.0000
  Cd  Cd3       1.0  0.25000  0.48500  0.21900  1.0000
  Cd  Cd4       1.0  0.75000  0.98500  0.28100  1.0000
  Cd  Cd5       1.0  0.00000  0.50000  0.50000  1.0000
  Cd  Cd6       1.0  0.50000  0.50000  0.50000  1.0000
  Cd  Cd7       1.0  0.25000  0.01550  0.71900  1.0000
  Cd  Cd8       1.0  0.75000  0.51500  0.78100  1.0000
  Ge  Ge1       1.0  0.75000  0.43200  0.09930  1.0000
  Ge  Ge2       1.0  0.25000  0.93200  0.40100  1.0000
  Ge  Ge3       1.0  0.75000  0.06780  0.59900  1.0000
  Ge  Ge4       1.0  0.25000  0.56800  0.90100  1.0000
  O   O1        1.0  0.25000  0.71000  0.04790  1.0000
  O   O2        1.0  0.75000  0.76700  0.09660  1.0000
  O   O3        1.0  0.53800  0.27600  0.16700  1.0000
  O   O4        1.0  0.96200  0.27600  0.16700  1.0000
  O   O5        1.0  0.03840  0.77600  0.33300  1.0000
  O   O6        1.0  0.46200  0.77600  0.33300  1.0000
  O   O7        1.0  0.25000  0.26700  0.40300  1.0000
  O   O8        1.0  0.75000  0.21000  0.45200  1.0000
  O   O9        1.0  0.25000  0.79000  0.54800  1.0000
  O   O10       1.0  0.75000  0.73300  0.59700  1.0000
  O   O11       1.0  0.53800  0.22400  0.66700  1.0000
  O   O12       1.0  0.96200  0.22400  0.66700  1.0000
  O   O13       1.0  0.03840  0.72400  0.83300  1.0000
  O   O14       1.0  0.46200  0.72400  0.83300  1.0000
  O   O15       1.0  0.25000  0.23300  0.90300  1.0000
  O   O16       1.0  0.75000  0.29000  0.95200  1.0000
