data_image0
_chemical_formula_structural       B8H30Mg4
_chemical_formula_sum              "B8 H30 Mg4"
_cell_length_a       6.86277
_cell_length_b       7.87579
_cell_length_c       9.36271
_cell_angle_alpha    89.5284
_cell_angle_beta     78.9136
_cell_angle_gamma    84.8269

_space_group_name_H-M_alt    "P 1"
_space_group_IT_number       1

loop_
  _space_group_symop_operation_xyz
  'x, y, z'

loop_
  _atom_site_type_symbol
  _atom_site_label
  _atom_site_symmetry_multiplicity
  _atom_site_fract_x
  _atom_site_fract_y
  _atom_site_fract_z
  _atom_site_occupancy
  B   B1        1.0  0.96400  0.31500  0.10900  1.0000
  B   B2        1.0  0.03940  0.79700  0.12000  1.0000
  B   B3        1.0  0.40800  0.38900  0.26100  1.0000
  B   B4        1.0  0.96000  0.58100  0.49300  1.0000
  B   B5        1.0  0.38200  0.73100  0.60900  1.0000
  B   B6        1.0  0.36000  0.21400  0.63800  1.0000
  B   B7        1.0  0.67600  0.03190  0.88100  1.0000
  B   B8        1.0  0.19300  0.87600  0.96900  1.0000
  H   H1        1.0  0.64600  0.00016  0.01270  1.0000
  H   H2        1.0  0.13900  0.34500  0.07830  1.0000
  H   H3        1.0  0.97800  0.66600  0.08130  1.0000
  H   H4        1.0  0.84700  0.42500  0.17600  1.0000
  H   H5        1.0  0.38700  0.51300  0.18200  1.0000
  H   H6        1.0  0.88500  0.87900  0.18500  1.0000
  H   H7        1.0  0.95500  0.18900  0.18800  1.0000
  H   H8        1.0  0.49300  0.26600  0.19100  1.0000
  H   H9        1.0  0.14100  0.77700  0.21500  1.0000
  H   H10       1.0  0.24700  0.34300  0.32600  1.0000
  H   H11       1.0  0.51100  0.43200  0.34700  1.0000
  H   H12       1.0  0.87900  0.50800  0.40700  1.0000
  H   H13       1.0  0.11100  0.64600  0.42900  1.0000
  H   H14       1.0  0.45000  0.68600  0.48300  1.0000
  H   H15       1.0  0.25400  0.22200  0.54600  1.0000
  H   H16       1.0  0.85200  0.69700  0.55400  1.0000
  H   H17       1.0  0.00043  0.47100  0.58000  1.0000
  H   H18       1.0  0.49900  0.10700  0.59500  1.0000
  H   H19       1.0  0.27600  0.86400  0.60400  1.0000
  H   H20       1.0  0.43600  0.34500  0.66000  1.0000
  H   H21       1.0  0.52900  0.74100  0.66400  1.0000
  H   H22       1.0  0.27900  0.63200  0.68400  1.0000
  H   H23       1.0  0.25000  0.18400  0.75400  1.0000
  H   H24       1.0  0.68100  0.89500  0.81800  1.0000
  H   H25       1.0  0.83400  0.09090  0.83100  1.0000
  H   H26       1.0  0.11200  0.89200  0.86000  1.0000
  H   H27       1.0  0.54500  0.14100  0.86500  1.0000
  H   H28       1.0  0.34100  0.77700  0.93500  1.0000
  H   H29       1.0  0.24600  0.01860  0.99100  1.0000
  H   H30       1.0  0.91000  0.30100  0.99200  1.0000
  Mg  Mg1       1.0  0.91500  0.04850  0.02480  1.0000
  Mg  Mg2       1.0  0.08540  0.53300  0.23000  1.0000
  Mg  Mg3       1.0  0.29500  0.47300  0.51800  1.0000
  Mg  Mg4       1.0  0.40800  0.95700  0.77000  1.0000
