data_image0
_chemical_formula_structural       Al2Be2Na6O16Si4
_chemical_formula_sum              "Al2 Be2 Na6 O16 Si4"
_cell_length_a       7.14401
_cell_length_b       6.8045
_cell_length_c       7.32061
_cell_angle_alpha    90
_cell_angle_beta     90
_cell_angle_gamma    90

_space_group_name_H-M_alt    "P 1"
_space_group_IT_number       1

loop_
  _space_group_symop_operation_xyz
  'x, y, z'

loop_
  _atom_site_type_symbol
  _atom_site_label
  _atom_site_symmetry_multiplicity
  _atom_site_fract_x
  _atom_site_fract_y
  _atom_site_fract_z
  _atom_site_occupancy
  Al  Al1       1.0  0.50000  0.50000  0.03560  1.0000
  Al  Al2       1.0  0.00000  0.00000  0.96400  1.0000
  Be  Be1       1.0  0.50000  0.00000  0.43100  1.0000
  Be  Be2       1.0  0.00000  0.50000  0.56900  1.0000
  Na  Na1       1.0  0.50000  0.00000  0.03350  1.0000
  Na  Na2       1.0  0.78600  0.25000  0.32300  1.0000
  Na  Na3       1.0  0.21400  0.75000  0.32300  1.0000
  Na  Na4       1.0  0.28600  0.25000  0.67700  1.0000
  Na  Na5       1.0  0.71400  0.75000  0.67700  1.0000
  Na  Na6       1.0  0.00000  0.50000  0.96600  1.0000
  O   O1        1.0  0.03560  0.20500  0.10500  1.0000
  O   O2        1.0  0.96400  0.79500  0.10500  1.0000
  O   O3        1.0  0.30100  0.46000  0.17200  1.0000
  O   O4        1.0  0.69900  0.54000  0.17200  1.0000
  O   O5        1.0  0.33500  0.07960  0.29100  1.0000
  O   O6        1.0  0.66500  0.92000  0.29100  1.0000
  O   O7        1.0  0.08370  0.32400  0.44500  1.0000
  O   O8        1.0  0.91600  0.67600  0.44500  1.0000
  O   O9        1.0  0.58400  0.17600  0.55500  1.0000
  O   O10       1.0  0.41600  0.82400  0.55500  1.0000
  O   O11       1.0  0.83500  0.42000  0.70900  1.0000
  O   O12       1.0  0.16500  0.58000  0.70900  1.0000
  O   O13       1.0  0.80100  0.04030  0.82800  1.0000
  O   O14       1.0  0.19900  0.96000  0.82800  1.0000
  O   O15       1.0  0.53600  0.29500  0.89500  1.0000
  O   O16       1.0  0.46400  0.70500  0.89500  1.0000
  Si  Si1       1.0  0.19600  0.26400  0.26000  1.0000
  Si  Si2       1.0  0.80400  0.73600  0.26000  1.0000
  Si  Si3       1.0  0.69600  0.23600  0.74000  1.0000
  Si  Si4       1.0  0.30400  0.76400  0.74000  1.0000
