data_image0
_chemical_formula_structural       Ba2O26Ti12
_chemical_formula_sum              "Ba2 O26 Ti12"
_cell_length_a       7.53105
_cell_length_b       9.87681
_cell_length_c       7.48223
_cell_angle_alpha    105.393
_cell_angle_beta     118.933
_cell_angle_gamma    72.5165

_space_group_name_H-M_alt    "P 1"
_space_group_IT_number       1

loop_
  _space_group_symop_operation_xyz
  'x, y, z'

loop_
  _atom_site_type_symbol
  _atom_site_label
  _atom_site_symmetry_multiplicity
  _atom_site_fract_x
  _atom_site_fract_y
  _atom_site_fract_z
  _atom_site_occupancy
  Ba  Ba1       1.0  0.02990  0.12900  0.32300  1.0000
  Ba  Ba2       1.0  0.97000  0.87100  0.67700  1.0000
  O   O1        1.0  0.27400  0.36800  0.01790  1.0000
  O   O2        1.0  0.58600  0.11700  0.05590  1.0000
  O   O3        1.0  0.44600  0.61000  0.11800  1.0000
  O   O4        1.0  0.13100  0.85600  0.12200  1.0000
  O   O5        1.0  0.29500  0.14100  0.15900  1.0000
  O   O6        1.0  0.99100  0.38500  0.16700  1.0000
  O   O7        1.0  0.83200  0.89000  0.26100  1.0000
  O   O8        1.0  0.15300  0.64000  0.27400  1.0000
  O   O9        1.0  0.71300  0.37700  0.30900  1.0000
  O   O10       1.0  0.54700  0.87200  0.37700  1.0000
  O   O11       1.0  0.87400  0.60200  0.40000  1.0000
  O   O12       1.0  0.68200  0.13900  0.44000  1.0000
  O   O13       1.0  0.41700  0.37500  0.45600  1.0000
  O   O14       1.0  0.58300  0.62500  0.54400  1.0000
  O   O15       1.0  0.31800  0.86100  0.56000  1.0000
  O   O16       1.0  0.12600  0.39800  0.60000  1.0000
  O   O17       1.0  0.45300  0.12800  0.62300  1.0000
  O   O18       1.0  0.28700  0.62300  0.69100  1.0000
  O   O19       1.0  0.84700  0.36000  0.72600  1.0000
  O   O20       1.0  0.16800  0.11000  0.73900  1.0000
  O   O21       1.0  0.00863  0.61500  0.83300  1.0000
  O   O22       1.0  0.70500  0.85900  0.84100  1.0000
  O   O23       1.0  0.86900  0.14400  0.87800  1.0000
  O   O24       1.0  0.55400  0.39000  0.88200  1.0000
  O   O25       1.0  0.41400  0.88300  0.94400  1.0000
  O   O26       1.0  0.72600  0.63200  0.98200  1.0000
  Ti  Ti1       1.0  0.91900  0.76600  0.07440  1.0000
  Ti  Ti2       1.0  0.72400  0.50100  0.13200  1.0000
  Ti  Ti3       1.0  0.54500  0.98100  0.21100  1.0000
  Ti  Ti4       1.0  0.50500  0.27800  0.24400  1.0000
  Ti  Ti5       1.0  0.37000  0.75200  0.32000  1.0000
  Ti  Ti6       1.0  0.15500  0.50300  0.41000  1.0000
  Ti  Ti7       1.0  0.84500  0.49700  0.59000  1.0000
  Ti  Ti8       1.0  0.63000  0.24800  0.68000  1.0000
  Ti  Ti9       1.0  0.49500  0.72200  0.75600  1.0000
  Ti  Ti10      1.0  0.45500  0.01950  0.78900  1.0000
  Ti  Ti11      1.0  0.27600  0.49900  0.86800  1.0000
  Ti  Ti12      1.0  0.08100  0.23400  0.92600  1.0000
