data_image0
_chemical_formula_structural       Cl4Mn8O16P4
_chemical_formula_sum              "Cl4 Mn8 O16 P4"
_cell_length_a       11.3749
_cell_length_b       8.0603
_cell_length_c       4.90659
_cell_angle_alpha    90
_cell_angle_beta     90
_cell_angle_gamma    90

_space_group_name_H-M_alt    "P 1"
_space_group_IT_number       1

loop_
  _space_group_symop_operation_xyz
  'x, y, z'

loop_
  _atom_site_type_symbol
  _atom_site_label
  _atom_site_symmetry_multiplicity
  _atom_site_fract_x
  _atom_site_fract_y
  _atom_site_fract_z
  _atom_site_occupancy
  Cl  Cl1       1.0  0.56700  0.12000  0.26400  1.0000
  Cl  Cl2       1.0  0.06710  0.38000  0.26400  1.0000
  Cl  Cl3       1.0  0.93300  0.62000  0.76400  1.0000
  Cl  Cl4       1.0  0.43300  0.88000  0.76400  1.0000
  Mn  Mn1       1.0  0.11900  0.10500  0.00248  1.0000
  Mn  Mn2       1.0  0.61900  0.39500  0.00248  1.0000
  Mn  Mn3       1.0  0.12200  0.65400  0.00568  1.0000
  Mn  Mn4       1.0  0.62200  0.84600  0.00568  1.0000
  Mn  Mn5       1.0  0.38100  0.60500  0.50200  1.0000
  Mn  Mn6       1.0  0.88100  0.89500  0.50200  1.0000
  Mn  Mn7       1.0  0.37800  0.15400  0.50600  1.0000
  Mn  Mn8       1.0  0.87800  0.34600  0.50600  1.0000
  O   O1        1.0  0.85100  0.12200  0.26500  1.0000
  O   O2        1.0  0.35100  0.37800  0.26500  1.0000
  O   O3        1.0  0.54400  0.62600  0.29600  1.0000
  O   O4        1.0  0.04430  0.87400  0.29600  1.0000
  O   O5        1.0  0.23000  0.72200  0.35200  1.0000
  O   O6        1.0  0.73000  0.77800  0.35200  1.0000
  O   O7        1.0  0.22600  0.03800  0.35400  1.0000
  O   O8        1.0  0.72600  0.46200  0.35400  1.0000
  O   O9        1.0  0.64900  0.62200  0.76500  1.0000
  O   O10       1.0  0.14900  0.87800  0.76500  1.0000
  O   O11       1.0  0.95600  0.12600  0.79600  1.0000
  O   O12       1.0  0.45600  0.37400  0.79600  1.0000
  O   O13       1.0  0.27000  0.22200  0.85200  1.0000
  O   O14       1.0  0.77000  0.27800  0.85200  1.0000
  O   O15       1.0  0.27400  0.53800  0.85400  1.0000
  O   O16       1.0  0.77400  0.96200  0.85400  1.0000
  P   P1        1.0  0.66400  0.62200  0.45300  1.0000
  P   P2        1.0  0.16400  0.87800  0.45300  1.0000
  P   P3        1.0  0.83600  0.12200  0.95300  1.0000
  P   P4        1.0  0.33600  0.37800  0.95300  1.0000
