data_image0
_chemical_formula_structural       As4Na8O14
_chemical_formula_sum              "As4 Na8 O14"
_cell_length_a       5.8275
_cell_length_b       5.8275
_cell_length_c       12.2082
_cell_angle_alpha    91.5288
_cell_angle_beta     91.5288
_cell_angle_gamma    118.616

_space_group_name_H-M_alt    "P 1"
_space_group_IT_number       1

loop_
  _space_group_symop_operation_xyz
  'x, y, z'

loop_
  _atom_site_type_symbol
  _atom_site_label
  _atom_site_symmetry_multiplicity
  _atom_site_fract_x
  _atom_site_fract_y
  _atom_site_fract_z
  _atom_site_occupancy
  As  As1       1.0  0.70100  0.00552  0.13800  1.0000
  As  As2       1.0  0.99400  0.29900  0.36200  1.0000
  As  As3       1.0  0.00552  0.70100  0.63800  1.0000
  As  As4       1.0  0.29900  0.99400  0.86200  1.0000
  Na  Na1       1.0  0.31500  0.29200  0.09710  1.0000
  Na  Na2       1.0  0.02050  0.66600  0.12900  1.0000
  Na  Na3       1.0  0.33400  0.97900  0.37100  1.0000
  Na  Na4       1.0  0.70800  0.68500  0.40300  1.0000
  Na  Na5       1.0  0.29200  0.31500  0.59700  1.0000
  Na  Na6       1.0  0.66600  0.02050  0.62900  1.0000
  Na  Na7       1.0  0.97900  0.33400  0.87100  1.0000
  Na  Na8       1.0  0.68500  0.70800  0.90300  1.0000
  O   O1        1.0  0.88500  0.24400  0.05330  1.0000
  O   O2        1.0  0.63800  0.70400  0.09240  1.0000
  O   O3        1.0  0.44100  0.02300  0.18800  1.0000
  O   O4        1.0  0.93900  0.06110  0.25000  1.0000
  O   O5        1.0  0.97700  0.55900  0.31200  1.0000
  O   O6        1.0  0.29600  0.36200  0.40800  1.0000
  O   O7        1.0  0.75600  0.11500  0.44700  1.0000
  O   O8        1.0  0.24400  0.88500  0.55300  1.0000
  O   O9        1.0  0.70400  0.63800  0.59200  1.0000
  O   O10       1.0  0.02300  0.44100  0.68800  1.0000
  O   O11       1.0  0.06110  0.93900  0.75000  1.0000
  O   O12       1.0  0.55900  0.97700  0.81200  1.0000
  O   O13       1.0  0.36200  0.29600  0.90800  1.0000
  O   O14       1.0  0.11500  0.75600  0.94700  1.0000
