data_image0
_chemical_formula_structural       As4K12S16
_chemical_formula_sum              "As4 K12 S16"
_cell_length_a       9.46991
_cell_length_b       10.6524
_cell_length_c       9.19154
_cell_angle_alpha    90
_cell_angle_beta     90
_cell_angle_gamma    90

_space_group_name_H-M_alt    "P 1"
_space_group_IT_number       1

loop_
  _space_group_symop_operation_xyz
  'x, y, z'

loop_
  _atom_site_type_symbol
  _atom_site_label
  _atom_site_symmetry_multiplicity
  _atom_site_fract_x
  _atom_site_fract_y
  _atom_site_fract_z
  _atom_site_occupancy
  As  As1       1.0  0.51900  0.21300  0.22200  1.0000
  As  As2       1.0  0.01910  0.71300  0.27800  1.0000
  As  As3       1.0  0.98100  0.21300  0.72200  1.0000
  As  As4       1.0  0.48100  0.71300  0.77800  1.0000
  K   K1        1.0  0.30000  0.50800  0.05990  1.0000
  K   K2        1.0  0.29800  0.91800  0.06110  1.0000
  K   K3        1.0  0.07830  0.21400  0.13700  1.0000
  K   K4        1.0  0.57800  0.71400  0.36300  1.0000
  K   K5        1.0  0.79800  0.41800  0.43900  1.0000
  K   K6        1.0  0.80000  0.00770  0.44000  1.0000
  K   K7        1.0  0.20000  0.50800  0.56000  1.0000
  K   K8        1.0  0.20200  0.91800  0.56100  1.0000
  K   K9        1.0  0.42200  0.21400  0.63700  1.0000
  K   K10       1.0  0.92200  0.71400  0.86300  1.0000
  K   K11       1.0  0.70200  0.41800  0.93900  1.0000
  K   K12       1.0  0.70000  0.00770  0.94000  1.0000
  S   S1        1.0  0.40900  0.21300  0.00980  1.0000
  S   S2        1.0  0.96400  0.54300  0.15800  1.0000
  S   S3        1.0  0.96300  0.88400  0.15900  1.0000
  S   S4        1.0  0.74800  0.21400  0.18600  1.0000
  S   S5        1.0  0.24800  0.71400  0.31400  1.0000
  S   S6        1.0  0.46300  0.38400  0.34100  1.0000
  S   S7        1.0  0.46400  0.04280  0.34200  1.0000
  S   S8        1.0  0.90900  0.71300  0.49000  1.0000
  S   S9        1.0  0.09070  0.21300  0.51000  1.0000
  S   S10       1.0  0.53600  0.54300  0.65800  1.0000
  S   S11       1.0  0.53700  0.88400  0.65900  1.0000
  S   S12       1.0  0.75200  0.21400  0.68600  1.0000
  S   S13       1.0  0.25200  0.71400  0.81400  1.0000
  S   S14       1.0  0.03690  0.38400  0.84100  1.0000
  S   S15       1.0  0.03550  0.04280  0.84200  1.0000
  S   S16       1.0  0.59100  0.71300  0.99000  1.0000
