data_image0
_chemical_formula_structural       Cl18Cs6In4
_chemical_formula_sum              "Cl18 Cs6 In4"
_cell_length_a       9.63351
_cell_length_b       9.63351
_cell_length_c       9.63351
_cell_angle_alpha    83.778
_cell_angle_beta     96.222
_cell_angle_gamma    96.222

_space_group_name_H-M_alt    "P 1"
_space_group_IT_number       1

loop_
  _space_group_symop_operation_xyz
  'x, y, z'

loop_
  _atom_site_type_symbol
  _atom_site_label
  _atom_site_symmetry_multiplicity
  _atom_site_fract_x
  _atom_site_fract_y
  _atom_site_fract_z
  _atom_site_occupancy
  Cl  Cl1       1.0  0.26100  0.91400  0.07810  1.0000
  Cl  Cl2       1.0  0.07810  0.26100  0.08640  1.0000
  Cl  Cl3       1.0  0.75000  0.40300  0.09700  1.0000
  Cl  Cl4       1.0  0.42200  0.41400  0.23900  1.0000
  Cl  Cl5       1.0  0.59700  0.09700  0.25000  1.0000
  Cl  Cl6       1.0  0.91400  0.92200  0.26100  1.0000
  Cl  Cl7       1.0  0.90300  0.25000  0.40300  1.0000
  Cl  Cl8       1.0  0.76100  0.57800  0.41400  1.0000
  Cl  Cl9       1.0  0.41400  0.76100  0.42200  1.0000
  Cl  Cl10      1.0  0.58600  0.23900  0.57800  1.0000
  Cl  Cl11      1.0  0.23900  0.42200  0.58600  1.0000
  Cl  Cl12      1.0  0.09700  0.75000  0.59700  1.0000
  Cl  Cl13      1.0  0.08640  0.07810  0.73900  1.0000
  Cl  Cl14      1.0  0.40300  0.90300  0.75000  1.0000
  Cl  Cl15      1.0  0.57800  0.58600  0.76100  1.0000
  Cl  Cl16      1.0  0.25000  0.59700  0.90300  1.0000
  Cl  Cl17      1.0  0.92200  0.73900  0.91400  1.0000
  Cl  Cl18      1.0  0.73900  0.08640  0.92200  1.0000
  Cs  Cs1       1.0  0.59000  0.75000  0.08990  1.0000
  Cs  Cs2       1.0  0.08990  0.59000  0.25000  1.0000
  Cs  Cs3       1.0  0.25000  0.08990  0.41000  1.0000
  Cs  Cs4       1.0  0.75000  0.91000  0.59000  1.0000
  Cs  Cs5       1.0  0.91000  0.41000  0.75000  1.0000
  Cs  Cs6       1.0  0.41000  0.25000  0.91000  1.0000
  In  In1       1.0  0.84900  0.15100  0.15100  1.0000
  In  In2       1.0  0.65100  0.34900  0.34900  1.0000
  In  In3       1.0  0.34900  0.65100  0.65100  1.0000
  In  In4       1.0  0.15100  0.84900  0.84900  1.0000
