data_image0
_chemical_formula_structural       F4Mn8O16P4
_chemical_formula_sum              "F4 Mn8 O16 P4"
_cell_length_a       6.49296
_cell_length_b       7.4409
_cell_length_c       9.44279
_cell_angle_alpha    72.2344
_cell_angle_beta     110.109
_cell_angle_gamma    115.868

_space_group_name_H-M_alt    "P 1"
_space_group_IT_number       1

loop_
  _space_group_symop_operation_xyz
  'x, y, z'

loop_
  _atom_site_type_symbol
  _atom_site_label
  _atom_site_symmetry_multiplicity
  _atom_site_fract_x
  _atom_site_fract_y
  _atom_site_fract_z
  _atom_site_occupancy
  F   F1        1.0  0.08180  0.86400  0.10800  1.0000
  F   F2        1.0  0.11000  0.63600  0.39200  1.0000
  F   F3        1.0  0.89000  0.36400  0.60800  1.0000
  F   F4        1.0  0.91800  0.13600  0.89200  1.0000
  Mn  Mn1       1.0  0.67900  0.88300  0.00549  1.0000
  Mn  Mn2       1.0  0.94900  0.54000  0.14900  1.0000
  Mn  Mn3       1.0  0.26000  0.96000  0.35100  1.0000
  Mn  Mn4       1.0  0.79000  0.61700  0.49500  1.0000
  Mn  Mn5       1.0  0.21000  0.38300  0.50500  1.0000
  Mn  Mn6       1.0  0.74000  0.04030  0.64900  1.0000
  Mn  Mn7       1.0  0.05060  0.46000  0.85100  1.0000
  Mn  Mn8       1.0  0.32100  0.11700  0.99500  1.0000
  O   O1        1.0  0.22400  0.53300  0.08110  1.0000
  O   O2        1.0  0.61900  0.02700  0.14100  1.0000
  O   O3        1.0  0.65200  0.59200  0.14500  1.0000
  O   O4        1.0  0.35400  0.23100  0.18800  1.0000
  O   O5        1.0  0.93500  0.26900  0.31200  1.0000
  O   O6        1.0  0.91600  0.90800  0.35500  1.0000
  O   O7        1.0  0.45100  0.47300  0.35900  1.0000
  O   O8        1.0  0.61000  0.96700  0.41900  1.0000
  O   O9        1.0  0.39000  0.03330  0.58100  1.0000
  O   O10       1.0  0.54900  0.52700  0.64100  1.0000
  O   O11       1.0  0.08440  0.09150  0.64500  1.0000
  O   O12       1.0  0.06470  0.73100  0.68800  1.0000
  O   O13       1.0  0.64600  0.76900  0.81200  1.0000
  O   O14       1.0  0.34800  0.40800  0.85500  1.0000
  O   O15       1.0  0.38100  0.97300  0.85900  1.0000
  O   O16       1.0  0.77600  0.46700  0.91900  1.0000
  P   P1        1.0  0.41800  0.45500  0.19400  1.0000
  P   P2        1.0  0.77000  0.04540  0.30600  1.0000
  P   P3        1.0  0.23000  0.95500  0.69400  1.0000
  P   P4        1.0  0.58200  0.54500  0.80600  1.0000
