data_image0
_chemical_formula_structural       K4O22Sb8
_chemical_formula_sum              "K4 O22 Sb8"
_cell_length_a       7.17455
_cell_length_b       7.54601
_cell_length_c       10.4067
_cell_angle_alpha    111.257
_cell_angle_beta     93.9724
_cell_angle_gamma    90

_space_group_name_H-M_alt    "P 1"
_space_group_IT_number       1

loop_
  _space_group_symop_operation_xyz
  'x, y, z'

loop_
  _atom_site_type_symbol
  _atom_site_label
  _atom_site_symmetry_multiplicity
  _atom_site_fract_x
  _atom_site_fract_y
  _atom_site_fract_z
  _atom_site_occupancy
  K   K1        1.0  0.25700  0.00915  0.01830  1.0000
  K   K2        1.0  0.00185  0.23700  0.47300  1.0000
  K   K3        1.0  0.99800  0.76300  0.52700  1.0000
  K   K4        1.0  0.74300  0.99100  0.98200  1.0000
  O   O1        1.0  0.00000  0.32500  0.00000  1.0000
  O   O2        1.0  0.00000  0.67500  0.00000  1.0000
  O   O3        1.0  0.34400  0.52500  0.04960  1.0000
  O   O4        1.0  0.56900  0.32600  0.17300  1.0000
  O   O5        1.0  0.56900  0.84600  0.17300  1.0000
  O   O6        1.0  0.86400  0.62200  0.24400  1.0000
  O   O7        1.0  0.18100  0.43000  0.26200  1.0000
  O   O8        1.0  0.18100  0.83200  0.26200  1.0000
  O   O9        1.0  0.34100  0.16100  0.32200  1.0000
  O   O10       1.0  0.50500  0.66700  0.33500  1.0000
  O   O11       1.0  0.67000  0.02460  0.46800  1.0000
  O   O12       1.0  0.67000  0.44400  0.46800  1.0000
  O   O13       1.0  0.33000  0.55600  0.53200  1.0000
  O   O14       1.0  0.33000  0.97500  0.53200  1.0000
  O   O15       1.0  0.49500  0.33300  0.66500  1.0000
  O   O16       1.0  0.65900  0.83900  0.67800  1.0000
  O   O17       1.0  0.81900  0.16800  0.73800  1.0000
  O   O18       1.0  0.81900  0.57000  0.73800  1.0000
  O   O19       1.0  0.13600  0.37800  0.75600  1.0000
  O   O20       1.0  0.43100  0.15400  0.82700  1.0000
  O   O21       1.0  0.43100  0.67400  0.82700  1.0000
  O   O22       1.0  0.65600  0.47500  0.95000  1.0000
  Sb  Sb1       1.0  0.09450  0.57300  0.14600  1.0000
  Sb  Sb2       1.0  0.61800  0.57600  0.15100  1.0000
  Sb  Sb3       1.0  0.43200  0.41500  0.34900  1.0000
  Sb  Sb4       1.0  0.43200  0.93400  0.34900  1.0000
  Sb  Sb5       1.0  0.56800  0.06630  0.65100  1.0000
  Sb  Sb6       1.0  0.56800  0.58500  0.65100  1.0000
  Sb  Sb7       1.0  0.38200  0.42400  0.84900  1.0000
  Sb  Sb8       1.0  0.90500  0.42700  0.85400  1.0000
