data_image0
_chemical_formula_structural       C4Cl8O12Pb8
_chemical_formula_sum              "C4 Cl8 O12 Pb8"
_cell_length_a       8.12907
_cell_length_b       8.12907
_cell_length_c       8.90991
_cell_angle_alpha    90
_cell_angle_beta     90
_cell_angle_gamma    90

_space_group_name_H-M_alt    "P 1"
_space_group_IT_number       1

loop_
  _space_group_symop_operation_xyz
  'x, y, z'

loop_
  _atom_site_type_symbol
  _atom_site_label
  _atom_site_symmetry_multiplicity
  _atom_site_fract_x
  _atom_site_fract_y
  _atom_site_fract_z
  _atom_site_occupancy
  C   C1        1.0  0.67700  0.17700  0.00000  1.0000
  C   C2        1.0  0.17700  0.32300  0.00000  1.0000
  C   C3        1.0  0.82300  0.67700  0.00000  1.0000
  C   C4        1.0  0.32300  0.82300  0.00000  1.0000
  Cl  Cl1       1.0  0.00000  0.00000  0.24500  1.0000
  Cl  Cl2       1.0  0.50000  0.50000  0.24500  1.0000
  Cl  Cl3       1.0  0.64600  0.14600  0.50000  1.0000
  Cl  Cl4       1.0  0.14600  0.35400  0.50000  1.0000
  Cl  Cl5       1.0  0.85400  0.64600  0.50000  1.0000
  Cl  Cl6       1.0  0.35400  0.85400  0.50000  1.0000
  Cl  Cl7       1.0  0.00000  0.00000  0.75500  1.0000
  Cl  Cl8       1.0  0.50000  0.50000  0.75500  1.0000
  O   O1        1.0  0.29100  0.20900  0.00000  1.0000
  O   O2        1.0  0.79100  0.29100  0.00000  1.0000
  O   O3        1.0  0.20900  0.70900  0.00000  1.0000
  O   O4        1.0  0.70900  0.79100  0.00000  1.0000
  O   O5        1.0  0.62700  0.12700  0.12900  1.0000
  O   O6        1.0  0.12700  0.37300  0.12900  1.0000
  O   O7        1.0  0.87300  0.62700  0.12900  1.0000
  O   O8        1.0  0.37300  0.87300  0.12900  1.0000
  O   O9        1.0  0.62700  0.12700  0.87100  1.0000
  O   O10       1.0  0.12700  0.37300  0.87100  1.0000
  O   O11       1.0  0.87300  0.62700  0.87100  1.0000
  O   O12       1.0  0.37300  0.87300  0.87100  1.0000
  Pb  Pb1       1.0  0.33400  0.16600  0.26200  1.0000
  Pb  Pb2       1.0  0.83400  0.33400  0.26200  1.0000
  Pb  Pb3       1.0  0.16600  0.66600  0.26200  1.0000
  Pb  Pb4       1.0  0.66600  0.83400  0.26200  1.0000
  Pb  Pb5       1.0  0.33400  0.16600  0.73800  1.0000
  Pb  Pb6       1.0  0.83400  0.33400  0.73800  1.0000
  Pb  Pb7       1.0  0.16600  0.66600  0.73800  1.0000
  Pb  Pb8       1.0  0.66600  0.83400  0.73800  1.0000
