data_image0
_chemical_formula_structural       F20Na2Sb6
_chemical_formula_sum              "F20 Na2 Sb6"
_cell_length_a       7.98636
_cell_length_b       7.98633
_cell_length_c       7.03589
_cell_angle_alpha    90
_cell_angle_beta     90
_cell_angle_gamma    120.001

_space_group_name_H-M_alt    "P 1"
_space_group_IT_number       1

loop_
  _space_group_symop_operation_xyz
  'x, y, z'

loop_
  _atom_site_type_symbol
  _atom_site_label
  _atom_site_symmetry_multiplicity
  _atom_site_fract_x
  _atom_site_fract_y
  _atom_site_fract_z
  _atom_site_occupancy
  F   F1        1.0  0.19900  0.39900  0.00365  1.0000
  F   F2        1.0  0.20100  0.80100  0.00365  1.0000
  F   F3        1.0  0.60100  0.79900  0.00366  1.0000
  F   F4        1.0  0.66700  0.33300  0.18900  1.0000
  F   F5        1.0  0.47000  0.97000  0.29300  1.0000
  F   F6        1.0  0.03020  0.50000  0.29300  1.0000
  F   F7        1.0  0.50000  0.53000  0.29300  1.0000
  F   F8        1.0  0.11800  0.22500  0.34500  1.0000
  F   F9        1.0  0.10700  0.88200  0.34500  1.0000
  F   F10       1.0  0.77500  0.89300  0.34500  1.0000
  F   F11       1.0  0.80100  0.60100  0.50400  1.0000
  F   F12       1.0  0.79900  0.19900  0.50400  1.0000
  F   F13       1.0  0.39900  0.20100  0.50400  1.0000
  F   F14       1.0  0.33300  0.66700  0.68900  1.0000
  F   F15       1.0  0.53000  0.03020  0.79300  1.0000
  F   F16       1.0  0.50000  0.47000  0.79300  1.0000
  F   F17       1.0  0.97000  0.50000  0.79300  1.0000
  F   F18       1.0  0.88200  0.77500  0.84500  1.0000
  F   F19       1.0  0.89300  0.11800  0.84500  1.0000
  F   F20       1.0  0.22500  0.10700  0.84500  1.0000
  Na  Na1       1.0  0.33300  0.66700  0.18900  1.0000
  Na  Na2       1.0  0.66700  0.33300  0.68900  1.0000
  Sb  Sb1       1.0  0.87700  0.21600  0.23400  1.0000
  Sb  Sb2       1.0  0.33900  0.12300  0.23400  1.0000
  Sb  Sb3       1.0  0.78400  0.66100  0.23400  1.0000
  Sb  Sb4       1.0  0.12300  0.78400  0.73400  1.0000
  Sb  Sb5       1.0  0.66100  0.87700  0.73400  1.0000
  Sb  Sb6       1.0  0.21600  0.33900  0.73400  1.0000
