data_image0
_chemical_formula_structural       K2Mo6O18
_chemical_formula_sum              "K2 Mo6 O18"
_cell_length_a       6.35744
_cell_length_b       7.70965
_cell_length_c       8.03263
_cell_angle_alpha    118.679
_cell_angle_beta     92.2679
_cell_angle_gamma    90

_space_group_name_H-M_alt    "P 1"
_space_group_IT_number       1

loop_
  _space_group_symop_operation_xyz
  'x, y, z'

loop_
  _atom_site_type_symbol
  _atom_site_label
  _atom_site_symmetry_multiplicity
  _atom_site_fract_x
  _atom_site_fract_y
  _atom_site_fract_z
  _atom_site_occupancy
  K   K1        1.0  0.83900  0.68200  0.36400  1.0000
  K   K2        1.0  0.16100  0.31800  0.63600  1.0000
  Mo  Mo1       1.0  0.26800  0.32400  0.12800  1.0000
  Mo  Mo2       1.0  0.26800  0.80400  0.12800  1.0000
  Mo  Mo3       1.0  0.64200  0.12700  0.25400  1.0000
  Mo  Mo4       1.0  0.35800  0.87300  0.74600  1.0000
  Mo  Mo5       1.0  0.73200  0.19600  0.87200  1.0000
  Mo  Mo6       1.0  0.73200  0.67600  0.87200  1.0000
  O   O1        1.0  0.00000  0.26000  0.00000  1.0000
  O   O2        1.0  0.00000  0.74000  0.00000  1.0000
  O   O3        1.0  0.30700  0.04140  0.08270  1.0000
  O   O4        1.0  0.29700  0.54200  0.08440  1.0000
  O   O5        1.0  0.59100  0.32500  0.17200  1.0000
  O   O6        1.0  0.59100  0.84700  0.17200  1.0000
  O   O7        1.0  0.90800  0.15500  0.31000  1.0000
  O   O8        1.0  0.19800  0.44000  0.35900  1.0000
  O   O9        1.0  0.19800  0.91800  0.35900  1.0000
  O   O10       1.0  0.52000  0.23300  0.46700  1.0000
  O   O11       1.0  0.48000  0.76700  0.53300  1.0000
  O   O12       1.0  0.80200  0.08160  0.64100  1.0000
  O   O13       1.0  0.80200  0.56000  0.64100  1.0000
  O   O14       1.0  0.09160  0.84500  0.69000  1.0000
  O   O15       1.0  0.40900  0.15300  0.82800  1.0000
  O   O16       1.0  0.40900  0.67500  0.82800  1.0000
  O   O17       1.0  0.70300  0.45800  0.91600  1.0000
  O   O18       1.0  0.69300  0.95900  0.91700  1.0000
