data_image0
_chemical_formula_structural       Au6Cl16Rb6
_chemical_formula_sum              "Au6 Cl16 Rb6"
_cell_length_a       7.14434
_cell_length_b       7.14434
_cell_length_c       18.329
_cell_angle_alpha    97.379
_cell_angle_beta     97.379
_cell_angle_gamma    64.3077

_space_group_name_H-M_alt    "P 1"
_space_group_IT_number       1

loop_
  _space_group_symop_operation_xyz
  'x, y, z'

loop_
  _atom_site_type_symbol
  _atom_site_label
  _atom_site_symmetry_multiplicity
  _atom_site_fract_x
  _atom_site_fract_y
  _atom_site_fract_z
  _atom_site_occupancy
  Au  Au1       1.0  0.00000  0.00000  0.00000  1.0000
  Au  Au2       1.0  0.38600  0.38900  0.19200  1.0000
  Au  Au3       1.0  0.61100  0.61400  0.30800  1.0000
  Au  Au4       1.0  0.00000  0.00000  0.50000  1.0000
  Au  Au5       1.0  0.38900  0.38600  0.69200  1.0000
  Au  Au6       1.0  0.61400  0.61100  0.80800  1.0000
  Cl  Cl1       1.0  0.15400  0.20800  0.06730  1.0000
  Cl  Cl2       1.0  0.71300  0.16000  0.07270  1.0000
  Cl  Cl3       1.0  0.25100  0.67500  0.12300  1.0000
  Cl  Cl4       1.0  0.91000  0.50300  0.24700  1.0000
  Cl  Cl5       1.0  0.49700  0.08980  0.25300  1.0000
  Cl  Cl6       1.0  0.32500  0.74900  0.37700  1.0000
  Cl  Cl7       1.0  0.84000  0.28700  0.42700  1.0000
  Cl  Cl8       1.0  0.79200  0.84600  0.43300  1.0000
  Cl  Cl9       1.0  0.20800  0.15400  0.56700  1.0000
  Cl  Cl10      1.0  0.16000  0.71300  0.57300  1.0000
  Cl  Cl11      1.0  0.67500  0.25100  0.62300  1.0000
  Cl  Cl12      1.0  0.50300  0.91000  0.74700  1.0000
  Cl  Cl13      1.0  0.08980  0.49700  0.75300  1.0000
  Cl  Cl14      1.0  0.74900  0.32500  0.87700  1.0000
  Cl  Cl15      1.0  0.28700  0.84000  0.92700  1.0000
  Cl  Cl16      1.0  0.84600  0.79200  0.93300  1.0000
  Rb  Rb1       1.0  0.68300  0.68400  0.08150  1.0000
  Rb  Rb2       1.0  0.98300  0.01730  0.25000  1.0000
  Rb  Rb3       1.0  0.31600  0.31700  0.41900  1.0000
  Rb  Rb4       1.0  0.68400  0.68300  0.58100  1.0000
  Rb  Rb5       1.0  0.01730  0.98300  0.75000  1.0000
  Rb  Rb6       1.0  0.31700  0.31600  0.91900  1.0000
