data_image0
_chemical_formula_structural       BiLi4O6Rh
_chemical_formula_sum              "Bi1 Li4 O6 Rh1"
_cell_length_a       5.34931
_cell_length_b       5.34933
_cell_length_c       5.13127
_cell_angle_alpha    99.5284
_cell_angle_beta     99.5289
_cell_angle_gamma    120.291

_space_group_name_H-M_alt    "P 1"
_space_group_IT_number       1

loop_
  _space_group_symop_operation_xyz
  'x, y, z'

loop_
  _atom_site_type_symbol
  _atom_site_label
  _atom_site_symmetry_multiplicity
  _atom_site_fract_x
  _atom_site_fract_y
  _atom_site_fract_z
  _atom_site_occupancy
  Bi  Bi1       1.0  0.16600  0.83400  0.00000  1.0000
  Li  Li1       1.0  0.50100  0.49900  0.00000  1.0000
  Li  Li2       1.0  0.97600  0.02360  0.50000  1.0000
  Li  Li3       1.0  0.67000  0.33000  0.50000  1.0000
  Li  Li4       1.0  0.34800  0.65200  0.50000  1.0000
  O   O1        1.0  0.59200  0.92700  0.23900  1.0000
  O   O2        1.0  0.91400  0.55900  0.24000  1.0000
  O   O3        1.0  0.22800  0.24300  0.24400  1.0000
  O   O4        1.0  0.75700  0.77200  0.75600  1.0000
  O   O5        1.0  0.44100  0.08550  0.76000  1.0000
  O   O6        1.0  0.07270  0.40800  0.76100  1.0000
  Rh  Rh1       1.0  0.83400  0.16600  0.00000  1.0000
