data_image0
_chemical_formula_structural       Bi12Ca20
_chemical_formula_sum              "Bi12 Ca20"
_cell_length_a       12.7939
_cell_length_b       9.76574
_cell_length_c       8.43923
_cell_angle_alpha    90
_cell_angle_beta     90
_cell_angle_gamma    90

_space_group_name_H-M_alt    "P 1"
_space_group_IT_number       1

loop_
  _space_group_symop_operation_xyz
  'x, y, z'

loop_
  _atom_site_type_symbol
  _atom_site_label
  _atom_site_symmetry_multiplicity
  _atom_site_fract_x
  _atom_site_fract_y
  _atom_site_fract_z
  _atom_site_occupancy
  Bi  Bi1       1.0  0.17100  0.51200  0.06350  1.0000
  Bi  Bi2       1.0  0.17100  0.98800  0.06350  1.0000
  Bi  Bi3       1.0  0.48400  0.25000  0.07790  1.0000
  Bi  Bi4       1.0  0.98400  0.25000  0.42200  1.0000
  Bi  Bi5       1.0  0.67100  0.51200  0.43700  1.0000
  Bi  Bi6       1.0  0.67100  0.98800  0.43700  1.0000
  Bi  Bi7       1.0  0.32900  0.01190  0.56300  1.0000
  Bi  Bi8       1.0  0.32900  0.48800  0.56300  1.0000
  Bi  Bi9       1.0  0.01570  0.75000  0.57800  1.0000
  Bi  Bi10      1.0  0.51600  0.75000  0.92200  1.0000
  Bi  Bi11      1.0  0.82900  0.01190  0.93700  1.0000
  Bi  Bi12      1.0  0.82900  0.48800  0.93700  1.0000
  Ca  Ca1       1.0  0.00449  0.25000  0.03530  1.0000
  Ca  Ca2       1.0  0.70800  0.75000  0.15100  1.0000
  Ca  Ca3       1.0  0.72900  0.25000  0.18000  1.0000
  Ca  Ca4       1.0  0.42400  0.54300  0.19300  1.0000
  Ca  Ca5       1.0  0.42400  0.95700  0.19300  1.0000
  Ca  Ca6       1.0  0.92400  0.54300  0.30700  1.0000
  Ca  Ca7       1.0  0.92400  0.95700  0.30700  1.0000
  Ca  Ca8       1.0  0.22900  0.25000  0.32000  1.0000
  Ca  Ca9       1.0  0.20800  0.75000  0.34900  1.0000
  Ca  Ca10      1.0  0.50400  0.25000  0.46500  1.0000
  Ca  Ca11      1.0  0.49600  0.75000  0.53500  1.0000
  Ca  Ca12      1.0  0.79200  0.25000  0.65100  1.0000
  Ca  Ca13      1.0  0.77100  0.75000  0.68000  1.0000
  Ca  Ca14      1.0  0.07620  0.04270  0.69300  1.0000
  Ca  Ca15      1.0  0.07620  0.45700  0.69300  1.0000
  Ca  Ca16      1.0  0.57600  0.04270  0.80700  1.0000
  Ca  Ca17      1.0  0.57600  0.45700  0.80700  1.0000
  Ca  Ca18      1.0  0.27100  0.75000  0.82000  1.0000
  Ca  Ca19      1.0  0.29200  0.25000  0.84900  1.0000
  Ca  Ca20      1.0  0.99600  0.75000  0.96500  1.0000
