data_image0
_chemical_formula_structural       Al2H2Na4O18Si6
_chemical_formula_sum              "Al2 H2 Na4 O18 Si6"
_cell_length_a       7.20608
_cell_length_b       7.63057
_cell_length_c       8.56528
_cell_angle_alpha    90.6829
_cell_angle_beta     100.1
_cell_angle_gamma    122.355

_space_group_name_H-M_alt    "P 1"
_space_group_IT_number       1

loop_
  _space_group_symop_operation_xyz
  'x, y, z'

loop_
  _atom_site_type_symbol
  _atom_site_label
  _atom_site_symmetry_multiplicity
  _atom_site_fract_x
  _atom_site_fract_y
  _atom_site_fract_z
  _atom_site_occupancy
  Al  Al1       1.0  0.76200  0.95500  0.14300  1.0000
  Al  Al2       1.0  0.23800  0.04540  0.85700  1.0000
  H   H1        1.0  0.01540  0.57800  0.25800  1.0000
  H   H2        1.0  0.98500  0.42200  0.74200  1.0000
  Na  Na1       1.0  0.17200  0.38800  0.05550  1.0000
  Na  Na2       1.0  0.81700  0.23200  0.44000  1.0000
  Na  Na3       1.0  0.18300  0.76800  0.56000  1.0000
  Na  Na4       1.0  0.82800  0.61200  0.94400  1.0000
  O   O1        1.0  0.18000  0.94800  0.03790  1.0000
  O   O2        1.0  0.69600  0.69700  0.14200  1.0000
  O   O3        1.0  0.14300  0.63200  0.18600  1.0000
  O   O4        1.0  0.55600  0.97900  0.19900  1.0000
  O   O5        1.0  0.41800  0.36600  0.26400  1.0000
  O   O6        1.0  0.00078  0.13100  0.29200  1.0000
  O   O7        1.0  0.86200  0.52700  0.35200  1.0000
  O   O8        1.0  0.28000  0.99000  0.35600  1.0000
  O   O9        1.0  0.67500  0.72600  0.44500  1.0000
  O   O10       1.0  0.32500  0.27400  0.55500  1.0000
  O   O11       1.0  0.72000  0.00962  0.64400  1.0000
  O   O12       1.0  0.13800  0.47300  0.64800  1.0000
  O   O13       1.0  0.99900  0.86900  0.70800  1.0000
  O   O14       1.0  0.58200  0.63400  0.73600  1.0000
  O   O15       1.0  0.44400  0.02100  0.80100  1.0000
  O   O16       1.0  0.85700  0.36800  0.81400  1.0000
  O   O17       1.0  0.30400  0.30300  0.85800  1.0000
  O   O18       1.0  0.82000  0.05160  0.96200  1.0000
  Si  Si1       1.0  0.29400  0.88600  0.18900  1.0000
  Si  Si2       1.0  0.67400  0.57900  0.30200  1.0000
  Si  Si3       1.0  0.25100  0.19000  0.36600  1.0000
  Si  Si4       1.0  0.74900  0.81000  0.63400  1.0000
  Si  Si5       1.0  0.32600  0.42100  0.69800  1.0000
  Si  Si6       1.0  0.70600  0.11400  0.81100  1.0000
