data_image0
_chemical_formula_structural       Cl30W6
_chemical_formula_sum              "Cl30 W6"
_cell_length_a       6.15363
_cell_length_b       12.5737
_cell_length_c       12.5737
_cell_angle_alpha    90.851
_cell_angle_beta     93.907
_cell_angle_gamma    93.907

_space_group_name_H-M_alt    "P 1"
_space_group_IT_number       1

loop_
  _space_group_symop_operation_xyz
  'x, y, z'

loop_
  _atom_site_type_symbol
  _atom_site_label
  _atom_site_symmetry_multiplicity
  _atom_site_fract_x
  _atom_site_fract_y
  _atom_site_fract_z
  _atom_site_occupancy
  Cl  Cl1       1.0  0.68200  0.82800  0.01840  1.0000
  Cl  Cl2       1.0  0.23700  0.44900  0.06650  1.0000
  Cl  Cl3       1.0  0.86300  0.07510  0.07510  1.0000
  Cl  Cl4       1.0  0.14200  0.73000  0.11400  1.0000
  Cl  Cl5       1.0  0.69700  0.34600  0.15600  1.0000
  Cl  Cl6       1.0  0.31800  0.98200  0.17200  1.0000
  Cl  Cl7       1.0  0.62900  0.60000  0.21500  1.0000
  Cl  Cl8       1.0  0.24500  0.26100  0.26100  1.0000
  Cl  Cl9       1.0  0.85800  0.88600  0.27000  1.0000
  Cl  Cl10      1.0  0.17100  0.51100  0.32000  1.0000
  Cl  Cl11      1.0  0.69700  0.15600  0.34600  1.0000
  Cl  Cl12      1.0  0.37100  0.78500  0.40000  1.0000
  Cl  Cl13      1.0  0.62200  0.40500  0.40500  1.0000
  Cl  Cl14      1.0  0.23700  0.06650  0.44900  1.0000
  Cl  Cl15      1.0  0.82900  0.68000  0.48900  1.0000
  Cl  Cl16      1.0  0.17100  0.32000  0.51100  1.0000
  Cl  Cl17      1.0  0.76300  0.93300  0.55100  1.0000
  Cl  Cl18      1.0  0.37800  0.59500  0.59500  1.0000
  Cl  Cl19      1.0  0.62900  0.21500  0.60000  1.0000
  Cl  Cl20      1.0  0.30300  0.84400  0.65400  1.0000
  Cl  Cl21      1.0  0.82900  0.48900  0.68000  1.0000
  Cl  Cl22      1.0  0.14200  0.11400  0.73000  1.0000
  Cl  Cl23      1.0  0.75500  0.73900  0.73900  1.0000
  Cl  Cl24      1.0  0.37100  0.40000  0.78500  1.0000
  Cl  Cl25      1.0  0.68200  0.01840  0.82800  1.0000
  Cl  Cl26      1.0  0.30300  0.65400  0.84400  1.0000
  Cl  Cl27      1.0  0.85800  0.27000  0.88600  1.0000
  Cl  Cl28      1.0  0.13700  0.92500  0.92500  1.0000
  Cl  Cl29      1.0  0.76300  0.55100  0.93300  1.0000
  Cl  Cl30      1.0  0.31800  0.17200  0.98200  1.0000
  W   W1        1.0  0.00000  0.89200  0.10800  1.0000
  W   W2        1.0  0.43300  0.44100  0.22500  1.0000
  W   W3        1.0  0.43300  0.22500  0.44100  1.0000
  W   W4        1.0  0.56700  0.77500  0.55900  1.0000
  W   W5        1.0  0.56700  0.55900  0.77500  1.0000
  W   W6        1.0  0.00000  0.10800  0.89200  1.0000
