data_image0
_chemical_formula_structural       B4Co4Fe4O16
_chemical_formula_sum              "B4 Co4 Fe4 O16"
_cell_length_a       9.26779
_cell_length_b       9.41118
_cell_length_c       3.0945
_cell_angle_alpha    90
_cell_angle_beta     90
_cell_angle_gamma    90

_space_group_name_H-M_alt    "P 1"
_space_group_IT_number       1

loop_
  _space_group_symop_operation_xyz
  'x, y, z'

loop_
  _atom_site_type_symbol
  _atom_site_label
  _atom_site_symmetry_multiplicity
  _atom_site_fract_x
  _atom_site_fract_y
  _atom_site_fract_z
  _atom_site_occupancy
  B   B1        1.0  0.83500  0.62800  0.25000  1.0000
  B   B2        1.0  0.33500  0.87200  0.25000  1.0000
  B   B3        1.0  0.66500  0.12800  0.75000  1.0000
  B   B4        1.0  0.16500  0.37200  0.75000  1.0000
  Co  Co1       1.0  0.39500  0.18600  0.25000  1.0000
  Co  Co2       1.0  0.89500  0.31400  0.25000  1.0000
  Co  Co3       1.0  0.10500  0.68600  0.75000  1.0000
  Co  Co4       1.0  0.60500  0.81400  0.75000  1.0000
  Fe  Fe1       1.0  0.38200  0.56800  0.25000  1.0000
  Fe  Fe2       1.0  0.88200  0.93200  0.25000  1.0000
  Fe  Fe3       1.0  0.11800  0.06760  0.75000  1.0000
  Fe  Fe4       1.0  0.61800  0.43200  0.75000  1.0000
  O   O1        1.0  0.25800  0.00122  0.25000  1.0000
  O   O2        1.0  0.99100  0.11600  0.25000  1.0000
  O   O3        1.0  0.49100  0.38400  0.25000  1.0000
  O   O4        1.0  0.75800  0.49900  0.25000  1.0000
  O   O5        1.0  0.98000  0.62600  0.25000  1.0000
  O   O6        1.0  0.25800  0.74500  0.25000  1.0000
  O   O7        1.0  0.75800  0.75500  0.25000  1.0000
  O   O8        1.0  0.48000  0.87400  0.25000  1.0000
  O   O9        1.0  0.52000  0.12600  0.75000  1.0000
  O   O10       1.0  0.24200  0.24500  0.75000  1.0000
  O   O11       1.0  0.74200  0.25500  0.75000  1.0000
  O   O12       1.0  0.02020  0.37400  0.75000  1.0000
  O   O13       1.0  0.24200  0.50100  0.75000  1.0000
  O   O14       1.0  0.50900  0.61600  0.75000  1.0000
  O   O15       1.0  0.00877  0.88400  0.75000  1.0000
  O   O16       1.0  0.74200  0.99900  0.75000  1.0000
