data_image0
_chemical_formula_structural       K2Na4O18P6
_chemical_formula_sum              "K2 Na4 O18 P6"
_cell_length_a       6.76852
_cell_length_b       9.38504
_cell_length_c       6.69321
_cell_angle_alpha    110.1
_cell_angle_beta     104.418
_cell_angle_gamma    86.7331

_space_group_name_H-M_alt    "P 1"
_space_group_IT_number       1

loop_
  _space_group_symop_operation_xyz
  'x, y, z'

loop_
  _atom_site_type_symbol
  _atom_site_label
  _atom_site_symmetry_multiplicity
  _atom_site_fract_x
  _atom_site_fract_y
  _atom_site_fract_z
  _atom_site_occupancy
  K   K1        1.0  0.02690  0.83800  0.16200  1.0000
  K   K2        1.0  0.97300  0.16200  0.83800  1.0000
  Na  Na1       1.0  0.57400  0.16800  0.22900  1.0000
  Na  Na2       1.0  0.27600  0.51100  0.27900  1.0000
  Na  Na3       1.0  0.72400  0.48900  0.72100  1.0000
  Na  Na4       1.0  0.42600  0.83200  0.77100  1.0000
  O   O1        1.0  0.86200  0.43100  0.06680  1.0000
  O   O2        1.0  0.62900  0.64900  0.14400  1.0000
  O   O3        1.0  0.48900  0.90500  0.15200  1.0000
  O   O4        1.0  0.23900  0.25700  0.24500  1.0000
  O   O5        1.0  0.91900  0.12400  0.25100  1.0000
  O   O6        1.0  0.63300  0.45000  0.33300  1.0000
  O   O7        1.0  0.38700  0.76900  0.39100  1.0000
  O   O8        1.0  0.93700  0.63600  0.43700  1.0000
  O   O9        1.0  0.75100  0.87800  0.47800  1.0000
  O   O10       1.0  0.24900  0.12200  0.52200  1.0000
  O   O11       1.0  0.06250  0.36400  0.56300  1.0000
  O   O12       1.0  0.61300  0.23100  0.60900  1.0000
  O   O13       1.0  0.36700  0.55000  0.66700  1.0000
  O   O14       1.0  0.08120  0.87600  0.74900  1.0000
  O   O15       1.0  0.76100  0.74300  0.75500  1.0000
  O   O16       1.0  0.51100  0.09480  0.84800  1.0000
  O   O17       1.0  0.37100  0.35100  0.85600  1.0000
  O   O18       1.0  0.13800  0.56900  0.93300  1.0000
  P   P1        1.0  0.75900  0.52400  0.23900  1.0000
  P   P2        1.0  0.54000  0.80700  0.29000  1.0000
  P   P3        1.0  0.11300  0.21400  0.37000  1.0000
  P   P4        1.0  0.88700  0.78600  0.63000  1.0000
  P   P5        1.0  0.46000  0.19300  0.71000  1.0000
  P   P6        1.0  0.24100  0.47600  0.76100  1.0000
