data_image0
_chemical_formula_structural       B16Li8O28
_chemical_formula_sum              "B16 Li8 O28"
_cell_length_a       8.32387
_cell_length_b       8.32387
_cell_length_c       8.32387
_cell_angle_alpha    112.365
_cell_angle_beta     103.827
_cell_angle_gamma    112.365

_space_group_name_H-M_alt    "P 1"
_space_group_IT_number       1

loop_
  _space_group_symop_operation_xyz
  'x, y, z'

loop_
  _atom_site_type_symbol
  _atom_site_label
  _atom_site_symmetry_multiplicity
  _atom_site_fract_x
  _atom_site_fract_y
  _atom_site_fract_z
  _atom_site_occupancy
  B   B1        1.0  0.02950  0.73600  0.10100  1.0000
  B   B2        1.0  0.35100  0.57100  0.11500  1.0000
  B   B3        1.0  0.01690  0.05110  0.19100  1.0000
  B   B4        1.0  0.94100  0.55100  0.26700  1.0000
  B   B5        1.0  0.85100  0.23600  0.27900  1.0000
  B   B6        1.0  0.36500  0.26400  0.29300  1.0000
  B   B7        1.0  0.71600  0.44900  0.38900  1.0000
  B   B8        1.0  0.51700  0.82600  0.46600  1.0000
  B   B9        1.0  0.86500  0.07140  0.60100  1.0000
  B   B10       1.0  0.04340  0.76400  0.61500  1.0000
  B   B11       1.0  0.63900  0.17400  0.69100  1.0000
  B   B12       1.0  0.21600  0.32600  0.76700  1.0000
  B   B13       1.0  0.54300  0.42900  0.77900  1.0000
  B   B14       1.0  0.52900  0.92900  0.79300  1.0000
  B   B15       1.0  0.44100  0.67400  0.88900  1.0000
  B   B16       1.0  0.13900  0.94900  0.96600  1.0000
  Li  Li1       1.0  0.98900  0.28800  0.00411  1.0000
  Li  Li2       1.0  0.48900  0.98400  0.20100  1.0000
  Li  Li3       1.0  0.75400  0.78800  0.23900  1.0000
  Li  Li4       1.0  0.25400  0.51600  0.46600  1.0000
  Li  Li5       1.0  0.21600  0.01550  0.50400  1.0000
  Li  Li6       1.0  0.71600  0.71200  0.70100  1.0000
  Li  Li7       1.0  0.95100  0.48400  0.73900  1.0000
  Li  Li8       1.0  0.45100  0.21200  0.96600  1.0000
  O   O1        1.0  0.47700  0.71300  0.08910  1.0000
  O   O2        1.0  0.98000  0.56600  0.11100  1.0000
  O   O3        1.0  0.33900  0.11300  0.12600  1.0000
  O   O4        1.0  0.01340  0.88700  0.22700  1.0000
  O   O5        1.0  0.86100  0.06650  0.23000  1.0000
  O   O6        1.0  0.74300  0.50000  0.24300  1.0000
  O   O7        1.0  0.97700  0.38700  0.26300  1.0000
  O   O8        1.0  0.36100  0.63100  0.29500  1.0000
  O   O9        1.0  0.21300  0.24200  0.33900  1.0000
  O   O10       1.0  0.72100  0.25800  0.34600  1.0000
  O   O11       1.0  0.54500  0.43400  0.41400  1.0000
  O   O12       1.0  0.08850  0.74200  0.46300  1.0000
  O   O13       1.0  0.71300  0.87400  0.47100  1.0000
  O   O14       1.0  0.49300  0.00000  0.49300  1.0000
  O   O15       1.0  0.87600  0.61300  0.58900  1.0000
  O   O16       1.0  0.04470  0.13100  0.61100  1.0000
  O   O17       1.0  0.51300  0.78700  0.62600  1.0000
  O   O18       1.0  0.83900  0.21300  0.72700  1.0000
  O   O19       1.0  0.66400  0.36900  0.73000  1.0000
  O   O20       1.0  0.24300  0.50000  0.74300  1.0000
  O   O21       1.0  0.37600  0.28700  0.76300  1.0000
  O   O22       1.0  0.16400  0.93400  0.79500  1.0000
  O   O23       1.0  0.59600  0.12600  0.83900  1.0000
  O   O24       1.0  0.58900  0.62600  0.84600  1.0000
  O   O25       1.0  0.48000  0.86900  0.91400  1.0000
  O   O26       1.0  0.22100  0.37400  0.96300  1.0000
  O   O27       1.0  0.09640  0.75800  0.97100  1.0000
  O   O28       1.0  0.99300  0.00000  0.99300  1.0000
