data_image0
_chemical_formula_structural       GeI6K2O18
_chemical_formula_sum              "Ge1 I6 K2 O18"
_cell_length_a       7.37793
_cell_length_b       7.37793
_cell_length_c       7.37793
_cell_angle_alpha    96.8257
_cell_angle_beta     96.8257
_cell_angle_gamma    96.8257

_space_group_name_H-M_alt    "P 1"
_space_group_IT_number       1

loop_
  _space_group_symop_operation_xyz
  'x, y, z'

loop_
  _atom_site_type_symbol
  _atom_site_label
  _atom_site_symmetry_multiplicity
  _atom_site_fract_x
  _atom_site_fract_y
  _atom_site_fract_z
  _atom_site_occupancy
  Ge  Ge1       1.0  0.00000  0.00000  0.00000  1.0000
  I   I1        1.0  0.36900  0.79400  0.16200  1.0000
  I   I2        1.0  0.83800  0.63100  0.20600  1.0000
  I   I3        1.0  0.79400  0.16200  0.36900  1.0000
  I   I4        1.0  0.20600  0.83800  0.63100  1.0000
  I   I5        1.0  0.16200  0.36900  0.79400  1.0000
  I   I6        1.0  0.63100  0.20600  0.83800  1.0000
  K   K1        1.0  0.32600  0.32600  0.32600  1.0000
  K   K2        1.0  0.67400  0.67400  0.67400  1.0000
  O   O1        1.0  0.81100  0.82100  0.05280  1.0000
  O   O2        1.0  0.20500  0.58100  0.11600  1.0000
  O   O3        1.0  0.94700  0.18900  0.17900  1.0000
  O   O4        1.0  0.58700  0.57700  0.18600  1.0000
  O   O5        1.0  0.17900  0.94700  0.18900  1.0000
  O   O6        1.0  0.58100  0.11600  0.20500  1.0000
  O   O7        1.0  0.42300  0.81400  0.41300  1.0000
  O   O8        1.0  0.88400  0.79500  0.41900  1.0000
  O   O9        1.0  0.81400  0.41300  0.42300  1.0000
  O   O10       1.0  0.18600  0.58700  0.57700  1.0000
  O   O11       1.0  0.11600  0.20500  0.58100  1.0000
  O   O12       1.0  0.57700  0.18600  0.58700  1.0000
  O   O13       1.0  0.41900  0.88400  0.79500  1.0000
  O   O14       1.0  0.82100  0.05280  0.81100  1.0000
  O   O15       1.0  0.41300  0.42300  0.81400  1.0000
  O   O16       1.0  0.05280  0.81100  0.82100  1.0000
  O   O17       1.0  0.79500  0.41900  0.88400  1.0000
  O   O18       1.0  0.18900  0.17900  0.94700  1.0000
