data_image0
_chemical_formula_structural       Ca4I8O24
_chemical_formula_sum              "Ca4 I8 O24"
_cell_length_a       7.08245
_cell_length_b       11.1607
_cell_length_c       7.15399
_cell_angle_alpha    90
_cell_angle_beta     106.148
_cell_angle_gamma    90

_space_group_name_H-M_alt    "P 1"
_space_group_IT_number       1

loop_
  _space_group_symop_operation_xyz
  'x, y, z'

loop_
  _atom_site_type_symbol
  _atom_site_label
  _atom_site_symmetry_multiplicity
  _atom_site_fract_x
  _atom_site_fract_y
  _atom_site_fract_z
  _atom_site_occupancy
  Ca  Ca1       1.0  0.77400  0.09750  0.00427  1.0000
  Ca  Ca2       1.0  0.72600  0.59700  0.49600  1.0000
  Ca  Ca3       1.0  0.27400  0.40300  0.50400  1.0000
  Ca  Ca4       1.0  0.22600  0.90300  0.99600  1.0000
  I   I1        1.0  0.26900  0.57400  0.02570  1.0000
  I   I2        1.0  0.73500  0.78200  0.04780  1.0000
  I   I3        1.0  0.76500  0.28200  0.45200  1.0000
  I   I4        1.0  0.23100  0.07450  0.47400  1.0000
  I   I5        1.0  0.76900  0.92600  0.52600  1.0000
  I   I6        1.0  0.23500  0.71800  0.54800  1.0000
  I   I7        1.0  0.26500  0.21800  0.95200  1.0000
  I   I8        1.0  0.73100  0.42600  0.97400  1.0000
  O   O1        1.0  0.90600  0.89800  0.01820  1.0000
  O   O2        1.0  0.56800  0.89300  0.09930  1.0000
  O   O3        1.0  0.17700  0.70600  0.12600  1.0000
  O   O4        1.0  0.53600  0.59300  0.14900  1.0000
  O   O5        1.0  0.19400  0.45400  0.16300  1.0000
  O   O6        1.0  0.64700  0.24400  0.19500  1.0000
  O   O7        1.0  0.85300  0.74400  0.30500  1.0000
  O   O8        1.0  0.30600  0.95400  0.33700  1.0000
  O   O9        1.0  0.96400  0.09320  0.35100  1.0000
  O   O10       1.0  0.32300  0.20600  0.37400  1.0000
  O   O11       1.0  0.93200  0.39300  0.40100  1.0000
  O   O12       1.0  0.59400  0.39800  0.48200  1.0000
  O   O13       1.0  0.40600  0.60200  0.51800  1.0000
  O   O14       1.0  0.06760  0.60700  0.59900  1.0000
  O   O15       1.0  0.67700  0.79400  0.62600  1.0000
  O   O16       1.0  0.03590  0.90700  0.64900  1.0000
  O   O17       1.0  0.69400  0.04600  0.66300  1.0000
  O   O18       1.0  0.14700  0.25600  0.69500  1.0000
  O   O19       1.0  0.35300  0.75600  0.80500  1.0000
  O   O20       1.0  0.80600  0.54600  0.83700  1.0000
  O   O21       1.0  0.46400  0.40700  0.85100  1.0000
  O   O22       1.0  0.82300  0.29400  0.87400  1.0000
  O   O23       1.0  0.43200  0.10700  0.90100  1.0000
  O   O24       1.0  0.09380  0.10200  0.98200  1.0000
