data_image0
_chemical_formula_structural       B4F16K4
_chemical_formula_sum              "B4 F16 K4"
_cell_length_a       8.30437
_cell_length_b       5.17096
_cell_length_c       6.71779
_cell_angle_alpha    90
_cell_angle_beta     90
_cell_angle_gamma    90

_space_group_name_H-M_alt    "P 1"
_space_group_IT_number       1

loop_
  _space_group_symop_operation_xyz
  'x, y, z'

loop_
  _atom_site_type_symbol
  _atom_site_label
  _atom_site_symmetry_multiplicity
  _atom_site_fract_x
  _atom_site_fract_y
  _atom_site_fract_z
  _atom_site_occupancy
  B   B1        1.0  0.43600  0.75000  0.19100  1.0000
  B   B2        1.0  0.93600  0.75000  0.30900  1.0000
  B   B3        1.0  0.06360  0.25000  0.69100  1.0000
  B   B4        1.0  0.56400  0.25000  0.80900  1.0000
  F   F1        1.0  0.31100  0.75000  0.04970  1.0000
  F   F2        1.0  0.58800  0.75000  0.10000  1.0000
  F   F3        1.0  0.92100  0.52800  0.18700  1.0000
  F   F4        1.0  0.92100  0.97200  0.18700  1.0000
  F   F5        1.0  0.42100  0.52800  0.31300  1.0000
  F   F6        1.0  0.42100  0.97200  0.31300  1.0000
  F   F7        1.0  0.08820  0.75000  0.40000  1.0000
  F   F8        1.0  0.81100  0.75000  0.45000  1.0000
  F   F9        1.0  0.18900  0.25000  0.55000  1.0000
  F   F10       1.0  0.91200  0.25000  0.60000  1.0000
  F   F11       1.0  0.57900  0.02780  0.68700  1.0000
  F   F12       1.0  0.57900  0.47200  0.68700  1.0000
  F   F13       1.0  0.07900  0.02780  0.81300  1.0000
  F   F14       1.0  0.07900  0.47200  0.81300  1.0000
  F   F15       1.0  0.41200  0.25000  0.90000  1.0000
  F   F16       1.0  0.68900  0.25000  0.95000  1.0000
  K   K1        1.0  0.18200  0.25000  0.16000  1.0000
  K   K2        1.0  0.68200  0.25000  0.34000  1.0000
  K   K3        1.0  0.31800  0.75000  0.66000  1.0000
  K   K4        1.0  0.81800  0.75000  0.84000  1.0000
