data_image0
_chemical_formula_structural       Mn4Mo6O16
_chemical_formula_sum              "Mn4 Mo6 O16"
_cell_length_a       5.81378
_cell_length_b       5.81316
_cell_length_c       10.2609
_cell_angle_alpha    90
_cell_angle_beta     90
_cell_angle_gamma    120.004

_space_group_name_H-M_alt    "P 1"
_space_group_IT_number       1

loop_
  _space_group_symop_operation_xyz
  'x, y, z'

loop_
  _atom_site_type_symbol
  _atom_site_label
  _atom_site_symmetry_multiplicity
  _atom_site_fract_x
  _atom_site_fract_y
  _atom_site_fract_z
  _atom_site_occupancy
  Mn  Mn1       1.0  0.66700  0.33300  0.01390  1.0000
  Mn  Mn2       1.0  0.66700  0.33300  0.45200  1.0000
  Mn  Mn3       1.0  0.33300  0.66700  0.51400  1.0000
  Mn  Mn4       1.0  0.33300  0.66700  0.95200  1.0000
  Mo  Mo1       1.0  0.14600  0.29200  0.25000  1.0000
  Mo  Mo2       1.0  0.14600  0.85400  0.25000  1.0000
  Mo  Mo3       1.0  0.70800  0.85400  0.25000  1.0000
  Mo  Mo4       1.0  0.85400  0.70800  0.75000  1.0000
  Mo  Mo5       1.0  0.29200  0.14600  0.75000  1.0000
  Mo  Mo6       1.0  0.85400  0.14600  0.75000  1.0000
  O   O1        1.0  0.32800  0.16400  0.13300  1.0000
  O   O2        1.0  0.83600  0.16400  0.13300  1.0000
  O   O3        1.0  0.83600  0.67200  0.13300  1.0000
  O   O4        1.0  0.33300  0.66700  0.14800  1.0000
  O   O5        1.0  0.48800  0.97500  0.36000  1.0000
  O   O6        1.0  0.02460  0.51200  0.36000  1.0000
  O   O7        1.0  0.48800  0.51200  0.36000  1.0000
  O   O8        1.0  0.00000  0.00000  0.38900  1.0000
  O   O9        1.0  0.16400  0.83600  0.63300  1.0000
  O   O10       1.0  0.67200  0.83600  0.63300  1.0000
  O   O11       1.0  0.16400  0.32800  0.63300  1.0000
  O   O12       1.0  0.66700  0.33300  0.64800  1.0000
  O   O13       1.0  0.51200  0.02470  0.86000  1.0000
  O   O14       1.0  0.51200  0.48800  0.86000  1.0000
  O   O15       1.0  0.97500  0.48800  0.86000  1.0000
  O   O16       1.0  0.00000  0.00000  0.88900  1.0000
