data_image0
_chemical_formula_structural       Ni31Si12
_chemical_formula_sum              "Ni31 Si12"
_cell_length_a       6.65231
_cell_length_b       6.65259
_cell_length_c       12.2768
_cell_angle_alpha    90
_cell_angle_beta     90.0004
_cell_angle_gamma    120.001

_space_group_name_H-M_alt    "P 1"
_space_group_IT_number       1

loop_
  _space_group_symop_operation_xyz
  'x, y, z'

loop_
  _atom_site_type_symbol
  _atom_site_label
  _atom_site_symmetry_multiplicity
  _atom_site_fract_x
  _atom_site_fract_y
  _atom_site_fract_z
  _atom_site_occupancy
  Ni  Ni1       1.0  0.33300  0.66700  0.07220  1.0000
  Ni  Ni2       1.0  0.41200  0.07860  0.09550  1.0000
  Ni  Ni3       1.0  0.66700  0.58800  0.09550  1.0000
  Ni  Ni4       1.0  0.92100  0.33300  0.09550  1.0000
  Ni  Ni5       1.0  0.00000  0.00000  0.09700  1.0000
  Ni  Ni6       1.0  0.66500  0.96300  0.19800  1.0000
  Ni  Ni7       1.0  0.29800  0.33500  0.19800  1.0000
  Ni  Ni8       1.0  0.03750  0.70200  0.19800  1.0000
  Ni  Ni9       1.0  0.67900  0.64300  0.30600  1.0000
  Ni  Ni10      1.0  0.35700  0.03530  0.30600  1.0000
  Ni  Ni11      1.0  0.96500  0.32200  0.30600  1.0000
  Ni  Ni12      1.0  0.30900  0.37100  0.40400  1.0000
  Ni  Ni13      1.0  0.06240  0.69100  0.40400  1.0000
  Ni  Ni14      1.0  0.62900  0.93800  0.40400  1.0000
  Ni  Ni15      1.0  0.66700  0.33300  0.43300  1.0000
  Ni  Ni16      1.0  0.00000  0.00000  0.50000  1.0000
  Ni  Ni17      1.0  0.33300  0.66700  0.56700  1.0000
  Ni  Ni18      1.0  0.37100  0.30900  0.59600  1.0000
  Ni  Ni19      1.0  0.93800  0.62900  0.59600  1.0000
  Ni  Ni20      1.0  0.69100  0.06240  0.59600  1.0000
  Ni  Ni21      1.0  0.03530  0.35700  0.69400  1.0000
  Ni  Ni22      1.0  0.64300  0.67900  0.69400  1.0000
  Ni  Ni23      1.0  0.32100  0.96500  0.69400  1.0000
  Ni  Ni24      1.0  0.96300  0.66500  0.80200  1.0000
  Ni  Ni25      1.0  0.70200  0.03740  0.80200  1.0000
  Ni  Ni26      1.0  0.33500  0.29800  0.80200  1.0000
  Ni  Ni27      1.0  0.00000  0.00000  0.90300  1.0000
  Ni  Ni28      1.0  0.07860  0.41200  0.90400  1.0000
  Ni  Ni29      1.0  0.33300  0.92100  0.90400  1.0000
  Ni  Ni30      1.0  0.58800  0.66700  0.90400  1.0000
  Ni  Ni31      1.0  0.66700  0.33300  0.92800  1.0000
  Si  Si1       1.0  0.68100  0.00000  0.00000  1.0000
  Si  Si2       1.0  0.31900  0.31900  0.00000  1.0000
  Si  Si3       1.0  0.00000  0.68100  0.00000  1.0000
  Si  Si4       1.0  0.66700  0.33300  0.22700  1.0000
  Si  Si5       1.0  0.33300  0.66700  0.27500  1.0000
  Si  Si6       1.0  0.00000  0.00000  0.29100  1.0000
  Si  Si7       1.0  0.65000  0.65000  0.50000  1.0000
  Si  Si8       1.0  0.00000  0.35000  0.50000  1.0000
  Si  Si9       1.0  0.35000  0.00000  0.50000  1.0000
  Si  Si10      1.0  0.00000  0.00000  0.70900  1.0000
  Si  Si11      1.0  0.66700  0.33300  0.72500  1.0000
  Si  Si12      1.0  0.33300  0.66700  0.77300  1.0000
