data_image0
_chemical_formula_structural       Co6O16V4
_chemical_formula_sum              "Co6 O16 V4"
_cell_length_a       5.98667
_cell_length_b       6.48331
_cell_length_c       8.25772
_cell_angle_alpha    90
_cell_angle_beta     90
_cell_angle_gamma    62.5032

_space_group_name_H-M_alt    "P 1"
_space_group_IT_number       1

loop_
  _space_group_symop_operation_xyz
  'x, y, z'

loop_
  _atom_site_type_symbol
  _atom_site_label
  _atom_site_symmetry_multiplicity
  _atom_site_fract_x
  _atom_site_fract_y
  _atom_site_fract_z
  _atom_site_occupancy
  Co  Co1       1.0  0.00000  0.00000  0.00000  1.0000
  Co  Co2       1.0  0.11600  0.26700  0.25000  1.0000
  Co  Co3       1.0  0.61600  0.26700  0.25000  1.0000
  Co  Co4       1.0  0.50000  0.00000  0.50000  1.0000
  Co  Co5       1.0  0.38400  0.73300  0.75000  1.0000
  Co  Co6       1.0  0.88400  0.73300  0.75000  1.0000
  O   O1        1.0  0.14500  0.23800  0.00234  1.0000
  O   O2        1.0  0.61800  0.23800  0.00234  1.0000
  O   O3        1.0  0.75000  0.50100  0.23200  1.0000
  O   O4        1.0  0.99900  0.00137  0.24800  1.0000
  O   O5        1.0  0.49900  0.00137  0.25200  1.0000
  O   O6        1.0  0.25000  0.50100  0.26800  1.0000
  O   O7        1.0  0.11800  0.23800  0.49800  1.0000
  O   O8        1.0  0.64500  0.23800  0.49800  1.0000
  O   O9        1.0  0.35500  0.76200  0.50200  1.0000
  O   O10       1.0  0.88200  0.76200  0.50200  1.0000
  O   O11       1.0  0.75000  0.49900  0.73200  1.0000
  O   O12       1.0  0.50100  0.99900  0.74800  1.0000
  O   O13       1.0  0.00069  0.99900  0.75200  1.0000
  O   O14       1.0  0.25000  0.49900  0.76800  1.0000
  O   O15       1.0  0.38200  0.76200  0.99800  1.0000
  O   O16       1.0  0.85500  0.76200  0.99800  1.0000
  V   V1        1.0  0.62300  0.75400  0.11900  1.0000
  V   V2        1.0  0.12300  0.75400  0.38100  1.0000
  V   V3        1.0  0.87700  0.24600  0.61900  1.0000
  V   V4        1.0  0.37700  0.24600  0.88100  1.0000
