data_image0
_chemical_formula_structural       Be8F20Tl4
_chemical_formula_sum              "Be8 F20 Tl4"
_cell_length_a       7.86838
_cell_length_b       4.50639
_cell_length_c       11.6296
_cell_angle_alpha    90
_cell_angle_beta     91.1388
_cell_angle_gamma    90

_space_group_name_H-M_alt    "P 1"
_space_group_IT_number       1

loop_
  _space_group_symop_operation_xyz
  'x, y, z'

loop_
  _atom_site_type_symbol
  _atom_site_label
  _atom_site_symmetry_multiplicity
  _atom_site_fract_x
  _atom_site_fract_y
  _atom_site_fract_z
  _atom_site_occupancy
  Be  Be1       1.0  0.66800  0.02870  0.20000  1.0000
  Be  Be2       1.0  0.16800  0.52900  0.20100  1.0000
  Be  Be3       1.0  0.83200  0.52900  0.29900  1.0000
  Be  Be4       1.0  0.33200  0.02870  0.30000  1.0000
  Be  Be5       1.0  0.66800  0.97100  0.70000  1.0000
  Be  Be6       1.0  0.16800  0.47100  0.70100  1.0000
  Be  Be7       1.0  0.83200  0.47100  0.79900  1.0000
  Be  Be8       1.0  0.33200  0.97100  0.80000  1.0000
  F   F1        1.0  0.67200  0.99400  0.07220  1.0000
  F   F2        1.0  0.17300  0.49500  0.07320  1.0000
  F   F3        1.0  0.68100  0.36400  0.23600  1.0000
  F   F4        1.0  0.18100  0.86400  0.23700  1.0000
  F   F5        1.0  0.00000  0.40100  0.25000  1.0000
  F   F6        1.0  0.50000  0.90200  0.25000  1.0000
  F   F7        1.0  0.81900  0.86400  0.26300  1.0000
  F   F8        1.0  0.31900  0.36400  0.26400  1.0000
  F   F9        1.0  0.82700  0.49500  0.42700  1.0000
  F   F10       1.0  0.32800  0.99400  0.42800  1.0000
  F   F11       1.0  0.67200  0.00560  0.57200  1.0000
  F   F12       1.0  0.17300  0.50500  0.57300  1.0000
  F   F13       1.0  0.68100  0.63600  0.73600  1.0000
  F   F14       1.0  0.18100  0.13600  0.73700  1.0000
  F   F15       1.0  0.00000  0.59900  0.75000  1.0000
  F   F16       1.0  0.50000  0.09810  0.75000  1.0000
  F   F17       1.0  0.81900  0.13600  0.76300  1.0000
  F   F18       1.0  0.31900  0.63600  0.76400  1.0000
  F   F19       1.0  0.82700  0.50500  0.92700  1.0000
  F   F20       1.0  0.32800  0.00560  0.92800  1.0000
  Tl  Tl1       1.0  0.00000  0.00000  0.00000  1.0000
  Tl  Tl2       1.0  0.50000  0.50000  0.00000  1.0000
  Tl  Tl3       1.0  0.50000  0.50000  0.50000  1.0000
  Tl  Tl4       1.0  0.00000  0.00000  0.50000  1.0000
