data_image0
_chemical_formula_structural       C12K6Mn2N12
_chemical_formula_sum              "C12 K6 Mn2 N12"
_cell_length_a       7.01409
_cell_length_b       10.3554
_cell_length_c       8.35148
_cell_angle_alpha    90
_cell_angle_beta     107.712
_cell_angle_gamma    90

_space_group_name_H-M_alt    "P 1"
_space_group_IT_number       1

loop_
  _space_group_symop_operation_xyz
  'x, y, z'

loop_
  _atom_site_type_symbol
  _atom_site_label
  _atom_site_symmetry_multiplicity
  _atom_site_fract_x
  _atom_site_fract_y
  _atom_site_fract_z
  _atom_site_occupancy
  C   C1        1.0  0.12400  0.17100  0.02970  1.0000
  C   C2        1.0  0.80800  0.05400  0.11700  1.0000
  C   C3        1.0  0.18900  0.94500  0.21300  1.0000
  C   C4        1.0  0.81100  0.44500  0.28700  1.0000
  C   C5        1.0  0.19200  0.55400  0.38300  1.0000
  C   C6        1.0  0.87600  0.67100  0.47000  1.0000
  C   C7        1.0  0.12400  0.32900  0.53000  1.0000
  C   C8        1.0  0.80800  0.44600  0.61700  1.0000
  C   C9        1.0  0.18900  0.55500  0.71300  1.0000
  C   C10       1.0  0.81100  0.05520  0.78700  1.0000
  C   C11       1.0  0.19200  0.94600  0.88300  1.0000
  C   C12       1.0  0.87600  0.82900  0.97000  1.0000
  K   K1        1.0  0.00000  0.50000  0.00000  1.0000
  K   K2        1.0  0.50200  0.73000  0.12600  1.0000
  K   K3        1.0  0.49800  0.23000  0.37400  1.0000
  K   K4        1.0  0.00000  0.00000  0.50000  1.0000
  K   K5        1.0  0.50200  0.77000  0.62600  1.0000
  K   K6        1.0  0.49800  0.27000  0.87400  1.0000
  Mn  Mn1       1.0  0.00000  0.00000  0.00000  1.0000
  Mn  Mn2       1.0  0.00000  0.50000  0.50000  1.0000
  N   N1        1.0  0.20500  0.27200  0.05060  1.0000
  N   N2        1.0  0.70000  0.41400  0.15600  1.0000
  N   N3        1.0  0.69800  0.08680  0.19100  1.0000
  N   N4        1.0  0.30200  0.58700  0.30900  1.0000
  N   N5        1.0  0.30000  0.91400  0.34400  1.0000
  N   N6        1.0  0.79500  0.77200  0.44900  1.0000
  N   N7        1.0  0.20500  0.22800  0.55100  1.0000
  N   N8        1.0  0.70000  0.08580  0.65600  1.0000
  N   N9        1.0  0.69800  0.41300  0.69100  1.0000
  N   N10       1.0  0.30200  0.91300  0.80900  1.0000
  N   N11       1.0  0.30000  0.58600  0.84400  1.0000
  N   N12       1.0  0.79500  0.72800  0.94900  1.0000
