data_image0
_chemical_formula_structural       I4K12O20
_chemical_formula_sum              "I4 K12 O20"
_cell_length_a       6.10664
_cell_length_b       6.10664
_cell_length_c       16.8196
_cell_angle_alpha    90
_cell_angle_beta     90
_cell_angle_gamma    90

_space_group_name_H-M_alt    "P 1"
_space_group_IT_number       1

loop_
  _space_group_symop_operation_xyz
  'x, y, z'

loop_
  _atom_site_type_symbol
  _atom_site_label
  _atom_site_symmetry_multiplicity
  _atom_site_fract_x
  _atom_site_fract_y
  _atom_site_fract_z
  _atom_site_occupancy
  I   I1        1.0  0.00000  0.50000  0.12800  1.0000
  I   I2        1.0  0.50000  0.00000  0.37200  1.0000
  I   I3        1.0  0.00000  0.50000  0.62800  1.0000
  I   I4        1.0  0.50000  0.00000  0.87200  1.0000
  K   K1        1.0  0.00000  0.00000  0.00000  1.0000
  K   K2        1.0  0.50000  0.50000  0.00000  1.0000
  K   K3        1.0  0.50000  0.00000  0.11300  1.0000
  K   K4        1.0  0.00000  0.00000  0.25000  1.0000
  K   K5        1.0  0.50000  0.50000  0.25000  1.0000
  K   K6        1.0  0.00000  0.50000  0.38700  1.0000
  K   K7        1.0  0.00000  0.00000  0.50000  1.0000
  K   K8        1.0  0.50000  0.50000  0.50000  1.0000
  K   K9        1.0  0.50000  0.00000  0.61300  1.0000
  K   K10       1.0  0.00000  0.00000  0.75000  1.0000
  K   K11       1.0  0.50000  0.50000  0.75000  1.0000
  K   K12       1.0  0.00000  0.50000  0.88700  1.0000
  O   O1        1.0  0.79600  0.28200  0.10600  1.0000
  O   O2        1.0  0.21800  0.29600  0.10600  1.0000
  O   O3        1.0  0.78200  0.70400  0.10600  1.0000
  O   O4        1.0  0.20400  0.71800  0.10600  1.0000
  O   O5        1.0  0.00000  0.50000  0.23700  1.0000
  O   O6        1.0  0.50000  0.00000  0.26300  1.0000
  O   O7        1.0  0.71800  0.20400  0.39400  1.0000
  O   O8        1.0  0.29600  0.21800  0.39400  1.0000
  O   O9        1.0  0.70400  0.78200  0.39400  1.0000
  O   O10       1.0  0.28200  0.79600  0.39400  1.0000
  O   O11       1.0  0.20400  0.28200  0.60600  1.0000
  O   O12       1.0  0.78200  0.29600  0.60600  1.0000
  O   O13       1.0  0.21800  0.70400  0.60600  1.0000
  O   O14       1.0  0.79600  0.71800  0.60600  1.0000
  O   O15       1.0  0.00000  0.50000  0.73700  1.0000
  O   O16       1.0  0.50000  0.00000  0.76300  1.0000
  O   O17       1.0  0.28200  0.20400  0.89400  1.0000
  O   O18       1.0  0.70400  0.21800  0.89400  1.0000
  O   O19       1.0  0.29600  0.78200  0.89400  1.0000
  O   O20       1.0  0.71800  0.79600  0.89400  1.0000
