data_image0
_chemical_formula_structural       Nb4O22Te6
_chemical_formula_sum              "Nb4 O22 Te6"
_cell_length_a       7.73948
_cell_length_b       15.8073
_cell_length_c       3.96258
_cell_angle_alpha    90
_cell_angle_beta     90
_cell_angle_gamma    90

_space_group_name_H-M_alt    "P 1"
_space_group_IT_number       1

loop_
  _space_group_symop_operation_xyz
  'x, y, z'

loop_
  _atom_site_type_symbol
  _atom_site_label
  _atom_site_symmetry_multiplicity
  _atom_site_fract_x
  _atom_site_fract_y
  _atom_site_fract_z
  _atom_site_occupancy
  Nb  Nb1       1.0  0.37100  0.10300  0.24800  1.0000
  Nb  Nb2       1.0  0.62900  0.89700  0.24800  1.0000
  Nb  Nb3       1.0  0.87100  0.39700  0.75200  1.0000
  Nb  Nb4       1.0  0.12900  0.60300  0.75200  1.0000
  O   O1        1.0  0.36200  0.38500  0.17800  1.0000
  O   O2        1.0  0.63800  0.61500  0.17800  1.0000
  O   O3        1.0  0.50000  0.00000  0.19200  1.0000
  O   O4        1.0  0.24400  0.22000  0.20300  1.0000
  O   O5        1.0  0.75600  0.78000  0.20300  1.0000
  O   O6        1.0  0.14200  0.04350  0.20400  1.0000
  O   O7        1.0  0.85800  0.95700  0.20400  1.0000
  O   O8        1.0  0.58300  0.17400  0.22400  1.0000
  O   O9        1.0  0.41700  0.82600  0.22400  1.0000
  O   O10       1.0  0.84500  0.39100  0.28900  1.0000
  O   O11       1.0  0.15500  0.60900  0.28900  1.0000
  O   O12       1.0  0.34500  0.10900  0.71100  1.0000
  O   O13       1.0  0.65500  0.89100  0.71100  1.0000
  O   O14       1.0  0.08290  0.32600  0.77600  1.0000
  O   O15       1.0  0.91700  0.67400  0.77600  1.0000
  O   O16       1.0  0.64200  0.45700  0.79600  1.0000
  O   O17       1.0  0.35800  0.54300  0.79600  1.0000
  O   O18       1.0  0.74400  0.28000  0.79700  1.0000
  O   O19       1.0  0.25600  0.72000  0.79700  1.0000
  O   O20       1.0  0.00000  0.50000  0.80800  1.0000
  O   O21       1.0  0.86200  0.11500  0.82200  1.0000
  O   O22       1.0  0.13800  0.88500  0.82200  1.0000
  Te  Te1       1.0  0.81500  0.20400  0.14200  1.0000
  Te  Te2       1.0  0.18500  0.79600  0.14200  1.0000
  Te  Te3       1.0  0.50000  0.50000  0.15100  1.0000
  Te  Te4       1.0  0.00000  0.00000  0.84900  1.0000
  Te  Te5       1.0  0.31500  0.29600  0.85800  1.0000
  Te  Te6       1.0  0.68500  0.70400  0.85800  1.0000
