data_image0
_chemical_formula_structural       Ge8S20Tl8
_chemical_formula_sum              "Ge8 S20 Tl8"
_cell_length_a       8.94039
_cell_length_b       10.8298
_cell_length_c       10.8298
_cell_angle_alpha    89.9281
_cell_angle_beta     101.27
_cell_angle_gamma    101.27

_space_group_name_H-M_alt    "P 1"
_space_group_IT_number       1

loop_
  _space_group_symop_operation_xyz
  'x, y, z'

loop_
  _atom_site_type_symbol
  _atom_site_label
  _atom_site_symmetry_multiplicity
  _atom_site_fract_x
  _atom_site_fract_y
  _atom_site_fract_z
  _atom_site_occupancy
  Ge  Ge1       1.0  0.38900  0.73000  0.13600  1.0000
  Ge  Ge2       1.0  0.09470  0.52300  0.26700  1.0000
  Ge  Ge3       1.0  0.11100  0.86400  0.27000  1.0000
  Ge  Ge4       1.0  0.40500  0.73300  0.47700  1.0000
  Ge  Ge5       1.0  0.59500  0.26700  0.52300  1.0000
  Ge  Ge6       1.0  0.88900  0.13600  0.73000  1.0000
  Ge  Ge7       1.0  0.90500  0.47700  0.73300  1.0000
  Ge  Ge8       1.0  0.61100  0.27000  0.86400  1.0000
  S   S1        1.0  0.46500  0.24300  0.00190  1.0000
  S   S2        1.0  0.23500  0.53700  0.11200  1.0000
  S   S3        1.0  0.25000  0.88600  0.11400  1.0000
  S   S4        1.0  0.94800  0.67300  0.24200  1.0000
  S   S5        1.0  0.94000  0.34000  0.24200  1.0000
  S   S6        1.0  0.96500  0.00190  0.24300  1.0000
  S   S7        1.0  0.55200  0.75800  0.32700  1.0000
  S   S8        1.0  0.44000  0.24200  0.34000  1.0000
  S   S9        1.0  0.25000  0.54000  0.46000  1.0000
  S   S10       1.0  0.26500  0.88800  0.46300  1.0000
  S   S11       1.0  0.73500  0.11200  0.53700  1.0000
  S   S12       1.0  0.75000  0.46000  0.54000  1.0000
  S   S13       1.0  0.56000  0.75800  0.66000  1.0000
  S   S14       1.0  0.44800  0.24200  0.67300  1.0000
  S   S15       1.0  0.03540  0.99800  0.75700  1.0000
  S   S16       1.0  0.05950  0.66000  0.75800  1.0000
  S   S17       1.0  0.05200  0.32700  0.75800  1.0000
  S   S18       1.0  0.75000  0.11400  0.88600  1.0000
  S   S19       1.0  0.76500  0.46300  0.88800  1.0000
  S   S20       1.0  0.53500  0.75700  0.99800  1.0000
  Tl  Tl1       1.0  0.10700  0.20400  0.07130  1.0000
  Tl  Tl2       1.0  0.61100  0.45600  0.20200  1.0000
  Tl  Tl3       1.0  0.60700  0.07130  0.20400  1.0000
  Tl  Tl4       1.0  0.11100  0.20200  0.45600  1.0000
  Tl  Tl5       1.0  0.88900  0.79800  0.54400  1.0000
  Tl  Tl6       1.0  0.39300  0.92900  0.79600  1.0000
  Tl  Tl7       1.0  0.38900  0.54400  0.79800  1.0000
  Tl  Tl8       1.0  0.89300  0.79600  0.92900  1.0000
