data_image0
_chemical_formula_structural       Be8F32Li4Na12
_chemical_formula_sum              "Be8 F32 Li4 Na12"
_cell_length_a       6.3722
_cell_length_b       9.25353
_cell_length_c       9.58089
_cell_angle_alpha    90
_cell_angle_beta     93.6176
_cell_angle_gamma    90

_space_group_name_H-M_alt    "P 1"
_space_group_IT_number       1

loop_
  _space_group_symop_operation_xyz
  'x, y, z'

loop_
  _atom_site_type_symbol
  _atom_site_label
  _atom_site_symmetry_multiplicity
  _atom_site_fract_x
  _atom_site_fract_y
  _atom_site_fract_z
  _atom_site_occupancy
  Be  Be1       1.0  0.89500  0.82900  0.08440  1.0000
  Be  Be2       1.0  0.38300  0.57800  0.16500  1.0000
  Be  Be3       1.0  0.61700  0.07840  0.33500  1.0000
  Be  Be4       1.0  0.10500  0.32900  0.41600  1.0000
  Be  Be5       1.0  0.89500  0.67100  0.58400  1.0000
  Be  Be6       1.0  0.38300  0.92200  0.66500  1.0000
  Be  Be7       1.0  0.61700  0.42200  0.83500  1.0000
  Be  Be8       1.0  0.10500  0.17100  0.91600  1.0000
  F   F1        1.0  0.69200  0.90300  0.02510  1.0000
  F   F2        1.0  0.45600  0.65200  0.03340  1.0000
  F   F3        1.0  0.98200  0.23000  0.04020  1.0000
  F   F4        1.0  0.17500  0.49700  0.12000  1.0000
  F   F5        1.0  0.04310  0.93900  0.16200  1.0000
  F   F6        1.0  0.84500  0.70200  0.18200  1.0000
  F   F7        1.0  0.67500  0.19400  0.22400  1.0000
  F   F8        1.0  0.54000  0.47400  0.23400  1.0000
  F   F9        1.0  0.46000  0.97400  0.26600  1.0000
  F   F10       1.0  0.32500  0.69400  0.27600  1.0000
  F   F11       1.0  0.15500  0.20200  0.31800  1.0000
  F   F12       1.0  0.95700  0.43900  0.33800  1.0000
  F   F13       1.0  0.82500  0.99700  0.38000  1.0000
  F   F14       1.0  0.01760  0.73000  0.46000  1.0000
  F   F15       1.0  0.54400  0.15200  0.46700  1.0000
  F   F16       1.0  0.30800  0.40300  0.47500  1.0000
  F   F17       1.0  0.69200  0.59700  0.52500  1.0000
  F   F18       1.0  0.45600  0.84800  0.53300  1.0000
  F   F19       1.0  0.98200  0.27000  0.54000  1.0000
  F   F20       1.0  0.17500  0.00332  0.62000  1.0000
  F   F21       1.0  0.04310  0.56100  0.66200  1.0000
  F   F22       1.0  0.84500  0.79800  0.68200  1.0000
  F   F23       1.0  0.67500  0.30600  0.72400  1.0000
  F   F24       1.0  0.54000  0.02650  0.73400  1.0000
  F   F25       1.0  0.46000  0.52600  0.76600  1.0000
  F   F26       1.0  0.32500  0.80600  0.77600  1.0000
  F   F27       1.0  0.15500  0.29800  0.81800  1.0000
  F   F28       1.0  0.95700  0.06100  0.83800  1.0000
  F   F29       1.0  0.82500  0.50300  0.88000  1.0000
  F   F30       1.0  0.01760  0.77000  0.96000  1.0000
  F   F31       1.0  0.54400  0.34800  0.96700  1.0000
  F   F32       1.0  0.30800  0.09740  0.97500  1.0000
  Li  Li1       1.0  0.94400  0.12100  0.20300  1.0000
  Li  Li2       1.0  0.05560  0.62100  0.29700  1.0000
  Li  Li3       1.0  0.94400  0.37900  0.70300  1.0000
  Li  Li4       1.0  0.05560  0.87900  0.79700  1.0000
  Na  Na1       1.0  0.34700  0.87800  0.06490  1.0000
  Na  Na2       1.0  0.82400  0.44000  0.11100  1.0000
  Na  Na3       1.0  0.35200  0.27600  0.14300  1.0000
  Na  Na4       1.0  0.64800  0.77600  0.35700  1.0000
  Na  Na5       1.0  0.17600  0.94000  0.38900  1.0000
  Na  Na6       1.0  0.65300  0.37800  0.43500  1.0000
  Na  Na7       1.0  0.34700  0.62200  0.56500  1.0000
  Na  Na8       1.0  0.82400  0.05960  0.61100  1.0000
  Na  Na9       1.0  0.35200  0.22400  0.64300  1.0000
  Na  Na10      1.0  0.64800  0.72400  0.85700  1.0000
  Na  Na11      1.0  0.17600  0.56000  0.88900  1.0000
  Na  Na12      1.0  0.65300  0.12200  0.93500  1.0000
