data_image0
_chemical_formula_structural       Co3In2S2
_chemical_formula_sum              "Co3 In2 S2"
_cell_length_a       5.4755
_cell_length_b       5.4755
_cell_length_c       5.4755
_cell_angle_alpha    58.1399
_cell_angle_beta     58.1399
_cell_angle_gamma    58.1399

_space_group_name_H-M_alt    "P 1"
_space_group_IT_number       1

loop_
  _space_group_symop_operation_xyz
  'x, y, z'

loop_
  _atom_site_type_symbol
  _atom_site_label
  _atom_site_symmetry_multiplicity
  _atom_site_fract_x
  _atom_site_fract_y
  _atom_site_fract_z
  _atom_site_occupancy
  Co  Co1       1.0  0.50000  0.00000  0.00000  1.0000
  Co  Co2       1.0  0.00000  0.50000  0.00000  1.0000
  Co  Co3       1.0  0.00000  0.00000  0.50000  1.0000
  In  In1       1.0  0.00000  0.00000  0.00000  1.0000
  In  In2       1.0  0.50000  0.50000  0.50000  1.0000
  S   S1        1.0  0.27800  0.27800  0.27800  1.0000
  S   S2        1.0  0.72200  0.72200  0.72200  1.0000
