data_image0
_chemical_formula_structural       Na4O22Si8Zr2
_chemical_formula_sum              "Na4 O22 Si8 Zr2"
_cell_length_a       7.46546
_cell_length_b       7.46546
_cell_length_c       8.54088
_cell_angle_alpha    97.7645
_cell_angle_beta     82.2355
_cell_angle_gamma    95.0325

_space_group_name_H-M_alt    "P 1"
_space_group_IT_number       1

loop_
  _space_group_symop_operation_xyz
  'x, y, z'

loop_
  _atom_site_type_symbol
  _atom_site_label
  _atom_site_symmetry_multiplicity
  _atom_site_fract_x
  _atom_site_fract_y
  _atom_site_fract_z
  _atom_site_occupancy
  Na  Na1       1.0  0.60500  0.60500  0.25000  1.0000
  Na  Na2       1.0  0.92600  0.92600  0.25000  1.0000
  Na  Na3       1.0  0.07410  0.07410  0.75000  1.0000
  Na  Na4       1.0  0.39500  0.39500  0.75000  1.0000
  O   O1        1.0  0.75700  0.04660  0.00075  1.0000
  O   O2        1.0  0.82400  0.71700  0.03770  1.0000
  O   O3        1.0  0.47600  0.25000  0.08160  1.0000
  O   O4        1.0  0.79700  0.37800  0.15300  1.0000
  O   O5        1.0  0.10800  0.62600  0.19800  1.0000
  O   O6        1.0  0.16000  0.16000  0.25000  1.0000
  O   O7        1.0  0.62600  0.10800  0.30200  1.0000
  O   O8        1.0  0.37800  0.79700  0.34700  1.0000
  O   O9        1.0  0.25000  0.47600  0.41800  1.0000
  O   O10       1.0  0.71700  0.82400  0.46200  1.0000
  O   O11       1.0  0.04660  0.75700  0.49900  1.0000
  O   O12       1.0  0.95300  0.24300  0.50100  1.0000
  O   O13       1.0  0.28300  0.17600  0.53800  1.0000
  O   O14       1.0  0.75000  0.52400  0.58200  1.0000
  O   O15       1.0  0.62200  0.20300  0.65300  1.0000
  O   O16       1.0  0.37400  0.89200  0.69800  1.0000
  O   O17       1.0  0.84000  0.84000  0.75000  1.0000
  O   O18       1.0  0.89200  0.37400  0.80200  1.0000
  O   O19       1.0  0.20300  0.62200  0.84700  1.0000
  O   O20       1.0  0.52400  0.75000  0.91800  1.0000
  O   O21       1.0  0.17600  0.28300  0.96200  1.0000
  O   O22       1.0  0.24300  0.95300  0.99900  1.0000
  Si  Si1       1.0  0.26800  0.16600  0.07060  1.0000
  Si  Si2       1.0  0.66500  0.19700  0.13900  1.0000
  Si  Si3       1.0  0.19700  0.66500  0.36100  1.0000
  Si  Si4       1.0  0.16600  0.26800  0.42900  1.0000
  Si  Si5       1.0  0.83400  0.73200  0.57100  1.0000
  Si  Si6       1.0  0.80300  0.33500  0.63900  1.0000
  Si  Si7       1.0  0.33500  0.80300  0.86100  1.0000
  Si  Si8       1.0  0.73200  0.83400  0.92900  1.0000
  Zr  Zr1       1.0  0.00000  0.50000  0.00000  1.0000
  Zr  Zr2       1.0  0.50000  0.00000  0.50000  1.0000
