data_image0
_chemical_formula_structural       H4Mo4Na4O20Zn4
_chemical_formula_sum              "H4 Mo4 Na4 O20 Zn4"
_cell_length_a       7.79393
_cell_length_b       9.18946
_cell_length_c       6.09306
_cell_angle_alpha    90
_cell_angle_beta     90
_cell_angle_gamma    90

_space_group_name_H-M_alt    "P 1"
_space_group_IT_number       1

loop_
  _space_group_symop_operation_xyz
  'x, y, z'

loop_
  _atom_site_type_symbol
  _atom_site_label
  _atom_site_symmetry_multiplicity
  _atom_site_fract_x
  _atom_site_fract_y
  _atom_site_fract_z
  _atom_site_occupancy
  H   H1        1.0  0.25200  0.52700  0.25000  1.0000
  H   H2        1.0  0.75200  0.97300  0.25000  1.0000
  H   H3        1.0  0.24800  0.02660  0.75000  1.0000
  H   H4        1.0  0.74800  0.47300  0.75000  1.0000
  Mo  Mo1       1.0  0.12200  0.16900  0.25000  1.0000
  Mo  Mo2       1.0  0.62200  0.33100  0.25000  1.0000
  Mo  Mo3       1.0  0.37800  0.66900  0.75000  1.0000
  Mo  Mo4       1.0  0.87800  0.83100  0.75000  1.0000
  Na  Na1       1.0  0.63500  0.68400  0.25000  1.0000
  Na  Na2       1.0  0.13500  0.81600  0.25000  1.0000
  Na  Na3       1.0  0.86500  0.18400  0.75000  1.0000
  Na  Na4       1.0  0.36500  0.31600  0.75000  1.0000
  O   O1        1.0  0.61400  0.22000  0.00911  1.0000
  O   O2        1.0  0.11400  0.28000  0.00911  1.0000
  O   O3        1.0  0.94700  0.04560  0.25000  1.0000
  O   O4        1.0  0.31300  0.05820  0.25000  1.0000
  O   O5        1.0  0.81300  0.44200  0.25000  1.0000
  O   O6        1.0  0.44700  0.45400  0.25000  1.0000
  O   O7        1.0  0.13500  0.57000  0.25000  1.0000
  O   O8        1.0  0.63500  0.93000  0.25000  1.0000
  O   O9        1.0  0.61400  0.22000  0.49100  1.0000
  O   O10       1.0  0.11400  0.28000  0.49100  1.0000
  O   O11       1.0  0.88600  0.72000  0.50900  1.0000
  O   O12       1.0  0.38600  0.78000  0.50900  1.0000
  O   O13       1.0  0.36500  0.06970  0.75000  1.0000
  O   O14       1.0  0.86500  0.43000  0.75000  1.0000
  O   O15       1.0  0.55300  0.54600  0.75000  1.0000
  O   O16       1.0  0.18700  0.55800  0.75000  1.0000
  O   O17       1.0  0.68700  0.94200  0.75000  1.0000
  O   O18       1.0  0.05300  0.95400  0.75000  1.0000
  O   O19       1.0  0.88600  0.72000  0.99100  1.0000
  O   O20       1.0  0.38600  0.78000  0.99100  1.0000
  Zn  Zn1       1.0  0.50000  0.00000  0.00000  1.0000
  Zn  Zn2       1.0  0.00000  0.50000  0.00000  1.0000
  Zn  Zn3       1.0  0.50000  0.00000  0.50000  1.0000
  Zn  Zn4       1.0  0.00000  0.50000  0.50000  1.0000
