data_image0
_chemical_formula_structural       Ba8O20Tl8
_chemical_formula_sum              "Ba8 O20 Tl8"
_cell_length_a       6.31244
_cell_length_b       17.2492
_cell_length_c       6.07645
_cell_angle_alpha    90
_cell_angle_beta     90
_cell_angle_gamma    90

_space_group_name_H-M_alt    "P 1"
_space_group_IT_number       1

loop_
  _space_group_symop_operation_xyz
  'x, y, z'

loop_
  _atom_site_type_symbol
  _atom_site_label
  _atom_site_symmetry_multiplicity
  _atom_site_fract_x
  _atom_site_fract_y
  _atom_site_fract_z
  _atom_site_occupancy
  Ba  Ba1       1.0  0.51500  0.61100  0.00620  1.0000
  Ba  Ba2       1.0  0.51500  0.88900  0.00620  1.0000
  Ba  Ba3       1.0  0.01540  0.11100  0.49400  1.0000
  Ba  Ba4       1.0  0.01540  0.38900  0.49400  1.0000
  Ba  Ba5       1.0  0.98500  0.61100  0.50600  1.0000
  Ba  Ba6       1.0  0.98500  0.88900  0.50600  1.0000
  Ba  Ba7       1.0  0.48500  0.11100  0.99400  1.0000
  Ba  Ba8       1.0  0.48500  0.38900  0.99400  1.0000
  O   O1        1.0  0.07050  0.13800  0.04250  1.0000
  O   O2        1.0  0.07050  0.36200  0.04250  1.0000
  O   O3        1.0  0.61700  0.25000  0.11000  1.0000
  O   O4        1.0  0.23200  0.51400  0.24500  1.0000
  O   O5        1.0  0.23200  0.98600  0.24500  1.0000
  O   O6        1.0  0.73200  0.01440  0.25500  1.0000
  O   O7        1.0  0.73200  0.48600  0.25500  1.0000
  O   O8        1.0  0.11700  0.75000  0.39000  1.0000
  O   O9        1.0  0.57100  0.63800  0.45800  1.0000
  O   O10       1.0  0.57100  0.86200  0.45800  1.0000
  O   O11       1.0  0.42900  0.13800  0.54200  1.0000
  O   O12       1.0  0.42900  0.36200  0.54200  1.0000
  O   O13       1.0  0.88300  0.25000  0.61000  1.0000
  O   O14       1.0  0.26800  0.51400  0.74500  1.0000
  O   O15       1.0  0.26800  0.98600  0.74500  1.0000
  O   O16       1.0  0.76800  0.01440  0.75500  1.0000
  O   O17       1.0  0.76800  0.48600  0.75500  1.0000
  O   O18       1.0  0.38300  0.75000  0.89000  1.0000
  O   O19       1.0  0.92900  0.63800  0.95800  1.0000
  O   O20       1.0  0.92900  0.86200  0.95800  1.0000
  Tl  Tl1       1.0  0.00000  0.00000  0.00000  1.0000
  Tl  Tl2       1.0  0.00000  0.50000  0.00000  1.0000
  Tl  Tl3       1.0  0.05200  0.75000  0.02470  1.0000
  Tl  Tl4       1.0  0.55200  0.25000  0.47500  1.0000
  Tl  Tl5       1.0  0.50000  0.00000  0.50000  1.0000
  Tl  Tl6       1.0  0.50000  0.50000  0.50000  1.0000
  Tl  Tl7       1.0  0.44800  0.75000  0.52500  1.0000
  Tl  Tl8       1.0  0.94800  0.25000  0.97500  1.0000
