data_image0
_chemical_formula_structural       Be4Ni2O20Si4Yb4
_chemical_formula_sum              "Be4 Ni2 O20 Si4 Yb4"
_cell_length_a       4.60826
_cell_length_b       7.36502
_cell_length_c       9.96112
_cell_angle_alpha    90
_cell_angle_beta     89.6356
_cell_angle_gamma    90

_space_group_name_H-M_alt    "P 1"
_space_group_IT_number       1

loop_
  _space_group_symop_operation_xyz
  'x, y, z'

loop_
  _atom_site_type_symbol
  _atom_site_label
  _atom_site_symmetry_multiplicity
  _atom_site_fract_x
  _atom_site_fract_y
  _atom_site_fract_z
  _atom_site_occupancy
  Be  Be1       1.0  0.44400  0.92000  0.15500  1.0000
  Be  Be2       1.0  0.55600  0.42000  0.34500  1.0000
  Be  Be3       1.0  0.44400  0.58000  0.65500  1.0000
  Be  Be4       1.0  0.55600  0.08040  0.84500  1.0000
  Ni  Ni1       1.0  0.00000  0.00000  0.00000  1.0000
  Ni  Ni2       1.0  0.00000  0.50000  0.50000  1.0000
  O   O1        1.0  0.28100  0.43500  0.02140  1.0000
  O   O2        1.0  0.28200  0.80100  0.03660  1.0000
  O   O3        1.0  0.28400  0.11900  0.13000  1.0000
  O   O4        1.0  0.78700  0.92000  0.15300  1.0000
  O   O5        1.0  0.69800  0.34500  0.20800  1.0000
  O   O6        1.0  0.30200  0.84500  0.29200  1.0000
  O   O7        1.0  0.21300  0.42000  0.34700  1.0000
  O   O8        1.0  0.71600  0.61900  0.37000  1.0000
  O   O9        1.0  0.71800  0.30100  0.46300  1.0000
  O   O10       1.0  0.71900  0.93500  0.47900  1.0000
  O   O11       1.0  0.28100  0.06480  0.52100  1.0000
  O   O12       1.0  0.28200  0.69900  0.53700  1.0000
  O   O13       1.0  0.28400  0.38100  0.63000  1.0000
  O   O14       1.0  0.78700  0.58000  0.65300  1.0000
  O   O15       1.0  0.69800  0.15500  0.70800  1.0000
  O   O16       1.0  0.30200  0.65500  0.79200  1.0000
  O   O17       1.0  0.21300  0.08020  0.84700  1.0000
  O   O18       1.0  0.71600  0.88100  0.87000  1.0000
  O   O19       1.0  0.71800  0.19900  0.96300  1.0000
  O   O20       1.0  0.71900  0.56500  0.97900  1.0000
  Si  Si1       1.0  0.50500  0.28200  0.08090  1.0000
  Si  Si2       1.0  0.49500  0.78200  0.41900  1.0000
  Si  Si3       1.0  0.50500  0.21800  0.58100  1.0000
  Si  Si4       1.0  0.49500  0.71800  0.91900  1.0000
  Yb  Yb1       1.0  0.00160  0.61600  0.17800  1.0000
  Yb  Yb2       1.0  0.99800  0.11600  0.32200  1.0000
  Yb  Yb3       1.0  0.00160  0.88400  0.67800  1.0000
  Yb  Yb4       1.0  0.99800  0.38400  0.82200  1.0000
