data_image0
_chemical_formula_structural       Cu2K2Na2O20Si8
_chemical_formula_sum              "Cu2 K2 Na2 O20 Si8"
_cell_length_a       9.72605
_cell_length_b       7.86764
_cell_length_c       6.95722
_cell_angle_alpha    114.751
_cell_angle_beta     99.2321
_cell_angle_gamma    104.71

_space_group_name_H-M_alt    "P 1"
_space_group_IT_number       1

loop_
  _space_group_symop_operation_xyz
  'x, y, z'

loop_
  _atom_site_type_symbol
  _atom_site_label
  _atom_site_symmetry_multiplicity
  _atom_site_fract_x
  _atom_site_fract_y
  _atom_site_fract_z
  _atom_site_occupancy
  Cu  Cu1       1.0  0.41300  0.12700  0.16300  1.0000
  Cu  Cu2       1.0  0.58700  0.87300  0.83700  1.0000
  K   K1        1.0  0.00368  0.21000  0.33300  1.0000
  K   K2        1.0  0.99600  0.79000  0.66700  1.0000
  Na  Na1       1.0  0.59100  0.87000  0.33800  1.0000
  Na  Na2       1.0  0.40900  0.13000  0.66200  1.0000
  O   O1        1.0  0.56300  0.21000  0.02550  1.0000
  O   O2        1.0  0.85300  0.33700  0.04320  1.0000
  O   O3        1.0  0.73100  0.90700  0.09270  1.0000
  O   O4        1.0  0.96800  0.82100  0.14600  1.0000
  O   O5        1.0  0.72200  0.60600  0.18000  1.0000
  O   O6        1.0  0.26300  0.44500  0.21600  1.0000
  O   O7        1.0  0.25200  0.05560  0.29000  1.0000
  O   O8        1.0  0.16400  0.74900  0.37300  1.0000
  O   O9        1.0  0.79300  0.43400  0.41000  1.0000
  O   O10       1.0  0.55300  0.19200  0.44400  1.0000
  O   O11       1.0  0.44700  0.80800  0.55600  1.0000
  O   O12       1.0  0.20700  0.56600  0.59000  1.0000
  O   O13       1.0  0.83600  0.25100  0.62700  1.0000
  O   O14       1.0  0.74800  0.94400  0.71000  1.0000
  O   O15       1.0  0.73700  0.55500  0.78400  1.0000
  O   O16       1.0  0.27800  0.39400  0.82000  1.0000
  O   O17       1.0  0.03170  0.17900  0.85400  1.0000
  O   O18       1.0  0.26900  0.09280  0.90700  1.0000
  O   O19       1.0  0.14700  0.66300  0.95700  1.0000
  O   O20       1.0  0.43700  0.79000  0.97400  1.0000
  Si  Si1       1.0  0.78600  0.72200  0.04500  1.0000
  Si  Si2       1.0  0.72100  0.38700  0.15500  1.0000
  Si  Si3       1.0  0.14100  0.83000  0.19200  1.0000
  Si  Si4       1.0  0.28100  0.64800  0.43600  1.0000
  Si  Si5       1.0  0.71900  0.35200  0.56400  1.0000
  Si  Si6       1.0  0.85900  0.17000  0.80800  1.0000
  Si  Si7       1.0  0.27900  0.61300  0.84500  1.0000
  Si  Si8       1.0  0.21400  0.27800  0.95500  1.0000
