data_image0
_chemical_formula_structural       Ba2F12Zr2
_chemical_formula_sum              "Ba2 F12 Zr2"
_cell_length_a       5.36149
_cell_length_b       6.83192
_cell_length_c       6.83192
_cell_angle_alpha    67.2421
_cell_angle_beta     90
_cell_angle_gamma    90

_space_group_name_H-M_alt    "P 1"
_space_group_IT_number       1

loop_
  _space_group_symop_operation_xyz
  'x, y, z'

loop_
  _atom_site_type_symbol
  _atom_site_label
  _atom_site_symmetry_multiplicity
  _atom_site_fract_x
  _atom_site_fract_y
  _atom_site_fract_z
  _atom_site_occupancy
  Ba  Ba1       1.0  0.43000  0.25000  0.25000  1.0000
  Ba  Ba2       1.0  0.57000  0.75000  0.75000  1.0000
  F   F1        1.0  0.24900  0.67700  0.06060  1.0000
  F   F2        1.0  0.17100  0.06140  0.06140  1.0000
  F   F3        1.0  0.75100  0.56100  0.17700  1.0000
  F   F4        1.0  0.75100  0.93900  0.32300  1.0000
  F   F5        1.0  0.17100  0.43900  0.43900  1.0000
  F   F6        1.0  0.24900  0.82300  0.43900  1.0000
  F   F7        1.0  0.75100  0.17700  0.56100  1.0000
  F   F8        1.0  0.82900  0.56100  0.56100  1.0000
  F   F9        1.0  0.24900  0.06060  0.67700  1.0000
  F   F10       1.0  0.24900  0.43900  0.82300  1.0000
  F   F11       1.0  0.82900  0.93900  0.93900  1.0000
  F   F12       1.0  0.75100  0.32300  0.93900  1.0000
  Zr  Zr1       1.0  0.00000  0.75000  0.25000  1.0000
  Zr  Zr2       1.0  0.00000  0.25000  0.75000  1.0000
