data_image0
_chemical_formula_structural       Co6Ga2Y6
_chemical_formula_sum              "Co6 Ga2 Y6"
_cell_length_a       4.11057
_cell_length_b       5.38792
_cell_length_c       12.9013
_cell_angle_alpha    90
_cell_angle_beta     90
_cell_angle_gamma    67.5758

_space_group_name_H-M_alt    "P 1"
_space_group_IT_number       1

loop_
  _space_group_symop_operation_xyz
  'x, y, z'

loop_
  _atom_site_type_symbol
  _atom_site_label
  _atom_site_symmetry_multiplicity
  _atom_site_fract_x
  _atom_site_fract_y
  _atom_site_fract_z
  _atom_site_occupancy
  Co  Co1       1.0  0.41900  0.16300  0.09560  1.0000
  Co  Co2       1.0  0.30300  0.39400  0.25000  1.0000
  Co  Co3       1.0  0.41900  0.16300  0.40400  1.0000
  Co  Co4       1.0  0.58100  0.83700  0.59600  1.0000
  Co  Co5       1.0  0.69700  0.60600  0.75000  1.0000
  Co  Co6       1.0  0.58100  0.83700  0.90400  1.0000
  Ga  Ga1       1.0  0.00000  0.00000  0.00000  1.0000
  Ga  Ga2       1.0  0.00000  0.00000  0.50000  1.0000
  Y   Y1        1.0  0.70900  0.58200  0.10300  1.0000
  Y   Y2        1.0  0.99900  0.00137  0.25000  1.0000
  Y   Y3        1.0  0.70900  0.58200  0.39700  1.0000
  Y   Y4        1.0  0.29100  0.41800  0.60300  1.0000
  Y   Y5        1.0  0.00069  0.99900  0.75000  1.0000
  Y   Y6        1.0  0.29100  0.41800  0.89700  1.0000
