data_image0
_chemical_formula_structural       BiLi4MnO6
_chemical_formula_sum              "Bi1 Li4 Mn1 O6"
_cell_length_a       5.29018
_cell_length_b       5.29018
_cell_length_c       5.20053
_cell_angle_alpha    99.1812
_cell_angle_beta     99.1812
_cell_angle_gamma    120.725

_space_group_name_H-M_alt    "P 1"
_space_group_IT_number       1

loop_
  _space_group_symop_operation_xyz
  'x, y, z'

loop_
  _atom_site_type_symbol
  _atom_site_label
  _atom_site_symmetry_multiplicity
  _atom_site_fract_x
  _atom_site_fract_y
  _atom_site_fract_z
  _atom_site_occupancy
  Bi  Bi1       1.0  0.16300  0.83700  0.00000  1.0000
  Li  Li1       1.0  0.49900  0.50100  0.00000  1.0000
  Li  Li2       1.0  0.99400  0.00648  0.50000  1.0000
  Li  Li3       1.0  0.65900  0.34100  0.50000  1.0000
  Li  Li4       1.0  0.34600  0.65400  0.50000  1.0000
  Mn  Mn1       1.0  0.83200  0.16800  0.00000  1.0000
  O   O1        1.0  0.59900  0.93900  0.22500  1.0000
  O   O2        1.0  0.23900  0.24200  0.24600  1.0000
  O   O3        1.0  0.92900  0.57800  0.24700  1.0000
  O   O4        1.0  0.42200  0.07110  0.75300  1.0000
  O   O5        1.0  0.75800  0.76100  0.75400  1.0000
  O   O6        1.0  0.06090  0.40100  0.77500  1.0000
