data_image0
_chemical_formula_structural       K12Mn4O12
_chemical_formula_sum              "K12 Mn4 O12"
_cell_length_a       8.95777
_cell_length_b       6.7285
_cell_length_c       11.4253
_cell_angle_alpha    90
_cell_angle_beta     90
_cell_angle_gamma    132.643

_space_group_name_H-M_alt    "P 1"
_space_group_IT_number       1

loop_
  _space_group_symop_operation_xyz
  'x, y, z'

loop_
  _atom_site_type_symbol
  _atom_site_label
  _atom_site_symmetry_multiplicity
  _atom_site_fract_x
  _atom_site_fract_y
  _atom_site_fract_z
  _atom_site_occupancy
  K   K1        1.0  0.34600  0.20300  0.01350  1.0000
  K   K2        1.0  0.52800  0.02350  0.21000  1.0000
  K   K3        1.0  0.98000  0.05380  0.22600  1.0000
  K   K4        1.0  0.98000  0.55400  0.27400  1.0000
  K   K5        1.0  0.52800  0.52400  0.29000  1.0000
  K   K6        1.0  0.34600  0.70300  0.48600  1.0000
  K   K7        1.0  0.65400  0.29700  0.51400  1.0000
  K   K8        1.0  0.47200  0.47600  0.71000  1.0000
  K   K9        1.0  0.01960  0.44600  0.72600  1.0000
  K   K10       1.0  0.01960  0.94600  0.77400  1.0000
  K   K11       1.0  0.47200  0.97600  0.79000  1.0000
  K   K12       1.0  0.65400  0.79700  0.98600  1.0000
  Mn  Mn1       1.0  0.15900  0.49800  0.00497  1.0000
  Mn  Mn2       1.0  0.15900  0.99800  0.49500  1.0000
  Mn  Mn3       1.0  0.84100  0.00230  0.50500  1.0000
  Mn  Mn4       1.0  0.84100  0.50200  0.99500  1.0000
  O   O1        1.0  0.88700  0.28800  0.07420  1.0000
  O   O2        1.0  0.72400  0.53400  0.12000  1.0000
  O   O3        1.0  0.30100  0.51700  0.13200  1.0000
  O   O4        1.0  0.30100  0.01710  0.36800  1.0000
  O   O5        1.0  0.72400  0.03420  0.38000  1.0000
  O   O6        1.0  0.88700  0.78800  0.42600  1.0000
  O   O7        1.0  0.11300  0.21200  0.57400  1.0000
  O   O8        1.0  0.27600  0.96600  0.62000  1.0000
  O   O9        1.0  0.69900  0.98300  0.63200  1.0000
  O   O10       1.0  0.69900  0.48300  0.86800  1.0000
  O   O11       1.0  0.27600  0.46600  0.88000  1.0000
  O   O12       1.0  0.11300  0.71200  0.92600  1.0000
