data_image0
_chemical_formula_structural       C6Cr23
_chemical_formula_sum              "C6 Cr23"
_cell_length_a       7.44278
_cell_length_b       7.44278
_cell_length_c       7.44278
_cell_angle_alpha    120
_cell_angle_beta     90
_cell_angle_gamma    120

_space_group_name_H-M_alt    "P 1"
_space_group_IT_number       1

loop_
  _space_group_symop_operation_xyz
  'x, y, z'

loop_
  _atom_site_type_symbol
  _atom_site_label
  _atom_site_symmetry_multiplicity
  _atom_site_fract_x
  _atom_site_fract_y
  _atom_site_fract_z
  _atom_site_occupancy
  C   C1        1.0  0.27700  0.00000  0.27700  1.0000
  C   C2        1.0  0.72300  0.00000  0.27700  1.0000
  C   C3        1.0  0.27700  0.55300  0.27700  1.0000
  C   C4        1.0  0.27700  0.00000  0.72300  1.0000
  C   C5        1.0  0.72300  0.00000  0.72300  1.0000
  C   C6        1.0  0.72300  0.44700  0.72300  1.0000
  Cr  Cr1       1.0  0.00000  0.00000  0.00000  1.0000
  Cr  Cr2       1.0  0.34000  0.00000  0.00000  1.0000
  Cr  Cr3       1.0  0.66000  0.00000  0.00000  1.0000
  Cr  Cr4       1.0  0.00000  0.34000  0.00000  1.0000
  Cr  Cr5       1.0  0.34000  0.34000  0.00000  1.0000
  Cr  Cr6       1.0  0.00000  0.66000  0.00000  1.0000
  Cr  Cr7       1.0  0.66000  0.66000  1.00000  1.0000
  Cr  Cr8       1.0  0.38100  0.76200  0.14300  1.0000
  Cr  Cr9       1.0  0.75000  0.50000  0.25000  1.0000
  Cr  Cr10      1.0  0.00000  0.00000  0.34000  1.0000
  Cr  Cr11      1.0  0.00000  0.34000  0.34000  1.0000
  Cr  Cr12      1.0  0.34000  0.34000  0.34000  1.0000
  Cr  Cr13      1.0  0.61900  0.23800  0.38100  1.0000
  Cr  Cr14      1.0  0.14300  0.76200  0.38100  1.0000
  Cr  Cr15      1.0  0.61900  0.76200  0.38100  1.0000
  Cr  Cr16      1.0  0.38100  0.23800  0.61900  1.0000
  Cr  Cr17      1.0  0.85700  0.23800  0.61900  1.0000
  Cr  Cr18      1.0  0.38100  0.76200  0.61900  1.0000
  Cr  Cr19      1.0  0.00000  0.00000  0.66000  1.0000
  Cr  Cr20      1.0  0.00000  0.66000  0.66000  1.0000
  Cr  Cr21      1.0  0.66000  0.66000  0.66000  1.0000
  Cr  Cr22      1.0  0.25000  0.50000  0.75000  1.0000
  Cr  Cr23      1.0  0.61900  0.23800  0.85700  1.0000
