data_image0
_chemical_formula_structural       O18Ti8Tl4
_chemical_formula_sum              "O18 Ti8 Tl4"
_cell_length_a       3.79227
_cell_length_b       9.61897
_cell_length_c       12.0749
_cell_angle_alpha    106.345
_cell_angle_beta     90.0004
_cell_angle_gamma    101.369

_space_group_name_H-M_alt    "P 1"
_space_group_IT_number       1

loop_
  _space_group_symop_operation_xyz
  'x, y, z'

loop_
  _atom_site_type_symbol
  _atom_site_label
  _atom_site_symmetry_multiplicity
  _atom_site_fract_x
  _atom_site_fract_y
  _atom_site_fract_z
  _atom_site_occupancy
  O   O1        1.0  0.18400  0.36800  0.02520  1.0000
  O   O2        1.0  0.96400  0.92900  0.12200  1.0000
  O   O3        1.0  0.34700  0.69500  0.14500  1.0000
  O   O4        1.0  0.76800  0.53600  0.20200  1.0000
  O   O5        1.0  0.16300  0.32600  0.24100  1.0000
  O   O6        1.0  0.91500  0.82900  0.31900  1.0000
  O   O7        1.0  0.30700  0.61400  0.35900  1.0000
  O   O8        1.0  0.73100  0.46200  0.42200  1.0000
  O   O9        1.0  0.12400  0.24700  0.46100  1.0000
  O   O10       1.0  0.87600  0.75300  0.53900  1.0000
  O   O11       1.0  0.26900  0.53800  0.57800  1.0000
  O   O12       1.0  0.69300  0.38600  0.64100  1.0000
  O   O13       1.0  0.08540  0.17100  0.68100  1.0000
  O   O14       1.0  0.83700  0.67400  0.75900  1.0000
  O   O15       1.0  0.23200  0.46400  0.79800  1.0000
  O   O16       1.0  0.65300  0.30500  0.85500  1.0000
  O   O17       1.0  0.03570  0.07140  0.87800  1.0000
  O   O18       1.0  0.81600  0.63200  0.97500  1.0000
  Ti  Ti1       1.0  0.87500  0.74900  0.13900  1.0000
  Ti  Ti2       1.0  0.24600  0.49300  0.16800  1.0000
  Ti  Ti3       1.0  0.83600  0.67200  0.37700  1.0000
  Ti  Ti4       1.0  0.20400  0.40700  0.39700  1.0000
  Ti  Ti5       1.0  0.79600  0.59300  0.60300  1.0000
  Ti  Ti6       1.0  0.16400  0.32800  0.62300  1.0000
  Ti  Ti7       1.0  0.75400  0.50700  0.83200  1.0000
  Ti  Ti8       1.0  0.12500  0.25100  0.86100  1.0000
  Tl  Tl1       1.0  0.58100  0.16200  0.08820  1.0000
  Tl  Tl2       1.0  0.51600  0.03180  0.32700  1.0000
  Tl  Tl3       1.0  0.48400  0.96800  0.67300  1.0000
  Tl  Tl4       1.0  0.41900  0.83800  0.91200  1.0000
