data_image0
_chemical_formula_structural       Cu5Li2O14Si4
_chemical_formula_sum              "Cu5 Li2 O14 Si4"
_cell_length_a       7.30116
_cell_length_b       7.68224
_cell_length_c       5.45846
_cell_angle_alpha    90.8651
_cell_angle_beta     105.819
_cell_angle_gamma    113.679

_space_group_name_H-M_alt    "P 1"
_space_group_IT_number       1

loop_
  _space_group_symop_operation_xyz
  'x, y, z'

loop_
  _atom_site_type_symbol
  _atom_site_label
  _atom_site_symmetry_multiplicity
  _atom_site_fract_x
  _atom_site_fract_y
  _atom_site_fract_z
  _atom_site_occupancy
  Cu  Cu1       1.0  0.00000  0.00000  0.00000  1.0000
  Cu  Cu2       1.0  0.38700  0.81400  0.07960  1.0000
  Cu  Cu3       1.0  0.42600  0.29000  0.33800  1.0000
  Cu  Cu4       1.0  0.57400  0.71000  0.66200  1.0000
  Cu  Cu5       1.0  0.61300  0.18600  0.92000  1.0000
  Li  Li1       1.0  0.11600  0.44900  0.24200  1.0000
  Li  Li2       1.0  0.88400  0.55100  0.75800  1.0000
  O   O1        1.0  0.18500  0.26300  0.03040  1.0000
  O   O2        1.0  0.82700  0.42000  0.10200  1.0000
  O   O3        1.0  0.64900  0.03660  0.20700  1.0000
  O   O4        1.0  0.57900  0.54900  0.29100  1.0000
  O   O5        1.0  0.22400  0.02200  0.30500  1.0000
  O   O6        1.0  0.33900  0.73300  0.40700  1.0000
  O   O7        1.0  0.98100  0.71500  0.46800  1.0000
  O   O8        1.0  0.01870  0.28500  0.53200  1.0000
  O   O9        1.0  0.66100  0.26700  0.59300  1.0000
  O   O10       1.0  0.77600  0.97800  0.69500  1.0000
  O   O11       1.0  0.42100  0.45100  0.70900  1.0000
  O   O12       1.0  0.35100  0.96300  0.79300  1.0000
  O   O13       1.0  0.17300  0.58000  0.89800  1.0000
  O   O14       1.0  0.81500  0.73700  0.97000  1.0000
  Si  Si1       1.0  0.78400  0.59800  0.20000  1.0000
  Si  Si2       1.0  0.22600  0.86000  0.49700  1.0000
  Si  Si3       1.0  0.77400  0.14000  0.50300  1.0000
  Si  Si4       1.0  0.21600  0.40200  0.80000  1.0000
