data_image0
_chemical_formula_structural       CoGeLi4O6
_chemical_formula_sum              "Co1 Ge1 Li4 O6"
_cell_length_a       4.97623
_cell_length_b       4.97623
_cell_length_c       5.0315
_cell_angle_alpha    99.7047
_cell_angle_beta     99.7047
_cell_angle_gamma    119.84

_space_group_name_H-M_alt    "P 1"
_space_group_IT_number       1

loop_
  _space_group_symop_operation_xyz
  'x, y, z'

loop_
  _atom_site_type_symbol
  _atom_site_label
  _atom_site_symmetry_multiplicity
  _atom_site_fract_x
  _atom_site_fract_y
  _atom_site_fract_z
  _atom_site_occupancy
  Co  Co1       1.0  0.83200  0.16800  0.00000  1.0000
  Ge  Ge1       1.0  0.16700  0.83300  0.00000  1.0000
  Li  Li1       1.0  0.50000  0.50000  0.00000  1.0000
  Li  Li2       1.0  0.99800  0.00217  0.50000  1.0000
  Li  Li3       1.0  0.34100  0.65900  0.50000  1.0000
  Li  Li4       1.0  0.66100  0.33900  0.50000  1.0000
  O   O1        1.0  0.93700  0.58400  0.22700  1.0000
  O   O2        1.0  0.57000  0.92900  0.22900  1.0000
  O   O3        1.0  0.22500  0.21700  0.23100  1.0000
  O   O4        1.0  0.78300  0.77500  0.76900  1.0000
  O   O5        1.0  0.07060  0.43000  0.77100  1.0000
  O   O6        1.0  0.41600  0.06310  0.77300  1.0000
