data_image0
_chemical_formula_structural       K12Sn4Te12
_chemical_formula_sum              "K12 Sn4 Te12"
_cell_length_a       9.70416
_cell_length_b       13.9015
_cell_length_c       9.74392
_cell_angle_alpha    90
_cell_angle_beta     116.931
_cell_angle_gamma    90

_space_group_name_H-M_alt    "P 1"
_space_group_IT_number       1

loop_
  _space_group_symop_operation_xyz
  'x, y, z'

loop_
  _atom_site_type_symbol
  _atom_site_label
  _atom_site_symmetry_multiplicity
  _atom_site_fract_x
  _atom_site_fract_y
  _atom_site_fract_z
  _atom_site_occupancy
  K   K1        1.0  0.50000  0.65600  0.01140  1.0000
  K   K2        1.0  0.72300  0.06550  0.20200  1.0000
  K   K3        1.0  0.05450  0.28100  0.20500  1.0000
  K   K4        1.0  0.94600  0.78100  0.29500  1.0000
  K   K5        1.0  0.27700  0.56500  0.29800  1.0000
  K   K6        1.0  0.50000  0.15600  0.48900  1.0000
  K   K7        1.0  0.50000  0.84400  0.51100  1.0000
  K   K8        1.0  0.72300  0.43500  0.70200  1.0000
  K   K9        1.0  0.05450  0.21900  0.70500  1.0000
  K   K10       1.0  0.94600  0.71900  0.79500  1.0000
  K   K11       1.0  0.27700  0.93500  0.79800  1.0000
  K   K12       1.0  0.50000  0.34400  0.98900  1.0000
  Sn  Sn1       1.0  0.15500  0.99200  0.12500  1.0000
  Sn  Sn2       1.0  0.84500  0.49200  0.37500  1.0000
  Sn  Sn3       1.0  0.15500  0.50800  0.62500  1.0000
  Sn  Sn4       1.0  0.84500  0.00842  0.87500  1.0000
  Te  Te1       1.0  0.33100  0.13300  0.07650  1.0000
  Te  Te2       1.0  0.85700  0.52500  0.09930  1.0000
  Te  Te3       1.0  0.26100  0.80700  0.12000  1.0000
  Te  Te4       1.0  0.73900  0.30700  0.38000  1.0000
  Te  Te5       1.0  0.14300  0.02480  0.40100  1.0000
  Te  Te6       1.0  0.66900  0.63300  0.42400  1.0000
  Te  Te7       1.0  0.33100  0.36700  0.57600  1.0000
  Te  Te8       1.0  0.85700  0.97500  0.59900  1.0000
  Te  Te9       1.0  0.26100  0.69300  0.62000  1.0000
  Te  Te10      1.0  0.73900  0.19300  0.88000  1.0000
  Te  Te11      1.0  0.14300  0.47500  0.90100  1.0000
  Te  Te12      1.0  0.66900  0.86700  0.92400  1.0000
