data_image0
_chemical_formula_structural       Cr4F20Rb8
_chemical_formula_sum              "Cr4 F20 Rb8"
_cell_length_a       7.26683
_cell_length_b       5.64529
_cell_length_c       11.6602
_cell_angle_alpha    90
_cell_angle_beta     90
_cell_angle_gamma    90

_space_group_name_H-M_alt    "P 1"
_space_group_IT_number       1

loop_
  _space_group_symop_operation_xyz
  'x, y, z'

loop_
  _atom_site_type_symbol
  _atom_site_label
  _atom_site_symmetry_multiplicity
  _atom_site_fract_x
  _atom_site_fract_y
  _atom_site_fract_z
  _atom_site_occupancy
  Cr  Cr1       1.0  0.16200  0.25000  0.06440  1.0000
  Cr  Cr2       1.0  0.66200  0.25000  0.43600  1.0000
  Cr  Cr3       1.0  0.33800  0.75000  0.56400  1.0000
  Cr  Cr4       1.0  0.83800  0.75000  0.93600  1.0000
  F   F1        1.0  0.00000  0.00000  0.00000  1.0000
  F   F2        1.0  0.00000  0.50000  0.00000  1.0000
  F   F3        1.0  0.70200  0.75000  0.07720  1.0000
  F   F4        1.0  0.31100  0.00802  0.12300  1.0000
  F   F5        1.0  0.31100  0.49200  0.12300  1.0000
  F   F6        1.0  0.01010  0.25000  0.19500  1.0000
  F   F7        1.0  0.51000  0.25000  0.30500  1.0000
  F   F8        1.0  0.81100  0.00802  0.37700  1.0000
  F   F9        1.0  0.81100  0.49200  0.37700  1.0000
  F   F10       1.0  0.20200  0.75000  0.42300  1.0000
  F   F11       1.0  0.50000  0.00000  0.50000  1.0000
  F   F12       1.0  0.50000  0.50000  0.50000  1.0000
  F   F13       1.0  0.79800  0.25000  0.57700  1.0000
  F   F14       1.0  0.18900  0.50800  0.62300  1.0000
  F   F15       1.0  0.18900  0.99200  0.62300  1.0000
  F   F16       1.0  0.49000  0.75000  0.69500  1.0000
  F   F17       1.0  0.99000  0.75000  0.80500  1.0000
  F   F18       1.0  0.68900  0.50800  0.87700  1.0000
  F   F19       1.0  0.68900  0.99200  0.87700  1.0000
  F   F20       1.0  0.29800  0.25000  0.92300  1.0000
  Rb  Rb1       1.0  0.65200  0.25000  0.08450  1.0000
  Rb  Rb2       1.0  0.01100  0.75000  0.22200  1.0000
  Rb  Rb3       1.0  0.51100  0.75000  0.27800  1.0000
  Rb  Rb4       1.0  0.15200  0.25000  0.41600  1.0000
  Rb  Rb5       1.0  0.84800  0.75000  0.58400  1.0000
  Rb  Rb6       1.0  0.48900  0.25000  0.72200  1.0000
  Rb  Rb7       1.0  0.98900  0.25000  0.77800  1.0000
  Rb  Rb8       1.0  0.34800  0.75000  0.91600  1.0000
