data_image0
_chemical_formula_structural       Ba8O16Ti4
_chemical_formula_sum              "Ba8 O16 Ti4"
_cell_length_a       6.11292
_cell_length_b       7.69781
_cell_length_c       10.5319
_cell_angle_alpha    90
_cell_angle_beta     93.3326
_cell_angle_gamma    90

_space_group_name_H-M_alt    "P 1"
_space_group_IT_number       1

loop_
  _space_group_symop_operation_xyz
  'x, y, z'

loop_
  _atom_site_type_symbol
  _atom_site_label
  _atom_site_symmetry_multiplicity
  _atom_site_fract_x
  _atom_site_fract_y
  _atom_site_fract_z
  _atom_site_occupancy
  Ba  Ba1       1.0  0.76600  0.84400  0.07570  1.0000
  Ba  Ba2       1.0  0.22600  0.50000  0.19700  1.0000
  Ba  Ba3       1.0  0.27400  0.00000  0.30300  1.0000
  Ba  Ba4       1.0  0.73400  0.34400  0.42400  1.0000
  Ba  Ba5       1.0  0.26600  0.65600  0.57600  1.0000
  Ba  Ba6       1.0  0.72600  0.00036  0.69700  1.0000
  Ba  Ba7       1.0  0.77400  0.50000  0.80300  1.0000
  Ba  Ba8       1.0  0.23400  0.15600  0.92400  1.0000
  O   O1        1.0  0.78500  0.51200  0.06780  1.0000
  O   O2        1.0  0.32700  0.82100  0.07490  1.0000
  O   O3        1.0  0.99900  0.17300  0.13900  1.0000
  O   O4        1.0  0.51800  0.23500  0.18800  1.0000
  O   O5        1.0  0.98200  0.73500  0.31200  1.0000
  O   O6        1.0  0.50100  0.67300  0.36100  1.0000
  O   O7        1.0  0.17300  0.32100  0.42500  1.0000
  O   O8        1.0  0.71500  0.01180  0.43200  1.0000
  O   O9        1.0  0.28500  0.98800  0.56800  1.0000
  O   O10       1.0  0.82700  0.67900  0.57500  1.0000
  O   O11       1.0  0.49900  0.32700  0.63900  1.0000
  O   O12       1.0  0.01770  0.26500  0.68800  1.0000
  O   O13       1.0  0.48200  0.76500  0.81200  1.0000
  O   O14       1.0  0.00115  0.82700  0.86100  1.0000
  O   O15       1.0  0.67300  0.17900  0.92500  1.0000
  O   O16       1.0  0.21500  0.48800  0.93200  1.0000
  Ti  Ti1       1.0  0.74000  0.27900  0.08260  1.0000
  Ti  Ti2       1.0  0.76000  0.77900  0.41700  1.0000
  Ti  Ti3       1.0  0.24000  0.22100  0.58300  1.0000
  Ti  Ti4       1.0  0.26000  0.72100  0.91700  1.0000
