data_image0
_chemical_formula_structural       Ge4La8S20
_chemical_formula_sum              "Ge4 La8 S20"
_cell_length_a       7.9508
_cell_length_b       7.67727
_cell_length_c       12.792
_cell_angle_alpha    90
_cell_angle_beta     90
_cell_angle_gamma    101.171

_space_group_name_H-M_alt    "P 1"
_space_group_IT_number       1

loop_
  _space_group_symop_operation_xyz
  'x, y, z'

loop_
  _atom_site_type_symbol
  _atom_site_label
  _atom_site_symmetry_multiplicity
  _atom_site_fract_x
  _atom_site_fract_y
  _atom_site_fract_z
  _atom_site_occupancy
  Ge  Ge1       1.0  0.59100  0.33900  0.11700  1.0000
  Ge  Ge2       1.0  0.09120  0.33900  0.38300  1.0000
  Ge  Ge3       1.0  0.90900  0.66100  0.61700  1.0000
  Ge  Ge4       1.0  0.40900  0.66100  0.88300  1.0000
  La  La1       1.0  0.04150  0.23800  0.09360  1.0000
  La  La2       1.0  0.36600  0.84100  0.16700  1.0000
  La  La3       1.0  0.86600  0.84100  0.33300  1.0000
  La  La4       1.0  0.54200  0.23800  0.40600  1.0000
  La  La5       1.0  0.45800  0.76200  0.59400  1.0000
  La  La6       1.0  0.13400  0.15900  0.66700  1.0000
  La  La7       1.0  0.63400  0.15900  0.83300  1.0000
  La  La8       1.0  0.95800  0.76200  0.90600  1.0000
  S   S1        1.0  0.21600  0.58000  0.00790  1.0000
  S   S2        1.0  0.38100  0.17000  0.02610  1.0000
  S   S3        1.0  0.00160  0.86200  0.12100  1.0000
  S   S4        1.0  0.69600  0.12700  0.20600  1.0000
  S   S5        1.0  0.54700  0.53800  0.23400  1.0000
  S   S6        1.0  0.04730  0.53800  0.26600  1.0000
  S   S7        1.0  0.19600  0.12700  0.29400  1.0000
  S   S8        1.0  0.50200  0.86200  0.37900  1.0000
  S   S9        1.0  0.88100  0.17000  0.47400  1.0000
  S   S10       1.0  0.71600  0.58000  0.49200  1.0000
  S   S11       1.0  0.28400  0.42000  0.50800  1.0000
  S   S12       1.0  0.11900  0.83000  0.52600  1.0000
  S   S13       1.0  0.49800  0.13800  0.62100  1.0000
  S   S14       1.0  0.80400  0.87300  0.70600  1.0000
  S   S15       1.0  0.95300  0.46200  0.73400  1.0000
  S   S16       1.0  0.45300  0.46200  0.76600  1.0000
  S   S17       1.0  0.30400  0.87300  0.79400  1.0000
  S   S18       1.0  0.99800  0.13800  0.87900  1.0000
  S   S19       1.0  0.61900  0.83000  0.97400  1.0000
  S   S20       1.0  0.78400  0.42000  0.99200  1.0000
