data_image0
_chemical_formula_structural       Nd8O20Ti4
_chemical_formula_sum              "Nd8 O20 Ti4"
_cell_length_a       10.7321
_cell_length_b       11.4108
_cell_length_c       3.82953
_cell_angle_alpha    90
_cell_angle_beta     90
_cell_angle_gamma    90

_space_group_name_H-M_alt    "P 1"
_space_group_IT_number       1

loop_
  _space_group_symop_operation_xyz
  'x, y, z'

loop_
  _atom_site_type_symbol
  _atom_site_label
  _atom_site_symmetry_multiplicity
  _atom_site_fract_x
  _atom_site_fract_y
  _atom_site_fract_z
  _atom_site_occupancy
  Nd  Nd1       1.0  0.13700  0.05730  0.25000  1.0000
  Nd  Nd2       1.0  0.63700  0.44300  0.25000  1.0000
  Nd  Nd3       1.0  0.10500  0.72000  0.25000  1.0000
  Nd  Nd4       1.0  0.60500  0.78000  0.25000  1.0000
  Nd  Nd5       1.0  0.39500  0.22000  0.75000  1.0000
  Nd  Nd6       1.0  0.89500  0.28000  0.75000  1.0000
  Nd  Nd7       1.0  0.36300  0.55700  0.75000  1.0000
  Nd  Nd8       1.0  0.86300  0.94300  0.75000  1.0000
  O   O1        1.0  0.51900  0.15700  0.25000  1.0000
  O   O2        1.0  0.26700  0.22900  0.25000  1.0000
  O   O3        1.0  0.76700  0.27100  0.25000  1.0000
  O   O4        1.0  0.01940  0.34300  0.25000  1.0000
  O   O5        1.0  0.22300  0.53900  0.25000  1.0000
  O   O6        1.0  0.49100  0.60400  0.25000  1.0000
  O   O7        1.0  0.76200  0.62100  0.25000  1.0000
  O   O8        1.0  0.26200  0.87900  0.25000  1.0000
  O   O9        1.0  0.99100  0.89600  0.25000  1.0000
  O   O10       1.0  0.72300  0.96100  0.25000  1.0000
  O   O11       1.0  0.27700  0.03850  0.75000  1.0000
  O   O12       1.0  0.00931  0.10400  0.75000  1.0000
  O   O13       1.0  0.73800  0.12100  0.75000  1.0000
  O   O14       1.0  0.23800  0.37900  0.75000  1.0000
  O   O15       1.0  0.50900  0.39600  0.75000  1.0000
  O   O16       1.0  0.77700  0.46100  0.75000  1.0000
  O   O17       1.0  0.98100  0.65700  0.75000  1.0000
  O   O18       1.0  0.23300  0.72900  0.75000  1.0000
  O   O19       1.0  0.73300  0.77100  0.75000  1.0000
  O   O20       1.0  0.48100  0.84300  0.75000  1.0000
  Ti  Ti1       1.0  0.68300  0.12300  0.25000  1.0000
  Ti  Ti2       1.0  0.18300  0.37700  0.25000  1.0000
  Ti  Ti3       1.0  0.81700  0.62300  0.75000  1.0000
  Ti  Ti4       1.0  0.31700  0.87700  0.75000  1.0000
