data_image0
_chemical_formula_structural       Ge4K12Te12
_chemical_formula_sum              "Ge4 K12 Te12"
_cell_length_a       9.79111
_cell_length_b       10.6217
_cell_length_c       10.6217
_cell_angle_alpha    81.0889
_cell_angle_beta     94.2874
_cell_angle_gamma    94.2874

_space_group_name_H-M_alt    "P 1"
_space_group_IT_number       1

loop_
  _space_group_symop_operation_xyz
  'x, y, z'

loop_
  _atom_site_type_symbol
  _atom_site_label
  _atom_site_symmetry_multiplicity
  _atom_site_fract_x
  _atom_site_fract_y
  _atom_site_fract_z
  _atom_site_occupancy
  Ge  Ge1       1.0  0.45900  0.56800  0.07550  1.0000
  Ge  Ge2       1.0  0.04060  0.92500  0.43200  1.0000
  Ge  Ge3       1.0  0.95900  0.07550  0.56800  1.0000
  Ge  Ge4       1.0  0.54100  0.43200  0.92500  1.0000
  K   K1        1.0  0.25000  0.90600  0.09370  1.0000
  K   K2        1.0  0.86600  0.63200  0.19000  1.0000
  K   K3        1.0  0.22400  0.24800  0.22500  1.0000
  K   K4        1.0  0.72400  0.22500  0.24800  1.0000
  K   K5        1.0  0.63400  0.81000  0.36800  1.0000
  K   K6        1.0  0.25000  0.59700  0.40300  1.0000
  K   K7        1.0  0.75000  0.40300  0.59700  1.0000
  K   K8        1.0  0.36600  0.19000  0.63200  1.0000
  K   K9        1.0  0.27600  0.77500  0.75200  1.0000
  K   K10       1.0  0.77600  0.75200  0.77500  1.0000
  K   K11       1.0  0.13400  0.36800  0.81000  1.0000
  K   K12       1.0  0.75000  0.09370  0.90600  1.0000
  Te  Te1       1.0  0.56300  0.80200  0.02120  1.0000
  Te  Te2       1.0  0.19000  0.56900  0.05310  1.0000
  Te  Te3       1.0  0.93700  0.97900  0.19800  1.0000
  Te  Te4       1.0  0.53800  0.47600  0.31100  1.0000
  Te  Te5       1.0  0.31000  0.94700  0.43100  1.0000
  Te  Te6       1.0  0.03790  0.31100  0.47600  1.0000
  Te  Te7       1.0  0.96200  0.68900  0.52400  1.0000
  Te  Te8       1.0  0.69000  0.05310  0.56900  1.0000
  Te  Te9       1.0  0.46200  0.52400  0.68900  1.0000
  Te  Te10      1.0  0.06280  0.02120  0.80200  1.0000
  Te  Te11      1.0  0.81000  0.43100  0.94700  1.0000
  Te  Te12      1.0  0.43700  0.19800  0.97900  1.0000
