data_image0
_chemical_formula_structural       Cr3Cs3F12
_chemical_formula_sum              "Cr3 Cs3 F12"
_cell_length_a       9.20671
_cell_length_b       9.20671
_cell_length_c       3.83737
_cell_angle_alpha    90
_cell_angle_beta     90
_cell_angle_gamma    120

_space_group_name_H-M_alt    "P 1"
_space_group_IT_number       1

loop_
  _space_group_symop_operation_xyz
  'x, y, z'

loop_
  _atom_site_type_symbol
  _atom_site_label
  _atom_site_symmetry_multiplicity
  _atom_site_fract_x
  _atom_site_fract_y
  _atom_site_fract_z
  _atom_site_occupancy
  Cr  Cr1       1.0  0.23300  0.00000  0.00000  1.0000
  Cr  Cr2       1.0  0.00000  0.23300  0.00000  1.0000
  Cr  Cr3       1.0  0.76700  0.76700  0.00000  1.0000
  Cs  Cs1       1.0  0.57400  0.00000  0.50000  1.0000
  Cs  Cs2       1.0  0.42600  0.42600  0.50000  1.0000
  Cs  Cs3       1.0  0.00000  0.57400  0.50000  1.0000
  F   F1        1.0  0.82300  0.00000  0.00000  1.0000
  F   F2        1.0  0.45700  0.17000  0.00000  1.0000
  F   F3        1.0  0.17700  0.17700  0.00000  1.0000
  F   F4        1.0  0.83000  0.28600  0.00000  1.0000
  F   F5        1.0  0.17000  0.45700  0.00000  1.0000
  F   F6        1.0  0.71400  0.54300  0.00000  1.0000
  F   F7        1.0  0.54300  0.71400  0.00000  1.0000
  F   F8        1.0  0.00000  0.82300  0.00000  1.0000
  F   F9        1.0  0.28600  0.83000  0.00000  1.0000
  F   F10       1.0  0.22100  0.00000  0.50000  1.0000
  F   F11       1.0  0.00000  0.22100  0.50000  1.0000
  F   F12       1.0  0.77900  0.77900  0.50000  1.0000
