data_image0
_chemical_formula_structural       S12Tl16
_chemical_formula_sum              "S12 Tl16"
_cell_length_a       8.07712
_cell_length_b       8.10091
_cell_length_c       13.1349
_cell_angle_alpha    90
_cell_angle_beta     90
_cell_angle_gamma    103.122

_space_group_name_H-M_alt    "P 1"
_space_group_IT_number       1

loop_
  _space_group_symop_operation_xyz
  'x, y, z'

loop_
  _atom_site_type_symbol
  _atom_site_label
  _atom_site_symmetry_multiplicity
  _atom_site_fract_x
  _atom_site_fract_y
  _atom_site_fract_z
  _atom_site_occupancy
  S   S1        1.0  0.53900  0.76000  0.03590  1.0000
  S   S2        1.0  0.07210  0.93200  0.15400  1.0000
  S   S3        1.0  0.74200  0.47400  0.24600  1.0000
  S   S4        1.0  0.24200  0.47400  0.25400  1.0000
  S   S5        1.0  0.57200  0.93200  0.34600  1.0000
  S   S6        1.0  0.03870  0.76000  0.46400  1.0000
  S   S7        1.0  0.96100  0.24000  0.53600  1.0000
  S   S8        1.0  0.42800  0.06760  0.65400  1.0000
  S   S9        1.0  0.75800  0.52600  0.74600  1.0000
  S   S10       1.0  0.25800  0.52600  0.75400  1.0000
  S   S11       1.0  0.92800  0.06760  0.84600  1.0000
  S   S12       1.0  0.46100  0.24000  0.96400  1.0000
  Tl  Tl1       1.0  0.22400  0.46400  0.00098  1.0000
  Tl  Tl2       1.0  0.78100  0.09460  0.04610  1.0000
  Tl  Tl3       1.0  0.41400  0.16000  0.19800  1.0000
  Tl  Tl4       1.0  0.53800  0.68100  0.22800  1.0000
  Tl  Tl5       1.0  0.03790  0.68100  0.27200  1.0000
  Tl  Tl6       1.0  0.91400  0.16000  0.30200  1.0000
  Tl  Tl7       1.0  0.28100  0.09460  0.45400  1.0000
  Tl  Tl8       1.0  0.72400  0.46400  0.49900  1.0000
  Tl  Tl9       1.0  0.27600  0.53600  0.50100  1.0000
  Tl  Tl10      1.0  0.71900  0.90500  0.54600  1.0000
  Tl  Tl11      1.0  0.08630  0.84000  0.69800  1.0000
  Tl  Tl12      1.0  0.96200  0.31900  0.72800  1.0000
  Tl  Tl13      1.0  0.46200  0.31900  0.77200  1.0000
  Tl  Tl14      1.0  0.58600  0.84000  0.80200  1.0000
  Tl  Tl15      1.0  0.21900  0.90500  0.95400  1.0000
  Tl  Tl16      1.0  0.77600  0.53600  0.99900  1.0000
