data_image0
_chemical_formula_structural       Ba6O18W4
_chemical_formula_sum              "Ba6 O18 W4"
_cell_length_a       7.46151
_cell_length_b       7.46151
_cell_length_c       7.46151
_cell_angle_alpha    85.4761
_cell_angle_beta     94.5239
_cell_angle_gamma    94.5239

_space_group_name_H-M_alt    "P 1"
_space_group_IT_number       1

loop_
  _space_group_symop_operation_xyz
  'x, y, z'

loop_
  _atom_site_type_symbol
  _atom_site_label
  _atom_site_symmetry_multiplicity
  _atom_site_fract_x
  _atom_site_fract_y
  _atom_site_fract_z
  _atom_site_occupancy
  Ba  Ba1       1.0  0.58000  0.75000  0.08010  1.0000
  Ba  Ba2       1.0  0.08010  0.58000  0.25000  1.0000
  Ba  Ba3       1.0  0.25000  0.08010  0.42000  1.0000
  Ba  Ba4       1.0  0.75000  0.92000  0.58000  1.0000
  Ba  Ba5       1.0  0.92000  0.42000  0.75000  1.0000
  Ba  Ba6       1.0  0.42000  0.25000  0.92000  1.0000
  O   O1        1.0  0.25100  0.91300  0.07520  1.0000
  O   O2        1.0  0.07520  0.25100  0.08710  1.0000
  O   O3        1.0  0.75000  0.39700  0.10300  1.0000
  O   O4        1.0  0.42500  0.41300  0.24900  1.0000
  O   O5        1.0  0.60300  0.10300  0.25000  1.0000
  O   O6        1.0  0.91300  0.92500  0.25100  1.0000
  O   O7        1.0  0.89700  0.25000  0.39700  1.0000
  O   O8        1.0  0.75100  0.57500  0.41300  1.0000
  O   O9        1.0  0.41300  0.75100  0.42500  1.0000
  O   O10       1.0  0.58700  0.24900  0.57500  1.0000
  O   O11       1.0  0.24900  0.42500  0.58700  1.0000
  O   O12       1.0  0.10300  0.75000  0.60300  1.0000
  O   O13       1.0  0.08710  0.07520  0.74900  1.0000
  O   O14       1.0  0.39700  0.89700  0.75000  1.0000
  O   O15       1.0  0.57500  0.58700  0.75100  1.0000
  O   O16       1.0  0.25000  0.60300  0.89700  1.0000
  O   O17       1.0  0.92500  0.74900  0.91300  1.0000
  O   O18       1.0  0.74900  0.08710  0.92500  1.0000
  W   W1        1.0  0.85600  0.14400  0.14400  1.0000
  W   W2        1.0  0.64400  0.35600  0.35600  1.0000
  W   W3        1.0  0.35600  0.64400  0.64400  1.0000
  W   W4        1.0  0.14400  0.85600  0.85600  1.0000
