data_image0
_chemical_formula_structural       Al2H2Sr
_chemical_formula_sum              "Al2 H2 Sr1"
_cell_length_a       4.51397
_cell_length_b       4.51387
_cell_length_c       4.65931
_cell_angle_alpha    90
_cell_angle_beta     89.9992
_cell_angle_gamma    119.999

_space_group_name_H-M_alt    "P 1"
_space_group_IT_number       1

loop_
  _space_group_symop_operation_xyz
  'x, y, z'

loop_
  _atom_site_type_symbol
  _atom_site_label
  _atom_site_symmetry_multiplicity
  _atom_site_fract_x
  _atom_site_fract_y
  _atom_site_fract_z
  _atom_site_occupancy
  Al  Al1       1.0  0.33300  0.66700  0.46300  1.0000
  Al  Al2       1.0  0.66700  0.33300  0.53700  1.0000
  H   H1        1.0  0.33300  0.66700  0.09450  1.0000
  H   H2        1.0  0.66700  0.33300  0.90500  1.0000
  Sr  Sr1       1.0  0.00000  0.00000  0.00000  1.0000
