data_image0
_chemical_formula_structural       Re12Sc8Si16
_chemical_formula_sum              "Re12 Sc8 Si16"
_cell_length_a       6.62787
_cell_length_b       6.62787
_cell_length_c       12.4339
_cell_angle_alpha    90
_cell_angle_beta     90
_cell_angle_gamma    90

_space_group_name_H-M_alt    "P 1"
_space_group_IT_number       1

loop_
  _space_group_symop_operation_xyz
  'x, y, z'

loop_
  _atom_site_type_symbol
  _atom_site_label
  _atom_site_symmetry_multiplicity
  _atom_site_fract_x
  _atom_site_fract_y
  _atom_site_fract_z
  _atom_site_occupancy
  Re  Re1       1.0  0.33100  0.33100  0.00000  1.0000
  Re  Re2       1.0  0.51900  0.68400  0.11800  1.0000
  Re  Re3       1.0  0.98100  0.18400  0.13200  1.0000
  Re  Re4       1.0  0.16900  0.83100  0.25000  1.0000
  Re  Re5       1.0  0.81600  0.01930  0.36800  1.0000
  Re  Re6       1.0  0.31600  0.48100  0.38200  1.0000
  Re  Re7       1.0  0.66900  0.66900  0.50000  1.0000
  Re  Re8       1.0  0.48100  0.31600  0.61800  1.0000
  Re  Re9       1.0  0.01930  0.81600  0.63200  1.0000
  Re  Re10      1.0  0.83100  0.16900  0.75000  1.0000
  Re  Re11      1.0  0.18400  0.98100  0.86800  1.0000
  Re  Re12      1.0  0.68400  0.51900  0.88200  1.0000
  Sc  Sc1       1.0  0.00569  0.65700  0.03070  1.0000
  Sc  Sc2       1.0  0.49400  0.15700  0.21900  1.0000
  Sc  Sc3       1.0  0.84300  0.50600  0.28100  1.0000
  Sc  Sc4       1.0  0.34300  0.99400  0.46900  1.0000
  Sc  Sc5       1.0  0.99400  0.34300  0.53100  1.0000
  Sc  Sc6       1.0  0.50600  0.84300  0.71900  1.0000
  Sc  Sc7       1.0  0.15700  0.49400  0.78100  1.0000
  Sc  Sc8       1.0  0.65700  0.00569  0.96900  1.0000
  Si  Si1       1.0  0.27800  0.97200  0.06290  1.0000
  Si  Si2       1.0  0.69400  0.37800  0.06930  1.0000
  Si  Si3       1.0  0.80600  0.87800  0.18100  1.0000
  Si  Si4       1.0  0.22200  0.47200  0.18700  1.0000
  Si  Si5       1.0  0.52800  0.77800  0.31300  1.0000
  Si  Si6       1.0  0.12200  0.19400  0.31900  1.0000
  Si  Si7       1.0  0.62200  0.30600  0.43100  1.0000
  Si  Si8       1.0  0.02770  0.72200  0.43700  1.0000
  Si  Si9       1.0  0.72200  0.02770  0.56300  1.0000
  Si  Si10      1.0  0.30600  0.62200  0.56900  1.0000
  Si  Si11      1.0  0.19400  0.12200  0.68100  1.0000
  Si  Si12      1.0  0.77800  0.52800  0.68700  1.0000
  Si  Si13      1.0  0.47200  0.22200  0.81300  1.0000
  Si  Si14      1.0  0.87800  0.80600  0.81900  1.0000
  Si  Si15      1.0  0.37800  0.69400  0.93100  1.0000
  Si  Si16      1.0  0.97200  0.27800  0.93700  1.0000
