data_image0
_chemical_formula_structural       F24W4
_chemical_formula_sum              "F24 W4"
_cell_length_a       8.77547
_cell_length_b       8.0013
_cell_length_c       4.63481
_cell_angle_alpha    90
_cell_angle_beta     90
_cell_angle_gamma    90

_space_group_name_H-M_alt    "P 1"
_space_group_IT_number       1

loop_
  _space_group_symop_operation_xyz
  'x, y, z'

loop_
  _atom_site_type_symbol
  _atom_site_label
  _atom_site_symmetry_multiplicity
  _atom_site_fract_x
  _atom_site_fract_y
  _atom_site_fract_z
  _atom_site_occupancy
  F   F1        1.0  0.75200  0.58700  0.08000  1.0000
  F   F2        1.0  0.75200  0.91300  0.08000  1.0000
  F   F3        1.0  0.75200  0.25000  0.09040  1.0000
  F   F4        1.0  0.99800  0.75000  0.23700  1.0000
  F   F5        1.0  0.50600  0.08690  0.24600  1.0000
  F   F6        1.0  0.50600  0.41300  0.24600  1.0000
  F   F7        1.0  0.00613  0.08690  0.25400  1.0000
  F   F8        1.0  0.00613  0.41300  0.25400  1.0000
  F   F9        1.0  0.49800  0.75000  0.26300  1.0000
  F   F10       1.0  0.25200  0.25000  0.41000  1.0000
  F   F11       1.0  0.25200  0.58700  0.42000  1.0000
  F   F12       1.0  0.25200  0.91300  0.42000  1.0000
  F   F13       1.0  0.74800  0.08650  0.58000  1.0000
  F   F14       1.0  0.74800  0.41300  0.58000  1.0000
  F   F15       1.0  0.74800  0.75000  0.59000  1.0000
  F   F16       1.0  0.50200  0.25000  0.73700  1.0000
  F   F17       1.0  0.99400  0.58700  0.74600  1.0000
  F   F18       1.0  0.99400  0.91300  0.74600  1.0000
  F   F19       1.0  0.49400  0.58700  0.75400  1.0000
  F   F20       1.0  0.49400  0.91300  0.75400  1.0000
  F   F21       1.0  0.00217  0.25000  0.76300  1.0000
  F   F22       1.0  0.24800  0.75000  0.91000  1.0000
  F   F23       1.0  0.24800  0.08650  0.92000  1.0000
  F   F24       1.0  0.24800  0.41300  0.92000  1.0000
  W   W1        1.0  0.12700  0.25000  0.08590  1.0000
  W   W2        1.0  0.62700  0.25000  0.41400  1.0000
  W   W3        1.0  0.37300  0.75000  0.58600  1.0000
  W   W4        1.0  0.87300  0.75000  0.91400  1.0000
