data_image0
_chemical_formula_structural       Cu9Fe9S16
_chemical_formula_sum              "Cu9 Fe9 S16"
_cell_length_a       10.486
_cell_length_b       10.486
_cell_length_c       5.30801
_cell_angle_alpha    90
_cell_angle_beta     90
_cell_angle_gamma    90

_space_group_name_H-M_alt    "P 1"
_space_group_IT_number       1

loop_
  _space_group_symop_operation_xyz
  'x, y, z'

loop_
  _atom_site_type_symbol
  _atom_site_label
  _atom_site_symmetry_multiplicity
  _atom_site_fract_x
  _atom_site_fract_y
  _atom_site_fract_z
  _atom_site_occupancy
  Cu  Cu1       1.0  0.25800  0.00000  0.00000  1.0000
  Cu  Cu2       1.0  0.74200  0.00000  0.00000  1.0000
  Cu  Cu3       1.0  0.00000  0.25800  0.00000  1.0000
  Cu  Cu4       1.0  0.00000  0.74200  0.00000  1.0000
  Cu  Cu5       1.0  0.25000  0.25000  0.48900  1.0000
  Cu  Cu6       1.0  0.75000  0.75000  0.48900  1.0000
  Cu  Cu7       1.0  0.50000  0.50000  0.50000  1.0000
  Cu  Cu8       1.0  0.75000  0.25000  0.51100  1.0000
  Cu  Cu9       1.0  0.25000  0.75000  0.51100  1.0000
  Fe  Fe1       1.0  0.00000  0.00000  0.00000  1.0000
  Fe  Fe2       1.0  0.50000  0.24800  0.00000  1.0000
  Fe  Fe3       1.0  0.24800  0.50000  0.00000  1.0000
  Fe  Fe4       1.0  0.50000  0.50000  0.00000  1.0000
  Fe  Fe5       1.0  0.75200  0.50000  0.00000  1.0000
  Fe  Fe6       1.0  0.50000  0.75200  0.00000  1.0000
  Fe  Fe7       1.0  0.00000  0.00000  0.50000  1.0000
  Fe  Fe8       1.0  0.50000  0.00000  0.50000  1.0000
  Fe  Fe9       1.0  0.00000  0.50000  0.50000  1.0000
  S   S1        1.0  0.62600  0.37400  0.23100  1.0000
  S   S2        1.0  0.37400  0.62600  0.23100  1.0000
  S   S3        1.0  0.37800  0.12600  0.25400  1.0000
  S   S4        1.0  0.12600  0.37800  0.25400  1.0000
  S   S5        1.0  0.87400  0.62200  0.25400  1.0000
  S   S6        1.0  0.62200  0.87400  0.25400  1.0000
  S   S7        1.0  0.87600  0.12400  0.25400  1.0000
  S   S8        1.0  0.12400  0.87600  0.25400  1.0000
  S   S9        1.0  0.12400  0.12400  0.74600  1.0000
  S   S10       1.0  0.87600  0.87600  0.74600  1.0000
  S   S11       1.0  0.62200  0.12600  0.74600  1.0000
  S   S12       1.0  0.87400  0.37800  0.74600  1.0000
  S   S13       1.0  0.12600  0.62200  0.74600  1.0000
  S   S14       1.0  0.37800  0.87400  0.74600  1.0000
  S   S15       1.0  0.37400  0.37400  0.76900  1.0000
  S   S16       1.0  0.62600  0.62600  0.76900  1.0000
