data_image0
_chemical_formula_structural       Ca2O4Si
_chemical_formula_sum              "Ca2 O4 Si1"
_cell_length_a       3.56216
_cell_length_b       3.56216
_cell_length_c       6.33506
_cell_angle_alpha    106.329
_cell_angle_beta     106.329
_cell_angle_gamma    90

_space_group_name_H-M_alt    "P 1"
_space_group_IT_number       1

loop_
  _space_group_symop_operation_xyz
  'x, y, z'

loop_
  _atom_site_type_symbol
  _atom_site_label
  _atom_site_symmetry_multiplicity
  _atom_site_fract_x
  _atom_site_fract_y
  _atom_site_fract_z
  _atom_site_occupancy
  Ca  Ca1       1.0  0.64700  0.64700  0.29400  1.0000
  Ca  Ca2       1.0  0.35300  0.35300  0.70600  1.0000
  O   O1        1.0  0.50000  0.00000  0.00000  1.0000
  O   O2        1.0  0.00000  0.50000  0.00000  1.0000
  O   O3        1.0  0.15600  0.15600  0.31300  1.0000
  O   O4        1.0  0.84400  0.84400  0.68700  1.0000
  Si  Si1       1.0  0.00000  0.00000  0.00000  1.0000
