data_image0
_chemical_formula_structural       K2O24P6Zr4
_chemical_formula_sum              "K2 O24 P6 Zr4"
_cell_length_a       8.74936
_cell_length_b       8.74936
_cell_length_c       9.45994
_cell_angle_alpha    117.545
_cell_angle_beta     117.545
_cell_angle_gamma    60

_space_group_name_H-M_alt    "P 1"
_space_group_IT_number       1

loop_
  _space_group_symop_operation_xyz
  'x, y, z'

loop_
  _atom_site_type_symbol
  _atom_site_label
  _atom_site_symmetry_multiplicity
  _atom_site_fract_x
  _atom_site_fract_y
  _atom_site_fract_z
  _atom_site_occupancy
  K   K1        1.0  0.00000  0.00000  0.00000  1.0000
  K   K2        1.0  0.50000  0.50000  0.50000  1.0000
  O   O1        1.0  0.86600  0.48600  0.09590  1.0000
  O   O2        1.0  0.74400  0.86600  0.09590  1.0000
  O   O3        1.0  0.48600  0.74400  0.09590  1.0000
  O   O4        1.0  0.57700  0.20700  0.21400  1.0000
  O   O5        1.0  0.43000  0.57700  0.21400  1.0000
  O   O6        1.0  0.20700  0.43000  0.21400  1.0000
  O   O7        1.0  0.92300  0.07000  0.28600  1.0000
  O   O8        1.0  0.29300  0.92300  0.28600  1.0000
  O   O9        1.0  0.07000  0.29300  0.28600  1.0000
  O   O10       1.0  0.75600  0.01440  0.40400  1.0000
  O   O11       1.0  0.63400  0.75600  0.40400  1.0000
  O   O12       1.0  0.01440  0.63400  0.40400  1.0000
  O   O13       1.0  0.98600  0.36600  0.59600  1.0000
  O   O14       1.0  0.36600  0.24400  0.59600  1.0000
  O   O15       1.0  0.24400  0.98600  0.59600  1.0000
  O   O16       1.0  0.93000  0.70700  0.71400  1.0000
  O   O17       1.0  0.70700  0.07690  0.71400  1.0000
  O   O18       1.0  0.07690  0.93000  0.71400  1.0000
  O   O19       1.0  0.79300  0.57000  0.78600  1.0000
  O   O20       1.0  0.57000  0.42300  0.78600  1.0000
  O   O21       1.0  0.42300  0.79300  0.78600  1.0000
  O   O22       1.0  0.51400  0.25600  0.90400  1.0000
  O   O23       1.0  0.25600  0.13400  0.90400  1.0000
  O   O24       1.0  0.13400  0.51400  0.90400  1.0000
  P   P1        1.0  0.75000  0.03760  0.25000  1.0000
  P   P2        1.0  0.46200  0.75000  0.25000  1.0000
  P   P3        1.0  0.03760  0.46200  0.25000  1.0000
  P   P4        1.0  0.96200  0.53800  0.75000  1.0000
  P   P5        1.0  0.53800  0.25000  0.75000  1.0000
  P   P6        1.0  0.25000  0.96200  0.75000  1.0000
  Zr  Zr1       1.0  0.35100  0.35100  0.05190  1.0000
  Zr  Zr2       1.0  0.14900  0.14900  0.44800  1.0000
  Zr  Zr3       1.0  0.85100  0.85100  0.55200  1.0000
  Zr  Zr4       1.0  0.64900  0.64900  0.94800  1.0000
