data_image0
_chemical_formula_structural       Fe6Na14O16
_chemical_formula_sum              "Fe6 Na14 O16"
_cell_length_a       11.3367
_cell_length_b       8.28068
_cell_length_c       5.89908
_cell_angle_alpha    109.423
_cell_angle_beta     87.4669
_cell_angle_gamma    111.682

_space_group_name_H-M_alt    "P 1"
_space_group_IT_number       1

loop_
  _space_group_symop_operation_xyz
  'x, y, z'

loop_
  _atom_site_type_symbol
  _atom_site_label
  _atom_site_symmetry_multiplicity
  _atom_site_fract_x
  _atom_site_fract_y
  _atom_site_fract_z
  _atom_site_occupancy
  Fe  Fe1       1.0  0.63700  0.32500  0.04570  1.0000
  Fe  Fe2       1.0  0.15400  0.31000  0.05530  1.0000
  Fe  Fe3       1.0  0.14800  0.88700  0.18600  1.0000
  Fe  Fe4       1.0  0.85200  0.11300  0.81400  1.0000
  Fe  Fe5       1.0  0.84600  0.69000  0.94500  1.0000
  Fe  Fe6       1.0  0.36300  0.67500  0.95400  1.0000
  Na  Na1       1.0  0.66700  0.88900  0.12400  1.0000
  Na  Na2       1.0  0.94900  0.49500  0.27000  1.0000
  Na  Na3       1.0  0.47400  0.54100  0.27400  1.0000
  Na  Na4       1.0  0.95500  0.09140  0.31000  1.0000
  Na  Na5       1.0  0.43300  0.07570  0.37500  1.0000
  Na  Na6       1.0  0.77500  0.71200  0.46100  1.0000
  Na  Na7       1.0  0.28200  0.72300  0.49900  1.0000
  Na  Na8       1.0  0.71800  0.27700  0.50100  1.0000
  Na  Na9       1.0  0.22500  0.28800  0.53900  1.0000
  Na  Na10      1.0  0.56700  0.92400  0.62500  1.0000
  Na  Na11      1.0  0.04450  0.90900  0.69000  1.0000
  Na  Na12      1.0  0.52600  0.45900  0.72600  1.0000
  Na  Na13      1.0  0.05130  0.50500  0.73000  1.0000
  Na  Na14      1.0  0.33300  0.11100  0.87600  1.0000
  O   O1        1.0  0.68600  0.58300  0.05380  1.0000
  O   O2        1.0  0.77400  0.24100  0.06610  1.0000
  O   O3        1.0  0.15600  0.09210  0.09780  1.0000
  O   O4        1.0  0.96900  0.76400  0.21600  1.0000
  O   O5        1.0  0.46600  0.81200  0.23800  1.0000
  O   O6        1.0  0.55800  0.34100  0.32800  1.0000
  O   O7        1.0  0.11700  0.43300  0.35200  1.0000
  O   O8        1.0  0.22800  0.97800  0.49100  1.0000
  O   O9        1.0  0.77200  0.02180  0.50900  1.0000
  O   O10       1.0  0.88300  0.56700  0.64800  1.0000
  O   O11       1.0  0.44200  0.65900  0.67200  1.0000
  O   O12       1.0  0.53400  0.18800  0.76200  1.0000
  O   O13       1.0  0.03120  0.23600  0.78400  1.0000
  O   O14       1.0  0.84400  0.90800  0.90200  1.0000
  O   O15       1.0  0.22600  0.75900  0.93400  1.0000
  O   O16       1.0  0.31400  0.41700  0.94600  1.0000
