data_image0
_chemical_formula_structural       O18V10
_chemical_formula_sum              "O18 V10"
_cell_length_a       5.51849
_cell_length_b       7.01699
_cell_length_c       8.77674
_cell_angle_alpha    97.1476
_cell_angle_beta     111.843
_cell_angle_gamma    108.397

_space_group_name_H-M_alt    "P 1"
_space_group_IT_number       1

loop_
  _space_group_symop_operation_xyz
  'x, y, z'

loop_
  _atom_site_type_symbol
  _atom_site_label
  _atom_site_symmetry_multiplicity
  _atom_site_fract_x
  _atom_site_fract_y
  _atom_site_fract_z
  _atom_site_occupancy
  O   O1        1.0  0.64700  0.85100  0.02190  1.0000
  O   O2        1.0  0.17300  0.81000  0.08480  1.0000
  O   O3        1.0  0.40100  0.54100  0.13900  1.0000
  O   O4        1.0  0.92700  0.49100  0.20400  1.0000
  O   O5        1.0  0.21500  0.19100  0.24400  1.0000
  O   O6        1.0  0.73300  0.14800  0.32700  1.0000
  O   O7        1.0  0.94700  0.86600  0.36700  1.0000
  O   O8        1.0  0.48400  0.79900  0.41900  1.0000
  O   O9        1.0  0.77700  0.53600  0.46400  1.0000
  O   O10       1.0  0.22300  0.46400  0.53600  1.0000
  O   O11       1.0  0.51600  0.20100  0.58100  1.0000
  O   O12       1.0  0.05290  0.13400  0.63300  1.0000
  O   O13       1.0  0.26700  0.85200  0.67300  1.0000
  O   O14       1.0  0.78500  0.80900  0.75600  1.0000
  O   O15       1.0  0.07250  0.50900  0.79600  1.0000
  O   O16       1.0  0.59900  0.45900  0.86100  1.0000
  O   O17       1.0  0.82700  0.19000  0.91500  1.0000
  O   O18       1.0  0.35300  0.14900  0.97800  1.0000
  V   V1        1.0  0.00000  0.00000  0.00000  1.0000
  V   V2        1.0  0.00000  0.50000  0.00000  1.0000
  V   V3        1.0  0.55200  0.83700  0.19800  1.0000
  V   V4        1.0  0.57100  0.35200  0.21200  1.0000
  V   V5        1.0  0.13800  0.17600  0.41800  1.0000
  V   V6        1.0  0.15200  0.68000  0.42300  1.0000
  V   V7        1.0  0.84800  0.32000  0.57700  1.0000
  V   V8        1.0  0.86200  0.82400  0.58200  1.0000
  V   V9        1.0  0.42900  0.64800  0.78800  1.0000
  V   V10       1.0  0.44800  0.16300  0.80200  1.0000
