data_image0
_chemical_formula_structural       Ag16O8S4Si2
_chemical_formula_sum              "Ag16 O8 S4 Si2"
_cell_length_a       11.0424
_cell_length_b       7.37549
_cell_length_c       7.37549
_cell_angle_alpha    90
_cell_angle_beta     109.509
_cell_angle_gamma    109.509

_space_group_name_H-M_alt    "P 1"
_space_group_IT_number       1

loop_
  _space_group_symop_operation_xyz
  'x, y, z'

loop_
  _atom_site_type_symbol
  _atom_site_label
  _atom_site_symmetry_multiplicity
  _atom_site_fract_x
  _atom_site_fract_y
  _atom_site_fract_z
  _atom_site_occupancy
  Ag  Ag1       1.0  0.55300  0.77700  0.02650  1.0000
  Ag  Ag2       1.0  0.25000  0.32500  0.17500  1.0000
  Ag  Ag3       1.0  0.25000  0.92500  0.17500  1.0000
  Ag  Ag4       1.0  0.04980  0.02490  0.27500  1.0000
  Ag  Ag5       1.0  0.05310  0.52700  0.27700  1.0000
  Ag  Ag6       1.0  0.75000  0.07510  0.42500  1.0000
  Ag  Ag7       1.0  0.75000  0.67500  0.42500  1.0000
  Ag  Ag8       1.0  0.45000  0.22500  0.47500  1.0000
  Ag  Ag9       1.0  0.55000  0.77500  0.52500  1.0000
  Ag  Ag10      1.0  0.25000  0.32500  0.57500  1.0000
  Ag  Ag11      1.0  0.25000  0.92500  0.57500  1.0000
  Ag  Ag12      1.0  0.94700  0.47300  0.72300  1.0000
  Ag  Ag13      1.0  0.95000  0.97500  0.72500  1.0000
  Ag  Ag14      1.0  0.75000  0.07510  0.82500  1.0000
  Ag  Ag15      1.0  0.75000  0.67500  0.82500  1.0000
  Ag  Ag16      1.0  0.44700  0.22300  0.97300  1.0000
  O   O1        1.0  0.36100  0.68000  0.10000  1.0000
  O   O2        1.0  0.86100  0.26000  0.18000  1.0000
  O   O3        1.0  0.86100  0.60000  0.18000  1.0000
  O   O4        1.0  0.63900  0.32000  0.24000  1.0000
  O   O5        1.0  0.36100  0.68000  0.76000  1.0000
  O   O6        1.0  0.13900  0.40000  0.82000  1.0000
  O   O7        1.0  0.13900  0.74000  0.82000  1.0000
  O   O8        1.0  0.63900  0.32000  0.90000  1.0000
  S   S1        1.0  0.79300  0.89700  0.14700  1.0000
  S   S2        1.0  0.29300  0.64700  0.39700  1.0000
  S   S3        1.0  0.70700  0.35300  0.60300  1.0000
  S   S4        1.0  0.20700  0.10300  0.85300  1.0000
  Si  Si1       1.0  0.75000  0.37500  0.12500  1.0000
  Si  Si2       1.0  0.25000  0.62500  0.87500  1.0000
