data_image0
_chemical_formula_structural       F25KTh6
_chemical_formula_sum              "F25 K1 Th6"
_cell_length_a       8.158
_cell_length_b       8.158
_cell_length_c       9.55271
_cell_angle_alpha    115.277
_cell_angle_beta     64.7227
_cell_angle_gamma    120

_space_group_name_H-M_alt    "P 1"
_space_group_IT_number       1

loop_
  _space_group_symop_operation_xyz
  'x, y, z'

loop_
  _atom_site_type_symbol
  _atom_site_label
  _atom_site_symmetry_multiplicity
  _atom_site_fract_x
  _atom_site_fract_y
  _atom_site_fract_z
  _atom_site_occupancy
  F   F1        1.0  0.50000  0.00000  0.00000  1.0000
  F   F2        1.0  0.50000  0.50000  0.00000  1.0000
  F   F3        1.0  0.00000  0.50000  0.00000  1.0000
  F   F4        1.0  0.12700  0.43900  0.18600  1.0000
  F   F5        1.0  0.12600  0.87300  0.18600  1.0000
  F   F6        1.0  0.56100  0.87400  0.18600  1.0000
  F   F7        1.0  0.75200  0.24800  0.19000  1.0000
  F   F8        1.0  0.30600  0.24800  0.19000  1.0000
  F   F9        1.0  0.75200  0.69400  0.19000  1.0000
  F   F10       1.0  0.54900  0.45100  0.35300  1.0000
  F   F11       1.0  0.20900  0.79100  0.37200  1.0000
  F   F12       1.0  0.50000  0.16900  0.50000  1.0000
  F   F13       1.0  0.16900  0.50000  0.50000  1.0000
  F   F14       1.0  0.83100  0.83100  0.50000  1.0000
  F   F15       1.0  0.16900  0.16900  0.50000  1.0000
  F   F16       1.0  0.83100  0.50000  0.50000  1.0000
  F   F17       1.0  0.50000  0.83100  0.50000  1.0000
  F   F18       1.0  0.79100  0.20900  0.62800  1.0000
  F   F19       1.0  0.45100  0.54900  0.64700  1.0000
  F   F20       1.0  0.24800  0.30600  0.81000  1.0000
  F   F21       1.0  0.69400  0.75200  0.81000  1.0000
  F   F22       1.0  0.24800  0.75200  0.81000  1.0000
  F   F23       1.0  0.43900  0.12600  0.81400  1.0000
  F   F24       1.0  0.87400  0.12700  0.81400  1.0000
  F   F25       1.0  0.87300  0.56100  0.81400  1.0000
  K   K1        1.0  0.00000  0.00000  0.00000  1.0000
  Th  Th1       1.0  0.40800  0.08980  0.27400  1.0000
  Th  Th2       1.0  0.40800  0.59200  0.27400  1.0000
  Th  Th3       1.0  0.91000  0.59200  0.27400  1.0000
  Th  Th4       1.0  0.08980  0.40800  0.72600  1.0000
  Th  Th5       1.0  0.59200  0.40800  0.72600  1.0000
  Th  Th6       1.0  0.59200  0.91000  0.72600  1.0000
