data_image0
_chemical_formula_structural       Co6Sc4Si2
_chemical_formula_sum              "Co6 Sc4 Si2"
_cell_length_a       4.99423
_cell_length_b       4.99413
_cell_length_c       7.49822
_cell_angle_alpha    90
_cell_angle_beta     90
_cell_angle_gamma    120.001

_space_group_name_H-M_alt    "P 1"
_space_group_IT_number       1

loop_
  _space_group_symop_operation_xyz
  'x, y, z'

loop_
  _atom_site_type_symbol
  _atom_site_label
  _atom_site_symmetry_multiplicity
  _atom_site_fract_x
  _atom_site_fract_y
  _atom_site_fract_z
  _atom_site_occupancy
  Co  Co1       1.0  0.17100  0.34200  0.25000  1.0000
  Co  Co2       1.0  0.17100  0.82900  0.25000  1.0000
  Co  Co3       1.0  0.65800  0.82900  0.25000  1.0000
  Co  Co4       1.0  0.34200  0.17100  0.75000  1.0000
  Co  Co5       1.0  0.82900  0.17100  0.75000  1.0000
  Co  Co6       1.0  0.82900  0.65800  0.75000  1.0000
  Sc  Sc1       1.0  0.66700  0.33300  0.06100  1.0000
  Sc  Sc2       1.0  0.66700  0.33300  0.43900  1.0000
  Sc  Sc3       1.0  0.33300  0.66700  0.56100  1.0000
  Sc  Sc4       1.0  0.33300  0.66700  0.93900  1.0000
  Si  Si1       1.0  0.00000  0.00000  0.00000  1.0000
  Si  Si2       1.0  0.00000  0.00000  0.50000  1.0000
