data_image0
_chemical_formula_structural       C8N8S8Se4
_chemical_formula_sum              "C8 N8 S8 Se4"
_cell_length_a       9.77937
_cell_length_b       12.9165
_cell_length_c       4.34977
_cell_angle_alpha    90
_cell_angle_beta     90
_cell_angle_gamma    90

_space_group_name_H-M_alt    "P 1"
_space_group_IT_number       1

loop_
  _space_group_symop_operation_xyz
  'x, y, z'

loop_
  _atom_site_type_symbol
  _atom_site_label
  _atom_site_symmetry_multiplicity
  _atom_site_fract_x
  _atom_site_fract_y
  _atom_site_fract_z
  _atom_site_occupancy
  C   C1        1.0  0.80300  0.10900  0.00600  1.0000
  C   C2        1.0  0.80300  0.39100  0.00600  1.0000
  C   C3        1.0  0.30300  0.10900  0.49400  1.0000
  C   C4        1.0  0.30300  0.39100  0.49400  1.0000
  C   C5        1.0  0.69700  0.60900  0.50600  1.0000
  C   C6        1.0  0.69700  0.89100  0.50600  1.0000
  C   C7        1.0  0.19700  0.60900  0.99400  1.0000
  C   C8        1.0  0.19700  0.89100  0.99400  1.0000
  N   N1        1.0  0.29700  0.60300  0.14300  1.0000
  N   N2        1.0  0.29700  0.89700  0.14300  1.0000
  N   N3        1.0  0.79700  0.60300  0.35700  1.0000
  N   N4        1.0  0.79700  0.89700  0.35700  1.0000
  N   N5        1.0  0.20300  0.10300  0.64300  1.0000
  N   N6        1.0  0.20300  0.39700  0.64300  1.0000
  N   N7        1.0  0.70300  0.10300  0.85700  1.0000
  N   N8        1.0  0.70300  0.39700  0.85700  1.0000
  S   S1        1.0  0.94400  0.11600  0.22500  1.0000
  S   S2        1.0  0.94400  0.38400  0.22500  1.0000
  S   S3        1.0  0.44400  0.11600  0.27500  1.0000
  S   S4        1.0  0.44400  0.38400  0.27500  1.0000
  S   S5        1.0  0.55600  0.61600  0.72500  1.0000
  S   S6        1.0  0.55600  0.88400  0.72500  1.0000
  S   S7        1.0  0.05640  0.61600  0.77500  1.0000
  S   S8        1.0  0.05640  0.88400  0.77500  1.0000
  Se  Se1       1.0  0.95300  0.75000  0.01320  1.0000
  Se  Se2       1.0  0.45300  0.75000  0.48700  1.0000
  Se  Se3       1.0  0.54700  0.25000  0.51300  1.0000
  Se  Se4       1.0  0.04680  0.25000  0.98700  1.0000
