data_image0
_chemical_formula_structural       Al4O16Rb4Si4
_chemical_formula_sum              "Al4 O16 Rb4 Si4"
_cell_length_a       9.16499
_cell_length_b       5.31183
_cell_length_c       8.6677
_cell_angle_alpha    90
_cell_angle_beta     90
_cell_angle_gamma    90

_space_group_name_H-M_alt    "P 1"
_space_group_IT_number       1

loop_
  _space_group_symop_operation_xyz
  'x, y, z'

loop_
  _atom_site_type_symbol
  _atom_site_label
  _atom_site_symmetry_multiplicity
  _atom_site_fract_x
  _atom_site_fract_y
  _atom_site_fract_z
  _atom_site_occupancy
  Al  Al1       1.0  0.91800  0.48100  0.19000  1.0000
  Al  Al2       1.0  0.41800  0.98100  0.31000  1.0000
  Al  Al3       1.0  0.58200  0.48100  0.69000  1.0000
  Al  Al4       1.0  0.08200  0.98100  0.81000  1.0000
  O   O1        1.0  0.08180  0.98700  0.00998  1.0000
  O   O2        1.0  0.54400  0.76100  0.23600  1.0000
  O   O3        1.0  0.46300  0.27900  0.23700  1.0000
  O   O4        1.0  0.74400  0.39000  0.24700  1.0000
  O   O5        1.0  0.24400  0.89000  0.25300  1.0000
  O   O6        1.0  0.96300  0.77900  0.26300  1.0000
  O   O7        1.0  0.04360  0.26100  0.26400  1.0000
  O   O8        1.0  0.58200  0.48700  0.49000  1.0000
  O   O9        1.0  0.41800  0.98700  0.51000  1.0000
  O   O10       1.0  0.95600  0.76100  0.73600  1.0000
  O   O11       1.0  0.03710  0.27900  0.73700  1.0000
  O   O12       1.0  0.75600  0.39000  0.74700  1.0000
  O   O13       1.0  0.25600  0.89000  0.75300  1.0000
  O   O14       1.0  0.53700  0.77900  0.76300  1.0000
  O   O15       1.0  0.45600  0.26100  0.76400  1.0000
  O   O16       1.0  0.91800  0.48700  0.99000  1.0000
  Rb  Rb1       1.0  0.29300  0.50400  0.00102  1.0000
  Rb  Rb2       1.0  0.79300  0.00373  0.49900  1.0000
  Rb  Rb3       1.0  0.20700  0.50400  0.50100  1.0000
  Rb  Rb4       1.0  0.70700  0.00373  0.99900  1.0000
  Si  Si1       1.0  0.08310  0.98100  0.19700  1.0000
  Si  Si2       1.0  0.58300  0.48100  0.30300  1.0000
  Si  Si3       1.0  0.41700  0.98100  0.69700  1.0000
  Si  Si4       1.0  0.91700  0.48100  0.80300  1.0000
