data_image0
_chemical_formula_structural       Ca4H8O18P4
_chemical_formula_sum              "Ca4 H8 O18 P4"
_cell_length_a       7.26476
_cell_length_b       8.08601
_cell_length_c       6.63556
_cell_angle_alpha    103.058
_cell_angle_beta     72.3355
_cell_angle_gamma    95.0849

_space_group_name_H-M_alt    "P 1"
_space_group_IT_number       1

loop_
  _space_group_symop_operation_xyz
  'x, y, z'

loop_
  _atom_site_type_symbol
  _atom_site_label
  _atom_site_symmetry_multiplicity
  _atom_site_fract_x
  _atom_site_fract_y
  _atom_site_fract_z
  _atom_site_occupancy
  Ca  Ca1       1.0  0.85000  0.75600  0.26600  1.0000
  Ca  Ca2       1.0  0.25200  0.50900  0.30800  1.0000
  Ca  Ca3       1.0  0.74800  0.49100  0.69200  1.0000
  Ca  Ca4       1.0  0.15000  0.24400  0.73400  1.0000
  H   H1        1.0  0.51600  0.74400  0.09490  1.0000
  H   H2        1.0  0.41700  0.13300  0.30500  1.0000
  H   H3        1.0  0.44600  0.86100  0.32500  1.0000
  H   H4        1.0  0.22900  0.01590  0.33200  1.0000
  H   H5        1.0  0.77100  0.98400  0.66800  1.0000
  H   H6        1.0  0.55400  0.13900  0.67500  1.0000
  H   H7        1.0  0.58300  0.86700  0.69500  1.0000
  H   H8        1.0  0.48400  0.25600  0.90500  1.0000
  O   O1        1.0  0.16800  0.63300  0.05870  1.0000
  O   O2        1.0  0.14000  0.26400  0.08590  1.0000
  O   O3        1.0  0.49900  0.30200  0.17400  1.0000
  O   O4        1.0  0.78400  0.18100  0.22300  1.0000
  O   O5        1.0  0.03270  0.99900  0.24800  1.0000
  O   O6        1.0  0.50100  0.74600  0.25000  1.0000
  O   O7        1.0  0.73100  0.49500  0.34700  1.0000
  O   O8        1.0  0.33800  0.05430  0.39600  1.0000
  O   O9        1.0  0.99200  0.29900  0.48000  1.0000
  O   O10       1.0  0.00849  0.70100  0.52000  1.0000
  O   O11       1.0  0.66200  0.94600  0.60400  1.0000
  O   O12       1.0  0.26900  0.50500  0.65300  1.0000
  O   O13       1.0  0.49900  0.25400  0.75000  1.0000
  O   O14       1.0  0.96700  0.00082  0.75200  1.0000
  O   O15       1.0  0.21600  0.81900  0.77700  1.0000
  O   O16       1.0  0.50100  0.69800  0.82600  1.0000
  O   O17       1.0  0.86000  0.73600  0.91400  1.0000
  O   O18       1.0  0.83200  0.36700  0.94100  1.0000
  P   P1        1.0  0.71000  0.34600  0.16600  1.0000
  P   P2        1.0  0.99700  0.18300  0.25800  1.0000
  P   P3        1.0  0.00330  0.81700  0.74200  1.0000
  P   P4        1.0  0.29000  0.65400  0.83400  1.0000
