data_image0
_chemical_formula_structural       C8N8Se12
_chemical_formula_sum              "C8 N8 Se12"
_cell_length_a       10.0608
_cell_length_b       13.4023
_cell_length_c       4.4765
_cell_angle_alpha    90
_cell_angle_beta     90
_cell_angle_gamma    90

_space_group_name_H-M_alt    "P 1"
_space_group_IT_number       1

loop_
  _space_group_symop_operation_xyz
  'x, y, z'

loop_
  _atom_site_type_symbol
  _atom_site_label
  _atom_site_symmetry_multiplicity
  _atom_site_fract_x
  _atom_site_fract_y
  _atom_site_fract_z
  _atom_site_occupancy
  C   C1        1.0  0.79200  0.10500  0.01890  1.0000
  C   C2        1.0  0.79200  0.39500  0.01890  1.0000
  C   C3        1.0  0.29200  0.10500  0.48100  1.0000
  C   C4        1.0  0.29200  0.39500  0.48100  1.0000
  C   C5        1.0  0.70800  0.60500  0.51900  1.0000
  C   C6        1.0  0.70800  0.89500  0.51900  1.0000
  C   C7        1.0  0.20800  0.60500  0.98100  1.0000
  C   C8        1.0  0.20800  0.89500  0.98100  1.0000
  N   N1        1.0  0.30700  0.59900  0.12100  1.0000
  N   N2        1.0  0.30700  0.90100  0.12100  1.0000
  N   N3        1.0  0.80700  0.59900  0.37900  1.0000
  N   N4        1.0  0.80700  0.90100  0.37900  1.0000
  N   N5        1.0  0.19300  0.09910  0.62100  1.0000
  N   N6        1.0  0.19300  0.40100  0.62100  1.0000
  N   N7        1.0  0.69300  0.09910  0.87900  1.0000
  N   N8        1.0  0.69300  0.40100  0.87900  1.0000
  Se  Se1       1.0  0.96000  0.75000  0.00286  1.0000
  Se  Se2       1.0  0.94400  0.11200  0.24900  1.0000
  Se  Se3       1.0  0.94400  0.38800  0.24900  1.0000
  Se  Se4       1.0  0.44400  0.11200  0.25100  1.0000
  Se  Se5       1.0  0.44400  0.38800  0.25100  1.0000
  Se  Se6       1.0  0.46000  0.75000  0.49700  1.0000
  Se  Se7       1.0  0.54000  0.25000  0.50300  1.0000
  Se  Se8       1.0  0.55600  0.61200  0.74900  1.0000
  Se  Se9       1.0  0.55600  0.88800  0.74900  1.0000
  Se  Se10      1.0  0.05590  0.61200  0.75100  1.0000
  Se  Se11      1.0  0.05590  0.88800  0.75100  1.0000
  Se  Se12      1.0  0.03960  0.25000  0.99700  1.0000
