data_image0
_chemical_formula_structural       Ba2Ge6O18Sn2
_chemical_formula_sum              "Ba2 Ge6 O18 Sn2"
_cell_length_a       6.90714
_cell_length_b       6.90712
_cell_length_c       10.2906
_cell_angle_alpha    90
_cell_angle_beta     90
_cell_angle_gamma    120

_space_group_name_H-M_alt    "P 1"
_space_group_IT_number       1

loop_
  _space_group_symop_operation_xyz
  'x, y, z'

loop_
  _atom_site_type_symbol
  _atom_site_label
  _atom_site_symmetry_multiplicity
  _atom_site_fract_x
  _atom_site_fract_y
  _atom_site_fract_z
  _atom_site_occupancy
  Ba  Ba1       1.0  0.66700  0.33300  0.00000  1.0000
  Ba  Ba2       1.0  0.66700  0.33300  0.50000  1.0000
  Ge  Ge1       1.0  0.07130  0.29400  0.25000  1.0000
  Ge  Ge2       1.0  0.70600  0.77700  0.25000  1.0000
  Ge  Ge3       1.0  0.22300  0.92900  0.25000  1.0000
  Ge  Ge4       1.0  0.22300  0.29400  0.75000  1.0000
  Ge  Ge5       1.0  0.07130  0.77700  0.75000  1.0000
  Ge  Ge6       1.0  0.70600  0.92900  0.75000  1.0000
  O   O1        1.0  0.56900  0.64100  0.10800  1.0000
  O   O2        1.0  0.07120  0.43100  0.10800  1.0000
  O   O3        1.0  0.35900  0.92900  0.10800  1.0000
  O   O4        1.0  0.79100  0.06490  0.25000  1.0000
  O   O5        1.0  0.27400  0.20900  0.25000  1.0000
  O   O6        1.0  0.93500  0.72600  0.25000  1.0000
  O   O7        1.0  0.35900  0.92900  0.39200  1.0000
  O   O8        1.0  0.07120  0.43100  0.39200  1.0000
  O   O9        1.0  0.56900  0.64100  0.39200  1.0000
  O   O10       1.0  0.07120  0.64100  0.60800  1.0000
  O   O11       1.0  0.35900  0.43100  0.60800  1.0000
  O   O12       1.0  0.56900  0.92900  0.60800  1.0000
  O   O13       1.0  0.27400  0.06490  0.75000  1.0000
  O   O14       1.0  0.93500  0.20900  0.75000  1.0000
  O   O15       1.0  0.79100  0.72600  0.75000  1.0000
  O   O16       1.0  0.56900  0.92900  0.89200  1.0000
  O   O17       1.0  0.35900  0.43100  0.89200  1.0000
  O   O18       1.0  0.07120  0.64100  0.89200  1.0000
  Sn  Sn1       1.0  0.33300  0.66700  0.00000  1.0000
  Sn  Sn2       1.0  0.33300  0.66700  0.50000  1.0000
