data_image0
_chemical_formula_structural       Ba4Hg4S16Sn4
_chemical_formula_sum              "Ba4 Hg4 S16 Sn4"
_cell_length_a       10.9783
_cell_length_b       11.0459
_cell_length_c       6.73136
_cell_angle_alpha    90
_cell_angle_beta     90
_cell_angle_gamma    90

_space_group_name_H-M_alt    "P 1"
_space_group_IT_number       1

loop_
  _space_group_symop_operation_xyz
  'x, y, z'

loop_
  _atom_site_type_symbol
  _atom_site_label
  _atom_site_symmetry_multiplicity
  _atom_site_fract_x
  _atom_site_fract_y
  _atom_site_fract_z
  _atom_site_occupancy
  Ba  Ba1       1.0  0.00000  0.50000  0.04700  1.0000
  Ba  Ba2       1.0  0.00000  0.00000  0.05140  1.0000
  Ba  Ba3       1.0  0.50000  0.00000  0.54700  1.0000
  Ba  Ba4       1.0  0.50000  0.50000  0.55100  1.0000
  Hg  Hg1       1.0  0.17100  0.25100  0.49900  1.0000
  Hg  Hg2       1.0  0.82900  0.74900  0.49900  1.0000
  Hg  Hg3       1.0  0.67100  0.24900  0.99900  1.0000
  Hg  Hg4       1.0  0.32900  0.75100  0.99900  1.0000
  S   S1        1.0  0.26600  0.41800  0.26500  1.0000
  S   S2        1.0  0.73400  0.58200  0.26500  1.0000
  S   S3        1.0  0.26500  0.07960  0.26600  1.0000
  S   S4        1.0  0.73500  0.92000  0.26600  1.0000
  S   S5        1.0  0.94800  0.25200  0.29800  1.0000
  S   S6        1.0  0.05230  0.74800  0.29800  1.0000
  S   S7        1.0  0.59700  0.25100  0.34500  1.0000
  S   S8        1.0  0.40300  0.74900  0.34500  1.0000
  S   S9        1.0  0.76600  0.08180  0.76500  1.0000
  S   S10       1.0  0.23400  0.91800  0.76500  1.0000
  S   S11       1.0  0.76500  0.42000  0.76600  1.0000
  S   S12       1.0  0.23500  0.58000  0.76600  1.0000
  S   S13       1.0  0.44800  0.24800  0.79800  1.0000
  S   S14       1.0  0.55200  0.75200  0.79800  1.0000
  S   S15       1.0  0.09700  0.24900  0.84500  1.0000
  S   S16       1.0  0.90300  0.75100  0.84500  1.0000
  Sn  Sn1       1.0  0.28800  0.24800  0.03720  1.0000
  Sn  Sn2       1.0  0.71200  0.75200  0.03720  1.0000
  Sn  Sn3       1.0  0.78800  0.25200  0.53700  1.0000
  Sn  Sn4       1.0  0.21200  0.74800  0.53700  1.0000
