data_image0
_chemical_formula_structural       Ca4O28V12
_chemical_formula_sum              "Ca4 O28 V12"
_cell_length_a       10.2841
_cell_length_b       5.29313
_cell_length_c       10.4044
_cell_angle_alpha    90
_cell_angle_beta     90
_cell_angle_gamma    90

_space_group_name_H-M_alt    "P 1"
_space_group_IT_number       1

loop_
  _space_group_symop_operation_xyz
  'x, y, z'

loop_
  _atom_site_type_symbol
  _atom_site_label
  _atom_site_symmetry_multiplicity
  _atom_site_fract_x
  _atom_site_fract_y
  _atom_site_fract_z
  _atom_site_occupancy
  Ca  Ca1       1.0  0.41500  0.19700  0.25000  1.0000
  Ca  Ca2       1.0  0.91500  0.30300  0.25000  1.0000
  Ca  Ca3       1.0  0.08550  0.69700  0.75000  1.0000
  Ca  Ca4       1.0  0.58500  0.80300  0.75000  1.0000
  O   O1        1.0  0.02790  0.23500  0.06300  1.0000
  O   O2        1.0  0.52800  0.26500  0.06300  1.0000
  O   O3        1.0  0.77000  0.55000  0.12100  1.0000
  O   O4        1.0  0.27000  0.95000  0.12100  1.0000
  O   O5        1.0  0.77500  0.02790  0.12100  1.0000
  O   O6        1.0  0.27500  0.47200  0.12100  1.0000
  O   O7        1.0  0.04090  0.69500  0.25000  1.0000
  O   O8        1.0  0.54100  0.80500  0.25000  1.0000
  O   O9        1.0  0.77500  0.02790  0.37900  1.0000
  O   O10       1.0  0.27500  0.47200  0.37900  1.0000
  O   O11       1.0  0.77000  0.55000  0.37900  1.0000
  O   O12       1.0  0.27000  0.95000  0.37900  1.0000
  O   O13       1.0  0.02790  0.23500  0.43700  1.0000
  O   O14       1.0  0.52800  0.26500  0.43700  1.0000
  O   O15       1.0  0.47200  0.73500  0.56300  1.0000
  O   O16       1.0  0.97200  0.76500  0.56300  1.0000
  O   O17       1.0  0.73000  0.05010  0.62100  1.0000
  O   O18       1.0  0.23000  0.45000  0.62100  1.0000
  O   O19       1.0  0.72500  0.52800  0.62100  1.0000
  O   O20       1.0  0.22500  0.97200  0.62100  1.0000
  O   O21       1.0  0.45900  0.19500  0.75000  1.0000
  O   O22       1.0  0.95900  0.30500  0.75000  1.0000
  O   O23       1.0  0.72500  0.52800  0.87900  1.0000
  O   O24       1.0  0.22500  0.97200  0.87900  1.0000
  O   O25       1.0  0.73000  0.05010  0.87900  1.0000
  O   O26       1.0  0.23000  0.45000  0.87900  1.0000
  O   O27       1.0  0.47200  0.73500  0.93700  1.0000
  O   O28       1.0  0.97200  0.76500  0.93700  1.0000
  V   V1        1.0  0.18200  0.21500  0.01850  1.0000
  V   V2        1.0  0.68200  0.28500  0.01850  1.0000
  V   V3        1.0  0.20300  0.70700  0.25000  1.0000
  V   V4        1.0  0.70300  0.79300  0.25000  1.0000
  V   V5        1.0  0.18200  0.21500  0.48100  1.0000
  V   V6        1.0  0.68200  0.28500  0.48100  1.0000
  V   V7        1.0  0.31800  0.71500  0.51900  1.0000
  V   V8        1.0  0.81800  0.78500  0.51900  1.0000
  V   V9        1.0  0.29700  0.20700  0.75000  1.0000
  V   V10       1.0  0.79700  0.29300  0.75000  1.0000
  V   V11       1.0  0.31800  0.71500  0.98100  1.0000
  V   V12       1.0  0.81800  0.78500  0.98100  1.0000
