data_image0
_chemical_formula_structural       Co4Mo8S16
_chemical_formula_sum              "Co4 Mo8 S16"
_cell_length_a       6.40214
_cell_length_b       6.73168
_cell_length_c       11.6893
_cell_angle_alpha    100.62
_cell_angle_beta     105.893
_cell_angle_gamma    61.6066

_space_group_name_H-M_alt    "P 1"
_space_group_IT_number       1

loop_
  _space_group_symop_operation_xyz
  'x, y, z'

loop_
  _atom_site_type_symbol
  _atom_site_label
  _atom_site_symmetry_multiplicity
  _atom_site_fract_x
  _atom_site_fract_y
  _atom_site_fract_z
  _atom_site_occupancy
  Co  Co1       1.0  0.53900  0.22400  0.05070  1.0000
  Co  Co2       1.0  0.03910  0.22300  0.05100  1.0000
  Co  Co3       1.0  0.28800  0.72400  0.55100  1.0000
  Co  Co4       1.0  0.78800  0.72300  0.55100  1.0000
  Mo  Mo1       1.0  0.63000  0.77900  0.29000  1.0000
  Mo  Mo2       1.0  0.12900  0.78000  0.29000  1.0000
  Mo  Mo3       1.0  0.19700  0.16700  0.31200  1.0000
  Mo  Mo4       1.0  0.69600  0.16800  0.31200  1.0000
  Mo  Mo5       1.0  0.88000  0.27900  0.79000  1.0000
  Mo  Mo6       1.0  0.38100  0.28000  0.79000  1.0000
  Mo  Mo7       1.0  0.94700  0.66700  0.81200  1.0000
  Mo  Mo8       1.0  0.44800  0.66800  0.81200  1.0000
  S   S1        1.0  0.75200  0.89300  0.14800  1.0000
  S   S2        1.0  0.25300  0.89200  0.14800  1.0000
  S   S3        1.0  0.27600  0.38000  0.18200  1.0000
  S   S4        1.0  0.77600  0.38000  0.18200  1.0000
  S   S5        1.0  0.55100  0.56700  0.41900  1.0000
  S   S6        1.0  0.05070  0.56700  0.41900  1.0000
  S   S7        1.0  0.07420  0.05470  0.45300  1.0000
  S   S8        1.0  0.57500  0.05350  0.45400  1.0000
  S   S9        1.0  0.50300  0.39300  0.64800  1.0000
  S   S10       1.0  0.00321  0.39200  0.64800  1.0000
  S   S11       1.0  0.52700  0.88000  0.68200  1.0000
  S   S12       1.0  0.02630  0.88000  0.68200  1.0000
  S   S13       1.0  0.30100  0.06740  0.91900  1.0000
  S   S14       1.0  0.80200  0.06720  0.91900  1.0000
  S   S15       1.0  0.32500  0.55500  0.95300  1.0000
  S   S16       1.0  0.82500  0.55300  0.95400  1.0000
