data_image0
_chemical_formula_structural       F24Ge10
_chemical_formula_sum              "F24 Ge10"
_cell_length_a       7.25432
_cell_length_b       7.04512
_cell_length_c       7.8394
_cell_angle_alpha    89.9724
_cell_angle_beta     92.5328
_cell_angle_gamma    90.035

_space_group_name_H-M_alt    "P 1"
_space_group_IT_number       1

loop_
  _space_group_symop_operation_xyz
  'x, y, z'

loop_
  _atom_site_type_symbol
  _atom_site_label
  _atom_site_symmetry_multiplicity
  _atom_site_fract_x
  _atom_site_fract_y
  _atom_site_fract_z
  _atom_site_occupancy
  F   F1        1.0  0.35200  0.23000  0.11500  1.0000
  F   F2        1.0  0.85300  0.27000  0.11500  1.0000
  F   F3        1.0  0.26100  0.88900  0.14900  1.0000
  F   F4        1.0  0.76000  0.61000  0.15000  1.0000
  F   F5        1.0  0.62000  0.96600  0.16500  1.0000
  F   F6        1.0  0.11900  0.53600  0.16500  1.0000
  F   F7        1.0  0.09140  0.13200  0.32200  1.0000
  F   F8        1.0  0.59100  0.36800  0.32200  1.0000
  F   F9        1.0  0.43800  0.69000  0.35100  1.0000
  F   F10       1.0  0.93500  0.81100  0.35200  1.0000
  F   F11       1.0  0.28200  0.39000  0.45900  1.0000
  F   F12       1.0  0.78300  0.11300  0.46000  1.0000
  F   F13       1.0  0.21700  0.88700  0.54000  1.0000
  F   F14       1.0  0.71800  0.61100  0.54100  1.0000
  F   F15       1.0  0.06490  0.19000  0.64700  1.0000
  F   F16       1.0  0.56200  0.31000  0.64800  1.0000
  F   F17       1.0  0.40800  0.63300  0.67800  1.0000
  F   F18       1.0  0.90900  0.86800  0.67800  1.0000
  F   F19       1.0  0.88000  0.46400  0.83400  1.0000
  F   F20       1.0  0.38000  0.03360  0.83500  1.0000
  F   F21       1.0  0.73900  0.11100  0.85000  1.0000
  F   F22       1.0  0.24000  0.39000  0.85100  1.0000
  F   F23       1.0  0.14700  0.72900  0.88500  1.0000
  F   F24       1.0  0.64800  0.76900  0.88500  1.0000
  Ge  Ge1       1.0  0.34100  0.63500  0.07020  1.0000
  Ge  Ge2       1.0  0.84100  0.86300  0.07080  1.0000
  Ge  Ge3       1.0  0.41600  0.06400  0.31100  1.0000
  Ge  Ge4       1.0  0.91500  0.43500  0.31100  1.0000
  Ge  Ge5       1.0  0.00022  0.00015  0.50000  1.0000
  Ge  Ge6       1.0  0.50000  0.50000  0.50000  1.0000
  Ge  Ge7       1.0  0.08430  0.56400  0.68900  1.0000
  Ge  Ge8       1.0  0.58500  0.93600  0.69000  1.0000
  Ge  Ge9       1.0  0.16000  0.13600  0.93000  1.0000
  Ge  Ge10      1.0  0.65900  0.36400  0.93000  1.0000
