data_image0
_chemical_formula_structural       As4Cu4Pb4S12
_chemical_formula_sum              "As4 Cu4 Pb4 S12"
_cell_length_a       8.13265
_cell_length_b       8.83387
_cell_length_c       7.70739
_cell_angle_alpha    90
_cell_angle_beta     90
_cell_angle_gamma    90

_space_group_name_H-M_alt    "P 1"
_space_group_IT_number       1

loop_
  _space_group_symop_operation_xyz
  'x, y, z'

loop_
  _atom_site_type_symbol
  _atom_site_label
  _atom_site_symmetry_multiplicity
  _atom_site_fract_x
  _atom_site_fract_y
  _atom_site_fract_z
  _atom_site_occupancy
  As  As1       1.0  0.49500  0.15800  0.00000  1.0000
  As  As2       1.0  0.93600  0.57700  0.00000  1.0000
  As  As3       1.0  0.06370  0.07720  0.50000  1.0000
  As  As4       1.0  0.50500  0.65800  0.50000  1.0000
  Cu  Cu1       1.0  0.27800  0.43000  0.24000  1.0000
  Cu  Cu2       1.0  0.72200  0.93000  0.26000  1.0000
  Cu  Cu3       1.0  0.72200  0.93000  0.74000  1.0000
  Cu  Cu4       1.0  0.27800  0.43000  0.76000  1.0000
  Pb  Pb1       1.0  0.07700  0.00000  0.00000  1.0000
  Pb  Pb2       1.0  0.44300  0.68800  0.00000  1.0000
  Pb  Pb3       1.0  0.55700  0.18800  0.50000  1.0000
  Pb  Pb4       1.0  0.92300  0.50000  0.50000  1.0000
  S   S1        1.0  0.24800  0.28300  0.00000  1.0000
  S   S2        1.0  0.78000  0.79800  0.00000  1.0000
  S   S3        1.0  0.44200  0.99200  0.22400  1.0000
  S   S4        1.0  0.10800  0.64200  0.22800  1.0000
  S   S5        1.0  0.89200  0.14200  0.27200  1.0000
  S   S6        1.0  0.55800  0.49200  0.27600  1.0000
  S   S7        1.0  0.22000  0.29800  0.50000  1.0000
  S   S8        1.0  0.75200  0.78300  0.50000  1.0000
  S   S9        1.0  0.55800  0.49200  0.72400  1.0000
  S   S10       1.0  0.89200  0.14200  0.72800  1.0000
  S   S11       1.0  0.10800  0.64200  0.77200  1.0000
  S   S12       1.0  0.44200  0.99200  0.77600  1.0000
