data_image0
_chemical_formula_structural       Cl10Co2Cs6
_chemical_formula_sum              "Cl10 Co2 Cs6"
_cell_length_a       9.20042
_cell_length_b       9.20042
_cell_length_c       9.74026
_cell_angle_alpha    118.183
_cell_angle_beta     118.183
_cell_angle_gamma    90

_space_group_name_H-M_alt    "P 1"
_space_group_IT_number       1

loop_
  _space_group_symop_operation_xyz
  'x, y, z'

loop_
  _atom_site_type_symbol
  _atom_site_label
  _atom_site_symmetry_multiplicity
  _atom_site_fract_x
  _atom_site_fract_y
  _atom_site_fract_z
  _atom_site_occupancy
  Cl  Cl1       1.0  0.00000  0.00000  0.00000  1.0000
  Cl  Cl2       1.0  0.50000  0.50000  0.00000  1.0000
  Cl  Cl3       1.0  0.79800  0.01830  0.31700  1.0000
  Cl  Cl4       1.0  0.51800  0.29800  0.31700  1.0000
  Cl  Cl5       1.0  0.01830  0.51800  0.31700  1.0000
  Cl  Cl6       1.0  0.29800  0.79800  0.31700  1.0000
  Cl  Cl7       1.0  0.70200  0.20200  0.68300  1.0000
  Cl  Cl8       1.0  0.98200  0.48200  0.68300  1.0000
  Cl  Cl9       1.0  0.48200  0.70200  0.68300  1.0000
  Cl  Cl10      1.0  0.20200  0.98200  0.68300  1.0000
  Co  Co1       1.0  0.75000  0.25000  0.50000  1.0000
  Co  Co2       1.0  0.25000  0.75000  0.50000  1.0000
  Cs  Cs1       1.0  0.66400  0.16400  0.00000  1.0000
  Cs  Cs2       1.0  0.16400  0.33600  0.00000  1.0000
  Cs  Cs3       1.0  0.83600  0.66400  0.00000  1.0000
  Cs  Cs4       1.0  0.33600  0.83600  0.00000  1.0000
  Cs  Cs5       1.0  0.25000  0.25000  0.50000  1.0000
  Cs  Cs6       1.0  0.75000  0.75000  0.50000  1.0000
