data_image0
_chemical_formula_structural       P20Tl4
_chemical_formula_sum              "P20 Tl4"
_cell_length_a       6.50597
_cell_length_b       7.13354
_cell_length_c       12.3222
_cell_angle_alpha    90
_cell_angle_beta     90
_cell_angle_gamma    90

_space_group_name_H-M_alt    "P 1"
_space_group_IT_number       1

loop_
  _space_group_symop_operation_xyz
  'x, y, z'

loop_
  _atom_site_type_symbol
  _atom_site_label
  _atom_site_symmetry_multiplicity
  _atom_site_fract_x
  _atom_site_fract_y
  _atom_site_fract_z
  _atom_site_occupancy
  P   P1        1.0  0.00000  0.64700  0.00978  1.0000
  P   P2        1.0  0.50000  0.65600  0.01090  1.0000
  P   P3        1.0  0.50000  0.35500  0.04180  1.0000
  P   P4        1.0  0.25000  0.77800  0.11100  1.0000
  P   P5        1.0  0.75000  0.77800  0.11100  1.0000
  P   P6        1.0  0.50000  0.38900  0.21600  1.0000
  P   P7        1.0  0.00000  0.38700  0.22900  1.0000
  P   P8        1.0  0.25400  0.59100  0.26100  1.0000
  P   P9        1.0  0.74600  0.59100  0.26100  1.0000
  P   P10       1.0  0.00000  0.18100  0.36100  1.0000
  P   P11       1.0  0.00000  0.35300  0.51000  1.0000
  P   P12       1.0  0.50000  0.34400  0.51100  1.0000
  P   P13       1.0  0.50000  0.64500  0.54200  1.0000
  P   P14       1.0  0.25000  0.22200  0.61100  1.0000
  P   P15       1.0  0.75000  0.22200  0.61100  1.0000
  P   P16       1.0  0.50000  0.61100  0.71600  1.0000
  P   P17       1.0  0.00000  0.61300  0.72900  1.0000
  P   P18       1.0  0.25400  0.40900  0.76100  1.0000
  P   P19       1.0  0.74600  0.40900  0.76100  1.0000
  P   P20       1.0  0.00000  0.81900  0.86100  1.0000
  Tl  Tl1       1.0  0.00000  0.22200  0.00051  1.0000
  Tl  Tl2       1.0  0.50000  0.02430  0.34000  1.0000
  Tl  Tl3       1.0  0.00000  0.77800  0.50100  1.0000
  Tl  Tl4       1.0  0.50000  0.97600  0.84000  1.0000
