data_image0
_chemical_formula_structural       Co2Na8O6
_chemical_formula_sum              "Co2 Na8 O6"
_cell_length_a       6.07947
_cell_length_b       6.07947
_cell_length_c       7.88933
_cell_angle_alpha    69.1254
_cell_angle_beta     110.875
_cell_angle_gamma    124.409

_space_group_name_H-M_alt    "P 1"
_space_group_IT_number       1

loop_
  _space_group_symop_operation_xyz
  'x, y, z'

loop_
  _atom_site_type_symbol
  _atom_site_label
  _atom_site_symmetry_multiplicity
  _atom_site_fract_x
  _atom_site_fract_y
  _atom_site_fract_z
  _atom_site_occupancy
  Co  Co1       1.0  0.67000  0.63400  0.28500  1.0000
  Co  Co2       1.0  0.36600  0.33000  0.78500  1.0000
  Na  Na1       1.0  0.13500  0.44400  0.38800  1.0000
  Na  Na2       1.0  0.55600  0.86500  0.88800  1.0000
  Na  Na3       1.0  0.31700  0.02570  0.49700  1.0000
  Na  Na4       1.0  0.97400  0.68300  0.99700  1.0000
  Na  Na5       1.0  0.90700  0.42600  0.66400  1.0000
  Na  Na6       1.0  0.57400  0.09270  0.16400  1.0000
  Na  Na7       1.0  0.75400  0.90500  0.56900  1.0000
  Na  Na8       1.0  0.09500  0.24600  0.06920  1.0000
  O   O1        1.0  0.92400  0.98400  0.32800  1.0000
  O   O2        1.0  0.01610  0.07570  0.82800  1.0000
  O   O3        1.0  0.69000  0.32700  0.37200  1.0000
  O   O4        1.0  0.67300  0.31000  0.87200  1.0000
  O   O5        1.0  0.35100  0.65500  0.14400  1.0000
  O   O6        1.0  0.34500  0.64900  0.64400  1.0000
