data_image0
_chemical_formula_structural       B8Cl16
_chemical_formula_sum              "B8 Cl16"
_cell_length_a       12.3986
_cell_length_b       6.49787
_cell_length_c       8.04847
_cell_angle_alpha    90
_cell_angle_beta     90
_cell_angle_gamma    90

_space_group_name_H-M_alt    "P 1"
_space_group_IT_number       1

loop_
  _space_group_symop_operation_xyz
  'x, y, z'

loop_
  _atom_site_type_symbol
  _atom_site_label
  _atom_site_symmetry_multiplicity
  _atom_site_fract_x
  _atom_site_fract_y
  _atom_site_fract_z
  _atom_site_occupancy
  B   B1        1.0  0.51500  0.39100  0.05520  1.0000
  B   B2        1.0  0.98500  0.89100  0.05520  1.0000
  B   B3        1.0  0.01450  0.39100  0.44500  1.0000
  B   B4        1.0  0.48500  0.89100  0.44500  1.0000
  B   B5        1.0  0.51500  0.10900  0.55500  1.0000
  B   B6        1.0  0.98500  0.60900  0.55500  1.0000
  B   B7        1.0  0.01450  0.10900  0.94500  1.0000
  B   B8        1.0  0.48500  0.60900  0.94500  1.0000
  Cl  Cl1       1.0  0.64300  0.28100  0.05030  1.0000
  Cl  Cl2       1.0  0.85700  0.78100  0.05030  1.0000
  Cl  Cl3       1.0  0.41400  0.27100  0.17500  1.0000
  Cl  Cl4       1.0  0.08600  0.77100  0.17500  1.0000
  Cl  Cl5       1.0  0.91400  0.27100  0.32500  1.0000
  Cl  Cl6       1.0  0.58600  0.77100  0.32500  1.0000
  Cl  Cl7       1.0  0.14300  0.28100  0.45000  1.0000
  Cl  Cl8       1.0  0.35700  0.78100  0.45000  1.0000
  Cl  Cl9       1.0  0.64300  0.21900  0.55000  1.0000
  Cl  Cl10      1.0  0.85700  0.71900  0.55000  1.0000
  Cl  Cl11      1.0  0.41400  0.22900  0.67500  1.0000
  Cl  Cl12      1.0  0.08600  0.72900  0.67500  1.0000
  Cl  Cl13      1.0  0.91400  0.22900  0.82500  1.0000
  Cl  Cl14      1.0  0.58600  0.72900  0.82500  1.0000
  Cl  Cl15      1.0  0.14300  0.21900  0.95000  1.0000
  Cl  Cl16      1.0  0.35700  0.71900  0.95000  1.0000
