data_image0
_chemical_formula_structural       Co4F12Na4
_chemical_formula_sum              "Co4 F12 Na4"
_cell_length_a       5.52473
_cell_length_b       7.57525
_cell_length_c       5.26291
_cell_angle_alpha    90
_cell_angle_beta     90
_cell_angle_gamma    90

_space_group_name_H-M_alt    "P 1"
_space_group_IT_number       1

loop_
  _space_group_symop_operation_xyz
  'x, y, z'

loop_
  _atom_site_type_symbol
  _atom_site_label
  _atom_site_symmetry_multiplicity
  _atom_site_fract_x
  _atom_site_fract_y
  _atom_site_fract_z
  _atom_site_occupancy
  Co  Co1       1.0  0.50000  0.00000  0.00000  1.0000
  Co  Co2       1.0  0.50000  0.50000  0.00000  1.0000
  Co  Co3       1.0  0.00000  0.00000  0.50000  1.0000
  Co  Co4       1.0  0.00000  0.50000  0.50000  1.0000
  F   F1        1.0  0.45700  0.25000  0.11800  1.0000
  F   F2        1.0  0.19500  0.55900  0.19000  1.0000
  F   F3        1.0  0.19500  0.94100  0.19000  1.0000
  F   F4        1.0  0.69500  0.55900  0.31000  1.0000
  F   F5        1.0  0.69500  0.94100  0.31000  1.0000
  F   F6        1.0  0.95700  0.25000  0.38200  1.0000
  F   F7        1.0  0.04270  0.75000  0.61800  1.0000
  F   F8        1.0  0.30500  0.05940  0.69000  1.0000
  F   F9        1.0  0.30500  0.44100  0.69000  1.0000
  F   F10       1.0  0.80500  0.05940  0.81000  1.0000
  F   F11       1.0  0.80500  0.44100  0.81000  1.0000
  F   F12       1.0  0.54300  0.75000  0.88200  1.0000
  Na  Na1       1.0  0.93500  0.75000  0.01950  1.0000
  Na  Na2       1.0  0.43500  0.75000  0.48100  1.0000
  Na  Na3       1.0  0.56500  0.25000  0.51900  1.0000
  Na  Na4       1.0  0.06520  0.25000  0.98100  1.0000
