data_image0
_chemical_formula_structural       Cu4Pb4S12Sb4
_chemical_formula_sum              "Cu4 Pb4 S12 Sb4"
_cell_length_a       8.2233
_cell_length_b       8.83076
_cell_length_c       7.8621
_cell_angle_alpha    90
_cell_angle_beta     90
_cell_angle_gamma    90

_space_group_name_H-M_alt    "P 1"
_space_group_IT_number       1

loop_
  _space_group_symop_operation_xyz
  'x, y, z'

loop_
  _atom_site_type_symbol
  _atom_site_label
  _atom_site_symmetry_multiplicity
  _atom_site_fract_x
  _atom_site_fract_y
  _atom_site_fract_z
  _atom_site_occupancy
  Cu  Cu1       1.0  0.27900  0.42100  0.24200  1.0000
  Cu  Cu2       1.0  0.72100  0.92100  0.25800  1.0000
  Cu  Cu3       1.0  0.72100  0.92100  0.74200  1.0000
  Cu  Cu4       1.0  0.27900  0.42100  0.75800  1.0000
  Pb  Pb1       1.0  0.44200  0.67600  0.00000  1.0000
  Pb  Pb2       1.0  0.07180  0.99600  0.00000  1.0000
  Pb  Pb3       1.0  0.55800  0.17600  0.50000  1.0000
  Pb  Pb4       1.0  0.92800  0.49600  0.50000  1.0000
  S   S1        1.0  0.23800  0.28000  0.00000  1.0000
  S   S2        1.0  0.76900  0.79100  0.00000  1.0000
  S   S3        1.0  0.43800  0.97700  0.23400  1.0000
  S   S4        1.0  0.11000  0.63300  0.23700  1.0000
  S   S5        1.0  0.89000  0.13300  0.26300  1.0000
  S   S6        1.0  0.56200  0.47700  0.26600  1.0000
  S   S7        1.0  0.23100  0.29100  0.50000  1.0000
  S   S8        1.0  0.76200  0.78000  0.50000  1.0000
  S   S9        1.0  0.56200  0.47700  0.73400  1.0000
  S   S10       1.0  0.89000  0.13300  0.73700  1.0000
  S   S11       1.0  0.11000  0.63300  0.76300  1.0000
  S   S12       1.0  0.43800  0.97700  0.76600  1.0000
  Sb  Sb1       1.0  0.50800  0.15600  0.00000  1.0000
  Sb  Sb2       1.0  0.92800  0.55000  0.00000  1.0000
  Sb  Sb3       1.0  0.07150  0.04960  0.50000  1.0000
  Sb  Sb4       1.0  0.49200  0.65600  0.50000  1.0000
