data_image0
_chemical_formula_structural       Be8Cs4F20
_chemical_formula_sum              "Be8 Cs4 F20"
_cell_length_a       7.61753
_cell_length_b       7.61753
_cell_length_c       7.61753
_cell_angle_alpha    90
_cell_angle_beta     90
_cell_angle_gamma    90

_space_group_name_H-M_alt    "P 1"
_space_group_IT_number       1

loop_
  _space_group_symop_operation_xyz
  'x, y, z'

loop_
  _atom_site_type_symbol
  _atom_site_label
  _atom_site_symmetry_multiplicity
  _atom_site_fract_x
  _atom_site_fract_y
  _atom_site_fract_z
  _atom_site_occupancy
  Be  Be1       1.0  0.11100  0.11100  0.11100  1.0000
  Be  Be2       1.0  0.86100  0.36100  0.13900  1.0000
  Be  Be3       1.0  0.13900  0.86100  0.36100  1.0000
  Be  Be4       1.0  0.88900  0.61100  0.38900  1.0000
  Be  Be5       1.0  0.38900  0.88900  0.61100  1.0000
  Be  Be6       1.0  0.63900  0.63900  0.63900  1.0000
  Be  Be7       1.0  0.36100  0.13900  0.86100  1.0000
  Be  Be8       1.0  0.61100  0.38900  0.88900  1.0000
  Cs  Cs1       1.0  0.62500  0.87500  0.12500  1.0000
  Cs  Cs2       1.0  0.37500  0.37500  0.37500  1.0000
  Cs  Cs3       1.0  0.87500  0.12500  0.62500  1.0000
  Cs  Cs4       1.0  0.12500  0.62500  0.87500  1.0000
  F   F1        1.0  0.49800  0.50200  0.00206  1.0000
  F   F2        1.0  0.30800  0.12500  0.05790  1.0000
  F   F3        1.0  0.05790  0.30800  0.12500  1.0000
  F   F4        1.0  0.87500  0.55800  0.19200  1.0000
  F   F5        1.0  0.25200  0.74800  0.24800  1.0000
  F   F6        1.0  0.74800  0.24800  0.25200  1.0000
  F   F7        1.0  0.12500  0.05790  0.30800  1.0000
  F   F8        1.0  0.94200  0.80800  0.37500  1.0000
  F   F9        1.0  0.69200  0.62500  0.44200  1.0000
  F   F10       1.0  0.50200  0.00206  0.49800  1.0000
  F   F11       1.0  0.00206  0.49800  0.50200  1.0000
  F   F12       1.0  0.19200  0.87500  0.55800  1.0000
  F   F13       1.0  0.44200  0.69200  0.62500  1.0000
  F   F14       1.0  0.62500  0.44200  0.69200  1.0000
  F   F15       1.0  0.24800  0.25200  0.74800  1.0000
  F   F16       1.0  0.75200  0.75200  0.75200  1.0000
  F   F17       1.0  0.37500  0.94200  0.80800  1.0000
  F   F18       1.0  0.55800  0.19200  0.87500  1.0000
  F   F19       1.0  0.80800  0.37500  0.94200  1.0000
  F   F20       1.0  0.99800  0.99800  0.99800  1.0000
