data_image0
_chemical_formula_structural       Co6O16P4
_chemical_formula_sum              "Co6 O16 P4"
_cell_length_a       5.88611
_cell_length_b       10.2457
_cell_length_c       4.73673
_cell_angle_alpha    90
_cell_angle_beta     90
_cell_angle_gamma    91.5675

_space_group_name_H-M_alt    "P 1"
_space_group_IT_number       1

loop_
  _space_group_symop_operation_xyz
  'x, y, z'

loop_
  _atom_site_type_symbol
  _atom_site_label
  _atom_site_symmetry_multiplicity
  _atom_site_fract_x
  _atom_site_fract_y
  _atom_site_fract_z
  _atom_site_occupancy
  Co  Co1       1.0  0.50000  0.00000  0.00000  1.0000
  Co  Co2       1.0  0.76200  0.72600  0.01410  1.0000
  Co  Co3       1.0  0.76200  0.22600  0.48600  1.0000
  Co  Co4       1.0  0.50000  0.50000  0.50000  1.0000
  Co  Co5       1.0  0.23800  0.77400  0.51400  1.0000
  Co  Co6       1.0  0.23800  0.27400  0.98600  1.0000
  O   O1        1.0  0.05860  0.67800  0.18800  1.0000
  O   O2        1.0  0.24900  0.45500  0.19100  1.0000
  O   O3        1.0  0.47000  0.66100  0.22500  1.0000
  O   O4        1.0  0.73000  0.89900  0.24900  1.0000
  O   O5        1.0  0.73000  0.39900  0.25100  1.0000
  O   O6        1.0  0.47000  0.16100  0.27500  1.0000
  O   O7        1.0  0.24900  0.95500  0.30900  1.0000
  O   O8        1.0  0.05860  0.17800  0.31200  1.0000
  O   O9        1.0  0.94100  0.82200  0.68800  1.0000
  O   O10       1.0  0.75100  0.04530  0.69100  1.0000
  O   O11       1.0  0.53000  0.83900  0.72500  1.0000
  O   O12       1.0  0.27000  0.60100  0.74900  1.0000
  O   O13       1.0  0.27000  0.10100  0.75100  1.0000
  O   O14       1.0  0.53000  0.33900  0.77500  1.0000
  O   O15       1.0  0.75100  0.54500  0.80900  1.0000
  O   O16       1.0  0.94100  0.32200  0.81200  1.0000
  P   P1        1.0  0.25400  0.59500  0.07290  1.0000
  P   P2        1.0  0.25400  0.09540  0.42700  1.0000
  P   P3        1.0  0.74600  0.90500  0.57300  1.0000
  P   P4        1.0  0.74600  0.40500  0.92700  1.0000
