data_image0
_chemical_formula_structural       K2O24Th4V6
_chemical_formula_sum              "K2 O24 Th4 V6"
_cell_length_a       7.14428
_cell_length_b       8.04334
_cell_length_c       9.92153
_cell_angle_alpha    100.305
_cell_angle_beta     111.103
_cell_angle_gamma    90

_space_group_name_H-M_alt    "P 1"
_space_group_IT_number       1

loop_
  _space_group_symop_operation_xyz
  'x, y, z'

loop_
  _atom_site_type_symbol
  _atom_site_label
  _atom_site_symmetry_multiplicity
  _atom_site_fract_x
  _atom_site_fract_y
  _atom_site_fract_z
  _atom_site_occupancy
  K   K1        1.0  0.38200  0.25000  0.00000  1.0000
  K   K2        1.0  0.61800  0.75000  0.00000  1.0000
  O   O1        1.0  0.78700  0.42900  0.06080  1.0000
  O   O2        1.0  0.27300  0.92900  0.06080  1.0000
  O   O3        1.0  0.05140  0.75100  0.15400  1.0000
  O   O4        1.0  0.10300  0.25100  0.15400  1.0000
  O   O5        1.0  0.51700  0.17200  0.27200  1.0000
  O   O6        1.0  0.75500  0.67200  0.27200  1.0000
  O   O7        1.0  0.90500  0.05820  0.29000  1.0000
  O   O8        1.0  0.38600  0.55800  0.29000  1.0000
  O   O9        1.0  0.55500  0.89300  0.40600  1.0000
  O   O10       1.0  0.85100  0.39300  0.40600  1.0000
  O   O11       1.0  0.18300  0.82600  0.44000  1.0000
  O   O12       1.0  0.25700  0.32600  0.44000  1.0000
  O   O13       1.0  0.81700  0.17400  0.56000  1.0000
  O   O14       1.0  0.74300  0.67400  0.56000  1.0000
  O   O15       1.0  0.44500  0.10700  0.59400  1.0000
  O   O16       1.0  0.14900  0.60700  0.59400  1.0000
  O   O17       1.0  0.61400  0.44200  0.71000  1.0000
  O   O18       1.0  0.09550  0.94200  0.71000  1.0000
  O   O19       1.0  0.24500  0.32800  0.72800  1.0000
  O   O20       1.0  0.48300  0.82800  0.72800  1.0000
  O   O21       1.0  0.94900  0.24900  0.84600  1.0000
  O   O22       1.0  0.89700  0.74900  0.84600  1.0000
  O   O23       1.0  0.21300  0.57100  0.93900  1.0000
  O   O24       1.0  0.72700  0.07060  0.93900  1.0000
  Th  Th1       1.0  0.24500  0.03570  0.30700  1.0000
  Th  Th2       1.0  0.06200  0.53600  0.30700  1.0000
  Th  Th3       1.0  0.93800  0.46400  0.69300  1.0000
  Th  Th4       1.0  0.75500  0.96400  0.69300  1.0000
  V   V1        1.0  0.88500  0.25000  0.00000  1.0000
  V   V2        1.0  0.11500  0.75000  0.00000  1.0000
  V   V3        1.0  0.76700  0.18200  0.37400  1.0000
  V   V4        1.0  0.60700  0.68200  0.37400  1.0000
  V   V5        1.0  0.39300  0.31800  0.62600  1.0000
  V   V6        1.0  0.23300  0.81800  0.62600  1.0000
