data_image0
_chemical_formula_structural       O20Se8
_chemical_formula_sum              "O20 Se8"
_cell_length_a       4.42883
_cell_length_b       6.8369
_cell_length_c       13.4983
_cell_angle_alpha    90
_cell_angle_beta     92.0098
_cell_angle_gamma    90

_space_group_name_H-M_alt    "P 1"
_space_group_IT_number       1

loop_
  _space_group_symop_operation_xyz
  'x, y, z'

loop_
  _atom_site_type_symbol
  _atom_site_label
  _atom_site_symmetry_multiplicity
  _atom_site_fract_x
  _atom_site_fract_y
  _atom_site_fract_z
  _atom_site_occupancy
  O   O1        1.0  0.71900  0.67200  0.03240  1.0000
  O   O2        1.0  0.27900  0.90800  0.11700  1.0000
  O   O3        1.0  0.71800  0.24100  0.13500  1.0000
  O   O4        1.0  0.25800  0.52400  0.14800  1.0000
  O   O5        1.0  0.75000  0.72000  0.22700  1.0000
  O   O6        1.0  0.25000  0.22000  0.27300  1.0000
  O   O7        1.0  0.74200  0.02420  0.35200  1.0000
  O   O8        1.0  0.28200  0.74100  0.36500  1.0000
  O   O9        1.0  0.72100  0.40800  0.38300  1.0000
  O   O10       1.0  0.28100  0.17200  0.46800  1.0000
  O   O11       1.0  0.71900  0.82800  0.53200  1.0000
  O   O12       1.0  0.27900  0.59200  0.61700  1.0000
  O   O13       1.0  0.71800  0.25900  0.63500  1.0000
  O   O14       1.0  0.25800  0.97600  0.64800  1.0000
  O   O15       1.0  0.75000  0.78000  0.72700  1.0000
  O   O16       1.0  0.25000  0.28000  0.77300  1.0000
  O   O17       1.0  0.74200  0.47600  0.85200  1.0000
  O   O18       1.0  0.28200  0.75900  0.86500  1.0000
  O   O19       1.0  0.72100  0.09210  0.88300  1.0000
  O   O20       1.0  0.28100  0.32800  0.96800  1.0000
  Se  Se1       1.0  0.50100  0.71500  0.12600  1.0000
  Se  Se2       1.0  0.35300  0.24700  0.13200  1.0000
  Se  Se3       1.0  0.64700  0.74700  0.36800  1.0000
  Se  Se4       1.0  0.49900  0.21500  0.37400  1.0000
  Se  Se5       1.0  0.50100  0.78500  0.62600  1.0000
  Se  Se6       1.0  0.35300  0.25300  0.63200  1.0000
  Se  Se7       1.0  0.64700  0.75300  0.86800  1.0000
  Se  Se8       1.0  0.49900  0.28500  0.87400  1.0000
