data_image0
_chemical_formula_structural       Ge6O18Rb2Ta2
_chemical_formula_sum              "Ge6 O18 Rb2 Ta2"
_cell_length_a       7.0204
_cell_length_b       7.02035
_cell_length_c       10.1957
_cell_angle_alpha    90
_cell_angle_beta     90
_cell_angle_gamma    120

_space_group_name_H-M_alt    "P 1"
_space_group_IT_number       1

loop_
  _space_group_symop_operation_xyz
  'x, y, z'

loop_
  _atom_site_type_symbol
  _atom_site_label
  _atom_site_symmetry_multiplicity
  _atom_site_fract_x
  _atom_site_fract_y
  _atom_site_fract_z
  _atom_site_occupancy
  Ge  Ge1       1.0  0.07230  0.29000  0.25000  1.0000
  Ge  Ge2       1.0  0.71000  0.78300  0.25000  1.0000
  Ge  Ge3       1.0  0.21700  0.92800  0.25000  1.0000
  Ge  Ge4       1.0  0.21700  0.29000  0.75000  1.0000
  Ge  Ge5       1.0  0.07230  0.78300  0.75000  1.0000
  Ge  Ge6       1.0  0.71000  0.92800  0.75000  1.0000
  O   O1        1.0  0.09460  0.43900  0.10900  1.0000
  O   O2        1.0  0.56100  0.65500  0.10900  1.0000
  O   O3        1.0  0.34500  0.90500  0.10900  1.0000
  O   O4        1.0  0.79800  0.06680  0.25000  1.0000
  O   O5        1.0  0.26900  0.20200  0.25000  1.0000
  O   O6        1.0  0.93300  0.73100  0.25000  1.0000
  O   O7        1.0  0.56100  0.65500  0.39100  1.0000
  O   O8        1.0  0.34500  0.90500  0.39100  1.0000
  O   O9        1.0  0.09460  0.43900  0.39100  1.0000
  O   O10       1.0  0.34500  0.43900  0.60900  1.0000
  O   O11       1.0  0.56100  0.90500  0.60900  1.0000
  O   O12       1.0  0.09460  0.65500  0.60900  1.0000
  O   O13       1.0  0.26900  0.06680  0.75000  1.0000
  O   O14       1.0  0.93300  0.20200  0.75000  1.0000
  O   O15       1.0  0.79800  0.73100  0.75000  1.0000
  O   O16       1.0  0.09460  0.65500  0.89100  1.0000
  O   O17       1.0  0.56100  0.90500  0.89100  1.0000
  O   O18       1.0  0.34500  0.43900  0.89100  1.0000
  Rb  Rb1       1.0  0.66700  0.33300  0.00000  1.0000
  Rb  Rb2       1.0  0.66700  0.33300  0.50000  1.0000
  Ta  Ta1       1.0  0.33300  0.66700  0.00000  1.0000
  Ta  Ta2       1.0  0.33300  0.66700  0.50000  1.0000
