data_image0
_chemical_formula_structural       Eu6Ge6S18
_chemical_formula_sum              "Eu6 Ge6 S18"
_cell_length_a       8.4566
_cell_length_b       11.7676
_cell_length_c       8.36685
_cell_angle_alpha    90.8801
_cell_angle_beta     104.642
_cell_angle_gamma    69.0095

_space_group_name_H-M_alt    "P 1"
_space_group_IT_number       1

loop_
  _space_group_symop_operation_xyz
  'x, y, z'

loop_
  _atom_site_type_symbol
  _atom_site_label
  _atom_site_symmetry_multiplicity
  _atom_site_fract_x
  _atom_site_fract_y
  _atom_site_fract_z
  _atom_site_occupancy
  Eu  Eu1       1.0  0.12100  0.13600  0.10800  1.0000
  Eu  Eu2       1.0  0.23900  0.50000  0.24500  1.0000
  Eu  Eu3       1.0  0.75900  0.18600  0.42500  1.0000
  Eu  Eu4       1.0  0.24100  0.81400  0.57500  1.0000
  Eu  Eu5       1.0  0.76100  0.50000  0.75500  1.0000
  Eu  Eu6       1.0  0.87900  0.86400  0.89200  1.0000
  Ge  Ge1       1.0  0.35200  0.80500  0.09430  1.0000
  Ge  Ge2       1.0  0.74600  0.53000  0.23100  1.0000
  Ge  Ge3       1.0  0.70600  0.81400  0.44900  1.0000
  Ge  Ge4       1.0  0.29400  0.18600  0.55100  1.0000
  Ge  Ge5       1.0  0.25400  0.47000  0.76900  1.0000
  Ge  Ge6       1.0  0.64800  0.19500  0.90600  1.0000
  S   S1        1.0  0.53700  0.64200  0.00312  1.0000
  S   S2        1.0  0.94100  0.40400  0.11700  1.0000
  S   S3        1.0  0.82100  0.06690  0.12100  1.0000
  S   S4        1.0  0.50200  0.92200  0.21800  1.0000
  S   S5        1.0  0.18300  0.76400  0.22700  1.0000
  S   S6        1.0  0.38700  0.23400  0.34800  1.0000
  S   S7        1.0  0.89300  0.64800  0.36100  1.0000
  S   S8        1.0  0.63200  0.45900  0.39400  1.0000
  S   S9        1.0  0.13600  0.07530  0.45100  1.0000
  S   S10       1.0  0.86400  0.92500  0.54900  1.0000
  S   S11       1.0  0.36800  0.54100  0.60600  1.0000
  S   S12       1.0  0.10700  0.35200  0.63900  1.0000
  S   S13       1.0  0.61300  0.76600  0.65200  1.0000
  S   S14       1.0  0.81700  0.23600  0.77300  1.0000
  S   S15       1.0  0.49800  0.07800  0.78200  1.0000
  S   S16       1.0  0.17900  0.93300  0.87900  1.0000
  S   S17       1.0  0.05890  0.59600  0.88300  1.0000
  S   S18       1.0  0.46300  0.35800  0.99700  1.0000
