data_image0
_chemical_formula_structural       Cs4F16O4V4
_chemical_formula_sum              "Cs4 F16 O4 V4"
_cell_length_a       5.34108
_cell_length_b       5.99686
_cell_length_c       13.3119
_cell_angle_alpha    90
_cell_angle_beta     90
_cell_angle_gamma    90

_space_group_name_H-M_alt    "P 1"
_space_group_IT_number       1

loop_
  _space_group_symop_operation_xyz
  'x, y, z'

loop_
  _atom_site_type_symbol
  _atom_site_label
  _atom_site_symmetry_multiplicity
  _atom_site_fract_x
  _atom_site_fract_y
  _atom_site_fract_z
  _atom_site_occupancy
  Cs  Cs1       1.0  0.03600  0.75000  0.13500  1.0000
  Cs  Cs2       1.0  0.53600  0.75000  0.36500  1.0000
  Cs  Cs3       1.0  0.46400  0.25000  0.63500  1.0000
  Cs  Cs4       1.0  0.96400  0.25000  0.86500  1.0000
  F   F1        1.0  0.80400  0.25000  0.06480  1.0000
  F   F2        1.0  0.54100  0.54700  0.15600  1.0000
  F   F3        1.0  0.54100  0.95300  0.15600  1.0000
  F   F4        1.0  0.28300  0.25000  0.23900  1.0000
  F   F5        1.0  0.78300  0.25000  0.26100  1.0000
  F   F6        1.0  0.04130  0.54700  0.34400  1.0000
  F   F7        1.0  0.04130  0.95300  0.34400  1.0000
  F   F8        1.0  0.30400  0.25000  0.43500  1.0000
  F   F9        1.0  0.69600  0.75000  0.56500  1.0000
  F   F10       1.0  0.95900  0.04670  0.65600  1.0000
  F   F11       1.0  0.95900  0.45300  0.65600  1.0000
  F   F12       1.0  0.21700  0.75000  0.73900  1.0000
  F   F13       1.0  0.71700  0.75000  0.76100  1.0000
  F   F14       1.0  0.45900  0.04670  0.84400  1.0000
  F   F15       1.0  0.45900  0.45300  0.84400  1.0000
  F   F16       1.0  0.19600  0.75000  0.93500  1.0000
  O   O1        1.0  0.31200  0.25000  0.04090  1.0000
  O   O2        1.0  0.81200  0.25000  0.45900  1.0000
  O   O3        1.0  0.18800  0.75000  0.54100  1.0000
  O   O4        1.0  0.68800  0.75000  0.95900  1.0000
  V   V1        1.0  0.50900  0.25000  0.13200  1.0000
  V   V2        1.0  0.00867  0.25000  0.36800  1.0000
  V   V3        1.0  0.99100  0.75000  0.63200  1.0000
  V   V4        1.0  0.49100  0.75000  0.86800  1.0000
