data_image0
_chemical_formula_structural       O24S4U4
_chemical_formula_sum              "O24 S4 U4"
_cell_length_a       6.75175
_cell_length_b       5.5493
_cell_length_c       12.8109
_cell_angle_alpha    90
_cell_angle_beta     103.077
_cell_angle_gamma    90

_space_group_name_H-M_alt    "P 1"
_space_group_IT_number       1

loop_
  _space_group_symop_operation_xyz
  'x, y, z'

loop_
  _atom_site_type_symbol
  _atom_site_label
  _atom_site_symmetry_multiplicity
  _atom_site_fract_x
  _atom_site_fract_y
  _atom_site_fract_z
  _atom_site_occupancy
  O   O1        1.0  0.20400  0.54800  0.00120  1.0000
  O   O2        1.0  0.60500  0.72700  0.08540  1.0000
  O   O3        1.0  0.24300  0.04360  0.09630  1.0000
  O   O4        1.0  0.96700  0.69600  0.14700  1.0000
  O   O5        1.0  0.75600  0.36200  0.17500  1.0000
  O   O6        1.0  0.39200  0.47900  0.22400  1.0000
  O   O7        1.0  0.60800  0.97900  0.27600  1.0000
  O   O8        1.0  0.24400  0.86200  0.32500  1.0000
  O   O9        1.0  0.03290  0.19600  0.35300  1.0000
  O   O10       1.0  0.75700  0.54400  0.40400  1.0000
  O   O11       1.0  0.39500  0.22700  0.41500  1.0000
  O   O12       1.0  0.79600  0.04770  0.49900  1.0000
  O   O13       1.0  0.20400  0.95200  0.50100  1.0000
  O   O14       1.0  0.60500  0.77300  0.58500  1.0000
  O   O15       1.0  0.24300  0.45600  0.59600  1.0000
  O   O16       1.0  0.96700  0.80400  0.64700  1.0000
  O   O17       1.0  0.75600  0.13800  0.67500  1.0000
  O   O18       1.0  0.39200  0.02100  0.72400  1.0000
  O   O19       1.0  0.60800  0.52100  0.77600  1.0000
  O   O20       1.0  0.24400  0.63800  0.82500  1.0000
  O   O21       1.0  0.03290  0.30400  0.85300  1.0000
  O   O22       1.0  0.75700  0.95600  0.90400  1.0000
  O   O23       1.0  0.39500  0.27300  0.91500  1.0000
  O   O24       1.0  0.79600  0.45200  0.99900  1.0000
  S   S1        1.0  0.78100  0.55900  0.10200  1.0000
  S   S2        1.0  0.21900  0.05950  0.39800  1.0000
  S   S3        1.0  0.78100  0.94100  0.60200  1.0000
  S   S4        1.0  0.21900  0.44100  0.89800  1.0000
  U   U1        1.0  0.31500  0.76400  0.15900  1.0000
  U   U2        1.0  0.68500  0.26400  0.34100  1.0000
  U   U3        1.0  0.31500  0.73600  0.65900  1.0000
  U   U4        1.0  0.68500  0.23600  0.84100  1.0000
