data_image0
_chemical_formula_structural       B12H48N12
_chemical_formula_sum              "B12 H48 N12"
_cell_length_a       4.22195
_cell_length_b       11.7458
_cell_length_c       10.8344
_cell_angle_alpha    90
_cell_angle_beta     90
_cell_angle_gamma    90

_space_group_name_H-M_alt    "P 1"
_space_group_IT_number       1

loop_
  _space_group_symop_operation_xyz
  'x, y, z'

loop_
  _atom_site_type_symbol
  _atom_site_label
  _atom_site_symmetry_multiplicity
  _atom_site_fract_x
  _atom_site_fract_y
  _atom_site_fract_z
  _atom_site_occupancy
  B   B1        1.0  0.85400  0.42400  0.12800  1.0000
  B   B2        1.0  0.14600  0.92400  0.12800  1.0000
  B   B3        1.0  0.14200  0.12000  0.25000  1.0000
  B   B4        1.0  0.85800  0.62000  0.25000  1.0000
  B   B5        1.0  0.85400  0.42400  0.37200  1.0000
  B   B6        1.0  0.14600  0.92400  0.37200  1.0000
  B   B7        1.0  0.85400  0.07570  0.62800  1.0000
  B   B8        1.0  0.14600  0.57600  0.62800  1.0000
  B   B9        1.0  0.14200  0.38000  0.75000  1.0000
  B   B10       1.0  0.85800  0.88000  0.75000  1.0000
  B   B11       1.0  0.85400  0.07570  0.87200  1.0000
  B   B12       1.0  0.14600  0.57600  0.87200  1.0000
  H   H1        1.0  0.73900  0.37600  0.03810  1.0000
  H   H2        1.0  0.26100  0.87600  0.03810  1.0000
  H   H3        1.0  0.16900  0.09240  0.05490  1.0000
  H   H4        1.0  0.83100  0.59200  0.05490  1.0000
  H   H5        1.0  0.49800  0.05790  0.12400  1.0000
  H   H6        1.0  0.50200  0.55800  0.12400  1.0000
  H   H7        1.0  0.14300  0.42200  0.12500  1.0000
  H   H8        1.0  0.85700  0.92200  0.12500  1.0000
  H   H9        1.0  0.85300  0.12200  0.25000  1.0000
  H   H10       1.0  0.25600  0.21500  0.25000  1.0000
  H   H11       1.0  0.83000  0.28300  0.25000  1.0000
  H   H12       1.0  0.50000  0.35500  0.25000  1.0000
  H   H13       1.0  0.14700  0.62200  0.25000  1.0000
  H   H14       1.0  0.74400  0.71500  0.25000  1.0000
  H   H15       1.0  0.17000  0.78300  0.25000  1.0000
  H   H16       1.0  0.50000  0.85500  0.25000  1.0000
  H   H17       1.0  0.14300  0.42200  0.37500  1.0000
  H   H18       1.0  0.85700  0.92200  0.37500  1.0000
  H   H19       1.0  0.49800  0.05790  0.37600  1.0000
  H   H20       1.0  0.50200  0.55800  0.37600  1.0000
  H   H21       1.0  0.16900  0.09240  0.44500  1.0000
  H   H22       1.0  0.83100  0.59200  0.44500  1.0000
  H   H23       1.0  0.73900  0.37600  0.46200  1.0000
  H   H24       1.0  0.26100  0.87600  0.46200  1.0000
  H   H25       1.0  0.73900  0.12400  0.53800  1.0000
  H   H26       1.0  0.26100  0.62400  0.53800  1.0000
  H   H27       1.0  0.16900  0.40800  0.55500  1.0000
  H   H28       1.0  0.83100  0.90800  0.55500  1.0000
  H   H29       1.0  0.49800  0.44200  0.62400  1.0000
  H   H30       1.0  0.50200  0.94200  0.62400  1.0000
  H   H31       1.0  0.14300  0.07790  0.62500  1.0000
  H   H32       1.0  0.85700  0.57800  0.62500  1.0000
  H   H33       1.0  0.50000  0.14500  0.75000  1.0000
  H   H34       1.0  0.83000  0.21700  0.75000  1.0000
  H   H35       1.0  0.25600  0.28500  0.75000  1.0000
  H   H36       1.0  0.85300  0.37800  0.75000  1.0000
  H   H37       1.0  0.50000  0.64500  0.75000  1.0000
  H   H38       1.0  0.17000  0.71700  0.75000  1.0000
  H   H39       1.0  0.74400  0.78500  0.75000  1.0000
  H   H40       1.0  0.14700  0.87800  0.75000  1.0000
  H   H41       1.0  0.14300  0.07790  0.87500  1.0000
  H   H42       1.0  0.85700  0.57800  0.87500  1.0000
  H   H43       1.0  0.49800  0.44200  0.87600  1.0000
  H   H44       1.0  0.50200  0.94200  0.87600  1.0000
  H   H45       1.0  0.16900  0.40800  0.94500  1.0000
  H   H46       1.0  0.83100  0.90800  0.94500  1.0000
  H   H47       1.0  0.73900  0.12400  0.96200  1.0000
  H   H48       1.0  0.26100  0.62400  0.96200  1.0000
  N   N1        1.0  0.25500  0.05260  0.13300  1.0000
  N   N2        1.0  0.74500  0.55300  0.13300  1.0000
  N   N3        1.0  0.74200  0.36500  0.25000  1.0000
  N   N4        1.0  0.25800  0.86500  0.25000  1.0000
  N   N5        1.0  0.25500  0.05260  0.36700  1.0000
  N   N6        1.0  0.74500  0.55300  0.36700  1.0000
  N   N7        1.0  0.25500  0.44700  0.63300  1.0000
  N   N8        1.0  0.74500  0.94700  0.63300  1.0000
  N   N9        1.0  0.74200  0.13500  0.75000  1.0000
  N   N10       1.0  0.25800  0.63500  0.75000  1.0000
  N   N11       1.0  0.25500  0.44700  0.86700  1.0000
  N   N12       1.0  0.74500  0.94700  0.86700  1.0000
