data_image0
_chemical_formula_structural       Fe6O18S6
_chemical_formula_sum              "Fe6 O18 S6"
_cell_length_a       7.7783
_cell_length_b       7.7783
_cell_length_c       7.7783
_cell_angle_alpha    109.559
_cell_angle_beta     109.559
_cell_angle_gamma    109.559

_space_group_name_H-M_alt    "P 1"
_space_group_IT_number       1

loop_
  _space_group_symop_operation_xyz
  'x, y, z'

loop_
  _atom_site_type_symbol
  _atom_site_label
  _atom_site_symmetry_multiplicity
  _atom_site_fract_x
  _atom_site_fract_y
  _atom_site_fract_z
  _atom_site_occupancy
  Fe  Fe1       1.0  0.81000  0.30900  0.13100  1.0000
  Fe  Fe2       1.0  0.69100  0.86900  0.19000  1.0000
  Fe  Fe3       1.0  0.13100  0.81000  0.30900  1.0000
  Fe  Fe4       1.0  0.86900  0.19000  0.69100  1.0000
  Fe  Fe5       1.0  0.30900  0.13100  0.81000  1.0000
  Fe  Fe6       1.0  0.19000  0.69100  0.86900  1.0000
  O   O1        1.0  0.84400  0.73900  0.06060  1.0000
  O   O2        1.0  0.38900  0.63500  0.08820  1.0000
  O   O3        1.0  0.51800  0.19200  0.12900  1.0000
  O   O4        1.0  0.26100  0.93900  0.15600  1.0000
  O   O5        1.0  0.12900  0.51800  0.19200  1.0000
  O   O6        1.0  0.93900  0.15600  0.26100  1.0000
  O   O7        1.0  0.91200  0.61100  0.36500  1.0000
  O   O8        1.0  0.63500  0.08820  0.38900  1.0000
  O   O9        1.0  0.80800  0.87100  0.48200  1.0000
  O   O10       1.0  0.19200  0.12900  0.51800  1.0000
  O   O11       1.0  0.36500  0.91200  0.61100  1.0000
  O   O12       1.0  0.08820  0.38900  0.63500  1.0000
  O   O13       1.0  0.06060  0.84400  0.73900  1.0000
  O   O14       1.0  0.87100  0.48200  0.80800  1.0000
  O   O15       1.0  0.73900  0.06060  0.84400  1.0000
  O   O16       1.0  0.48200  0.80800  0.87100  1.0000
  O   O17       1.0  0.61100  0.36500  0.91200  1.0000
  O   O18       1.0  0.15600  0.26100  0.93900  1.0000
  S   S1        1.0  0.29600  0.47400  0.15300  1.0000
  S   S2        1.0  0.47400  0.15300  0.29600  1.0000
  S   S3        1.0  0.15300  0.29600  0.47400  1.0000
  S   S4        1.0  0.84700  0.70400  0.52600  1.0000
  S   S5        1.0  0.52600  0.84700  0.70400  1.0000
  S   S6        1.0  0.70400  0.52600  0.84700  1.0000
