data_image0
_chemical_formula_structural       Ge4H4Na4O16Sn2
_chemical_formula_sum              "Ge4 H4 Na4 O16 Sn2"
_cell_length_a       5.8457
_cell_length_b       11.6676
_cell_length_c       5.49362
_cell_angle_alpha    107.908
_cell_angle_beta     75.0834
_cell_angle_gamma    94.452

_space_group_name_H-M_alt    "P 1"
_space_group_IT_number       1

loop_
  _space_group_symop_operation_xyz
  'x, y, z'

loop_
  _atom_site_type_symbol
  _atom_site_label
  _atom_site_symmetry_multiplicity
  _atom_site_fract_x
  _atom_site_fract_y
  _atom_site_fract_z
  _atom_site_occupancy
  Ge  Ge1       1.0  0.72400  0.74900  0.05920  1.0000
  Ge  Ge2       1.0  0.43700  0.12500  0.30600  1.0000
  Ge  Ge3       1.0  0.56300  0.87500  0.69400  1.0000
  Ge  Ge4       1.0  0.27600  0.25100  0.94100  1.0000
  H   H1        1.0  0.68400  0.35500  0.15600  1.0000
  H   H2        1.0  0.94300  0.63300  0.48000  1.0000
  H   H3        1.0  0.05720  0.36700  0.52000  1.0000
  H   H4        1.0  0.31600  0.64500  0.84400  1.0000
  Na  Na1       1.0  0.40200  0.56700  0.33900  1.0000
  Na  Na2       1.0  0.18000  0.84900  0.35300  1.0000
  Na  Na3       1.0  0.82000  0.15100  0.64700  1.0000
  Na  Na4       1.0  0.59800  0.43300  0.66100  1.0000
  O   O1        1.0  0.98800  0.82800  0.02150  1.0000
  O   O2        1.0  0.49800  0.20900  0.07180  1.0000
  O   O3        1.0  0.23700  0.40500  0.09540  1.0000
  O   O4        1.0  0.71900  0.44000  0.24000  1.0000
  O   O5        1.0  0.67100  0.03070  0.26300  1.0000
  O   O6        1.0  0.16100  0.05450  0.31700  1.0000
  O   O7        1.0  0.04270  0.64600  0.31800  1.0000
  O   O8        1.0  0.55600  0.76200  0.39000  1.0000
  O   O9        1.0  0.44400  0.23800  0.61000  1.0000
  O   O10       1.0  0.95700  0.35400  0.68200  1.0000
  O   O11       1.0  0.83900  0.94600  0.68300  1.0000
  O   O12       1.0  0.32900  0.96900  0.73700  1.0000
  O   O13       1.0  0.28100  0.56000  0.76000  1.0000
  O   O14       1.0  0.76300  0.59500  0.90500  1.0000
  O   O15       1.0  0.50200  0.79100  0.92800  1.0000
  O   O16       1.0  0.01180  0.17200  0.97800  1.0000
  Sn  Sn1       1.0  0.00000  0.00000  0.00000  1.0000
  Sn  Sn2       1.0  0.00000  0.50000  0.00000  1.0000
