data_image0
_chemical_formula_structural       F16O4W4
_chemical_formula_sum              "F16 O4 W4"
_cell_length_a       4.74059
_cell_length_b       8.04413
_cell_length_c       8.04413
_cell_angle_alpha    112.689
_cell_angle_beta     94.1174
_cell_angle_gamma    94.1174

_space_group_name_H-M_alt    "P 1"
_space_group_IT_number       1

loop_
  _space_group_symop_operation_xyz
  'x, y, z'

loop_
  _atom_site_type_symbol
  _atom_site_label
  _atom_site_symmetry_multiplicity
  _atom_site_fract_x
  _atom_site_fract_y
  _atom_site_fract_z
  _atom_site_occupancy
  F   F1        1.0  0.64700  0.68000  0.08050  1.0000
  F   F2        1.0  0.39500  0.13500  0.13500  1.0000
  F   F3        1.0  0.13000  0.58100  0.17600  1.0000
  F   F4        1.0  0.62500  0.47400  0.27700  1.0000
  F   F5        1.0  0.35300  0.91900  0.32000  1.0000
  F   F6        1.0  0.10800  0.37100  0.37100  1.0000
  F   F7        1.0  0.87000  0.82400  0.41900  1.0000
  F   F8        1.0  0.62500  0.27700  0.47400  1.0000
  F   F9        1.0  0.37500  0.72300  0.52600  1.0000
  F   F10       1.0  0.13000  0.17600  0.58100  1.0000
  F   F11       1.0  0.89200  0.62900  0.62900  1.0000
  F   F12       1.0  0.64700  0.08050  0.68000  1.0000
  F   F13       1.0  0.37500  0.52600  0.72300  1.0000
  F   F14       1.0  0.87000  0.41900  0.82400  1.0000
  F   F15       1.0  0.60500  0.86500  0.86500  1.0000
  F   F16       1.0  0.35300  0.32000  0.91900  1.0000
  O   O1        1.0  0.87400  0.22600  0.02650  1.0000
  O   O2        1.0  0.87400  0.02650  0.22600  1.0000
  O   O3        1.0  0.12600  0.97300  0.77400  1.0000
  O   O4        1.0  0.12600  0.77400  0.97300  1.0000
  W   W1        1.0  0.00000  0.80100  0.19900  1.0000
  W   W2        1.0  0.75300  0.25300  0.25300  1.0000
  W   W3        1.0  0.24700  0.74700  0.74700  1.0000
  W   W4        1.0  0.00000  0.19900  0.80100  1.0000
