data_image0
_chemical_formula_structural       H32K8Mg4N16
_chemical_formula_sum              "H32 K8 Mg4 N16"
_cell_length_a       7.21113
_cell_length_b       6.88155
_cell_length_c       13.263
_cell_angle_alpha    90
_cell_angle_beta     105.426
_cell_angle_gamma    90

_space_group_name_H-M_alt    "P 1"
_space_group_IT_number       1

loop_
  _space_group_symop_operation_xyz
  'x, y, z'

loop_
  _atom_site_type_symbol
  _atom_site_label
  _atom_site_symmetry_multiplicity
  _atom_site_fract_x
  _atom_site_fract_y
  _atom_site_fract_z
  _atom_site_occupancy
  H   H1        1.0  0.39200  0.11000  0.00751  1.0000
  H   H2        1.0  0.88200  0.11000  0.01170  1.0000
  H   H3        1.0  0.03000  0.24000  0.09750  1.0000
  H   H4        1.0  0.32400  0.22100  0.09840  1.0000
  H   H5        1.0  0.12000  0.99200  0.20400  1.0000
  H   H6        1.0  0.34200  0.98300  0.20400  1.0000
  H   H7        1.0  0.11900  0.37300  0.24100  1.0000
  H   H8        1.0  0.34200  0.35200  0.24700  1.0000
  H   H9        1.0  0.65800  0.85200  0.25300  1.0000
  H   H10       1.0  0.88100  0.87300  0.25900  1.0000
  H   H11       1.0  0.65800  0.48300  0.29600  1.0000
  H   H12       1.0  0.88000  0.49200  0.29600  1.0000
  H   H13       1.0  0.67600  0.72100  0.40200  1.0000
  H   H14       1.0  0.97000  0.74000  0.40200  1.0000
  H   H15       1.0  0.11800  0.61000  0.48800  1.0000
  H   H16       1.0  0.60800  0.61000  0.49200  1.0000
  H   H17       1.0  0.39200  0.39000  0.50800  1.0000
  H   H18       1.0  0.88200  0.39000  0.51200  1.0000
  H   H19       1.0  0.03000  0.26000  0.59800  1.0000
  H   H20       1.0  0.32400  0.27900  0.59800  1.0000
  H   H21       1.0  0.12000  0.50800  0.70400  1.0000
  H   H22       1.0  0.34200  0.51700  0.70400  1.0000
  H   H23       1.0  0.11900  0.12700  0.74100  1.0000
  H   H24       1.0  0.34200  0.14800  0.74700  1.0000
  H   H25       1.0  0.65800  0.64800  0.75300  1.0000
  H   H26       1.0  0.88100  0.62700  0.75900  1.0000
  H   H27       1.0  0.65800  0.01720  0.79600  1.0000
  H   H28       1.0  0.88000  0.00836  0.79600  1.0000
  H   H29       1.0  0.67600  0.77900  0.90200  1.0000
  H   H30       1.0  0.97000  0.76000  0.90200  1.0000
  H   H31       1.0  0.11800  0.89000  0.98800  1.0000
  H   H32       1.0  0.60800  0.89000  0.99200  1.0000
  K   K1        1.0  0.92100  0.65000  0.10500  1.0000
  K   K2        1.0  0.42400  0.63500  0.10700  1.0000
  K   K3        1.0  0.57600  0.13500  0.39300  1.0000
  K   K4        1.0  0.07890  0.15000  0.39500  1.0000
  K   K5        1.0  0.92100  0.85000  0.60500  1.0000
  K   K6        1.0  0.42400  0.86500  0.60700  1.0000
  K   K7        1.0  0.57600  0.36500  0.89300  1.0000
  K   K8        1.0  0.07890  0.35000  0.89500  1.0000
  Mg  Mg1       1.0  0.70600  0.20000  0.15400  1.0000
  Mg  Mg2       1.0  0.29400  0.70000  0.34600  1.0000
  Mg  Mg3       1.0  0.70600  0.30000  0.65400  1.0000
  Mg  Mg4       1.0  0.29400  0.80000  0.84600  1.0000
  N   N1        1.0  0.88800  0.23400  0.05590  1.0000
  N   N2        1.0  0.42700  0.22700  0.05740  1.0000
  N   N3        1.0  0.75500  0.95000  0.24000  1.0000
  N   N4        1.0  0.25000  0.93800  0.24700  1.0000
  N   N5        1.0  0.75000  0.43800  0.25300  1.0000
  N   N6        1.0  0.24500  0.45000  0.26000  1.0000
  N   N7        1.0  0.57300  0.72700  0.44300  1.0000
  N   N8        1.0  0.11200  0.73400  0.44400  1.0000
  N   N9        1.0  0.88800  0.26600  0.55600  1.0000
  N   N10       1.0  0.42700  0.27300  0.55700  1.0000
  N   N11       1.0  0.75500  0.55000  0.74000  1.0000
  N   N12       1.0  0.25000  0.56200  0.74700  1.0000
  N   N13       1.0  0.75000  0.06250  0.75300  1.0000
  N   N14       1.0  0.24500  0.04980  0.76000  1.0000
  N   N15       1.0  0.57300  0.77300  0.94300  1.0000
  N   N16       1.0  0.11200  0.76600  0.94400  1.0000
