data_image0
_chemical_formula_structural       Bi4Cu4Pb4S12
_chemical_formula_sum              "Bi4 Cu4 Pb4 S12"
_cell_length_a       11.7689
_cell_length_b       4.0591
_cell_length_c       11.31
_cell_angle_alpha    90
_cell_angle_beta     90
_cell_angle_gamma    90

_space_group_name_H-M_alt    "P 1"
_space_group_IT_number       1

loop_
  _space_group_symop_operation_xyz
  'x, y, z'

loop_
  _atom_site_type_symbol
  _atom_site_label
  _atom_site_symmetry_multiplicity
  _atom_site_fract_x
  _atom_site_fract_y
  _atom_site_fract_z
  _atom_site_occupancy
  Bi  Bi1       1.0  0.48600  0.75000  0.18200  1.0000
  Bi  Bi2       1.0  0.98600  0.75000  0.31800  1.0000
  Bi  Bi3       1.0  0.01430  0.25000  0.68200  1.0000
  Bi  Bi4       1.0  0.51400  0.25000  0.81800  1.0000
  Cu  Cu1       1.0  0.23400  0.25000  0.20700  1.0000
  Cu  Cu2       1.0  0.73400  0.25000  0.29300  1.0000
  Cu  Cu3       1.0  0.26600  0.75000  0.70700  1.0000
  Cu  Cu4       1.0  0.76600  0.75000  0.79300  1.0000
  Pb  Pb1       1.0  0.83100  0.25000  0.01100  1.0000
  Pb  Pb2       1.0  0.33100  0.25000  0.48900  1.0000
  Pb  Pb3       1.0  0.66900  0.75000  0.51100  1.0000
  Pb  Pb4       1.0  0.16900  0.75000  0.98900  1.0000
  S   S1        1.0  0.37900  0.25000  0.05560  1.0000
  S   S2        1.0  0.04650  0.25000  0.14400  1.0000
  S   S3        1.0  0.78600  0.75000  0.20100  1.0000
  S   S4        1.0  0.28600  0.75000  0.29900  1.0000
  S   S5        1.0  0.54700  0.25000  0.35600  1.0000
  S   S6        1.0  0.87900  0.25000  0.44400  1.0000
  S   S7        1.0  0.12100  0.75000  0.55600  1.0000
  S   S8        1.0  0.45300  0.75000  0.64400  1.0000
  S   S9        1.0  0.71400  0.25000  0.70100  1.0000
  S   S10       1.0  0.21400  0.25000  0.79900  1.0000
  S   S11       1.0  0.95300  0.75000  0.85600  1.0000
  S   S12       1.0  0.62100  0.75000  0.94400  1.0000
