data_image0
_chemical_formula_structural       Eu4P28
_chemical_formula_sum              "Eu4 P28"
_cell_length_a       11.5015
_cell_length_b       5.71969
_cell_length_c       10.612
_cell_angle_alpha    90
_cell_angle_beta     106.159
_cell_angle_gamma    90

_space_group_name_H-M_alt    "P 1"
_space_group_IT_number       1

loop_
  _space_group_symop_operation_xyz
  'x, y, z'

loop_
  _atom_site_type_symbol
  _atom_site_label
  _atom_site_symmetry_multiplicity
  _atom_site_fract_x
  _atom_site_fract_y
  _atom_site_fract_z
  _atom_site_occupancy
  Eu  Eu1       1.0  0.28600  0.39300  0.03770  1.0000
  Eu  Eu2       1.0  0.21400  0.89300  0.46200  1.0000
  Eu  Eu3       1.0  0.78600  0.10700  0.53800  1.0000
  Eu  Eu4       1.0  0.71400  0.60700  0.96200  1.0000
  P   P1        1.0  0.08470  0.04090  0.07920  1.0000
  P   P2        1.0  0.72300  0.09510  0.08690  1.0000
  P   P3        1.0  0.56600  0.21900  0.14800  1.0000
  P   P4        1.0  0.95900  0.55400  0.16900  1.0000
  P   P5        1.0  0.13800  0.70300  0.17600  1.0000
  P   P6        1.0  0.63800  0.56800  0.22300  1.0000
  P   P7        1.0  0.03050  0.20700  0.24600  1.0000
  P   P8        1.0  0.47000  0.70700  0.25400  1.0000
  P   P9        1.0  0.86200  0.06750  0.27700  1.0000
  P   P10       1.0  0.36200  0.20300  0.32400  1.0000
  P   P11       1.0  0.54100  0.05440  0.33100  1.0000
  P   P12       1.0  0.93400  0.71900  0.35200  1.0000
  P   P13       1.0  0.77700  0.59500  0.41300  1.0000
  P   P14       1.0  0.41500  0.54100  0.42100  1.0000
  P   P15       1.0  0.58500  0.45900  0.57900  1.0000
  P   P16       1.0  0.22300  0.40500  0.58700  1.0000
  P   P17       1.0  0.06580  0.28100  0.64800  1.0000
  P   P18       1.0  0.45900  0.94600  0.66900  1.0000
  P   P19       1.0  0.63800  0.79700  0.67600  1.0000
  P   P20       1.0  0.13800  0.93200  0.72300  1.0000
  P   P21       1.0  0.53000  0.29300  0.74600  1.0000
  P   P22       1.0  0.97000  0.79300  0.75400  1.0000
  P   P23       1.0  0.36200  0.43200  0.77700  1.0000
  P   P24       1.0  0.86200  0.29700  0.82400  1.0000
  P   P25       1.0  0.04140  0.44600  0.83100  1.0000
  P   P26       1.0  0.43400  0.78100  0.85200  1.0000
  P   P27       1.0  0.27700  0.90500  0.91300  1.0000
  P   P28       1.0  0.91500  0.95900  0.92100  1.0000
