data_image0
_chemical_formula_structural       Fe4O10Sr4
_chemical_formula_sum              "Fe4 O10 Sr4"
_cell_length_a       5.51671
_cell_length_b       5.68813
_cell_length_c       8.74088
_cell_angle_alpha    108.988
_cell_angle_beta     108.395
_cell_angle_gamma    90

_space_group_name_H-M_alt    "P 1"
_space_group_IT_number       1

loop_
  _space_group_symop_operation_xyz
  'x, y, z'

loop_
  _atom_site_type_symbol
  _atom_site_label
  _atom_site_symmetry_multiplicity
  _atom_site_fract_x
  _atom_site_fract_y
  _atom_site_fract_z
  _atom_site_occupancy
  Fe  Fe1       1.0  0.99200  0.00000  0.00000  1.0000
  Fe  Fe2       1.0  0.49200  0.50000  0.00000  1.0000
  Fe  Fe3       1.0  0.28300  0.31800  0.50000  1.0000
  Fe  Fe4       1.0  0.78300  0.68200  0.50000  1.0000
  O   O1        1.0  0.25200  0.25600  0.01810  1.0000
  O   O2        1.0  0.75200  0.26200  0.01810  1.0000
  O   O3        1.0  0.11700  0.08780  0.28000  1.0000
  O   O4        1.0  0.61700  0.69300  0.28000  1.0000
  O   O5        1.0  0.62800  0.38000  0.50000  1.0000
  O   O6        1.0  0.12800  0.62000  0.50000  1.0000
  O   O7        1.0  0.33600  0.30700  0.72000  1.0000
  O   O8        1.0  0.83600  0.91200  0.72000  1.0000
  O   O9        1.0  0.73400  0.73800  0.98200  1.0000
  O   O10       1.0  0.23400  0.74400  0.98200  1.0000
  Sr  Sr1       1.0  0.60600  0.09210  0.21800  1.0000
  Sr  Sr2       1.0  0.10600  0.62600  0.21800  1.0000
  Sr  Sr3       1.0  0.88800  0.37400  0.78200  1.0000
  Sr  Sr4       1.0  0.38800  0.90800  0.78200  1.0000
