data_image0
_chemical_formula_structural       O24Se4U4
_chemical_formula_sum              "O24 Se4 U4"
_cell_length_a       6.85517
_cell_length_b       5.39172
_cell_length_c       13.2595
_cell_angle_alpha    90
_cell_angle_beta     103.985
_cell_angle_gamma    90

_space_group_name_H-M_alt    "P 1"
_space_group_IT_number       1

loop_
  _space_group_symop_operation_xyz
  'x, y, z'

loop_
  _atom_site_type_symbol
  _atom_site_label
  _atom_site_symmetry_multiplicity
  _atom_site_fract_x
  _atom_site_fract_y
  _atom_site_fract_z
  _atom_site_occupancy
  O   O1        1.0  0.68600  0.35800  0.02210  1.0000
  O   O2        1.0  0.26000  0.09540  0.08610  1.0000
  O   O3        1.0  0.01840  0.64100  0.09110  1.0000
  O   O4        1.0  0.66400  0.81000  0.11600  1.0000
  O   O5        1.0  0.42200  0.51600  0.21100  1.0000
  O   O6        1.0  0.84300  0.40400  0.22700  1.0000
  O   O7        1.0  0.15700  0.90400  0.27300  1.0000
  O   O8        1.0  0.57800  0.01620  0.28900  1.0000
  O   O9        1.0  0.33600  0.31000  0.38400  1.0000
  O   O10       1.0  0.98200  0.14100  0.40900  1.0000
  O   O11       1.0  0.74000  0.59500  0.41400  1.0000
  O   O12       1.0  0.31400  0.85800  0.47800  1.0000
  O   O13       1.0  0.68600  0.14200  0.52200  1.0000
  O   O14       1.0  0.26000  0.40500  0.58600  1.0000
  O   O15       1.0  0.01830  0.85900  0.59100  1.0000
  O   O16       1.0  0.66400  0.69000  0.61600  1.0000
  O   O17       1.0  0.42200  0.98400  0.71100  1.0000
  O   O18       1.0  0.84300  0.09560  0.72700  1.0000
  O   O19       1.0  0.15700  0.59600  0.77300  1.0000
  O   O20       1.0  0.57800  0.48400  0.78900  1.0000
  O   O21       1.0  0.33600  0.19000  0.88400  1.0000
  O   O22       1.0  0.98200  0.35900  0.90900  1.0000
  O   O23       1.0  0.74000  0.90500  0.91400  1.0000
  O   O24       1.0  0.31400  0.64200  0.97800  1.0000
  Se  Se1       1.0  0.80200  0.55500  0.11300  1.0000
  Se  Se2       1.0  0.19800  0.05450  0.38700  1.0000
  Se  Se3       1.0  0.80200  0.94500  0.61300  1.0000
  Se  Se4       1.0  0.19800  0.44500  0.88700  1.0000
  U   U1        1.0  0.33700  0.80700  0.14600  1.0000
  U   U2        1.0  0.66300  0.30700  0.35400  1.0000
  U   U3        1.0  0.33700  0.69300  0.64600  1.0000
  U   U4        1.0  0.66300  0.19300  0.85400  1.0000
