data_image0
_chemical_formula_structural       Be4F20K12
_chemical_formula_sum              "Be4 F20 K12"
_cell_length_a       6.92397
_cell_length_b       6.92397
_cell_length_c       10.5262
_cell_angle_alpha    90
_cell_angle_beta     90
_cell_angle_gamma    90

_space_group_name_H-M_alt    "P 1"
_space_group_IT_number       1

loop_
  _space_group_symop_operation_xyz
  'x, y, z'

loop_
  _atom_site_type_symbol
  _atom_site_label
  _atom_site_symmetry_multiplicity
  _atom_site_fract_x
  _atom_site_fract_y
  _atom_site_fract_z
  _atom_site_occupancy
  Be  Be1       1.0  0.00000  0.00000  0.00000  1.0000
  Be  Be2       1.0  0.50000  0.50000  0.00000  1.0000
  Be  Be3       1.0  0.00000  0.00000  0.50000  1.0000
  Be  Be4       1.0  0.50000  0.50000  0.50000  1.0000
  F   F1        1.0  0.87100  0.12800  0.08640  1.0000
  F   F2        1.0  0.37200  0.37100  0.08640  1.0000
  F   F3        1.0  0.62800  0.62900  0.08640  1.0000
  F   F4        1.0  0.12900  0.87200  0.08640  1.0000
  F   F5        1.0  0.50000  0.00000  0.25000  1.0000
  F   F6        1.0  0.00000  0.50000  0.25000  1.0000
  F   F7        1.0  0.87200  0.12900  0.41400  1.0000
  F   F8        1.0  0.37100  0.37200  0.41400  1.0000
  F   F9        1.0  0.62900  0.62800  0.41400  1.0000
  F   F10       1.0  0.12800  0.87100  0.41400  1.0000
  F   F11       1.0  0.12900  0.12800  0.58600  1.0000
  F   F12       1.0  0.62800  0.37100  0.58600  1.0000
  F   F13       1.0  0.37200  0.62900  0.58600  1.0000
  F   F14       1.0  0.87100  0.87200  0.58600  1.0000
  F   F15       1.0  0.50000  0.00000  0.75000  1.0000
  F   F16       1.0  0.00000  0.50000  0.75000  1.0000
  F   F17       1.0  0.12800  0.12900  0.91400  1.0000
  F   F18       1.0  0.62900  0.37200  0.91400  1.0000
  F   F19       1.0  0.37100  0.62800  0.91400  1.0000
  F   F20       1.0  0.87200  0.87100  0.91400  1.0000
  K   K1        1.0  0.50000  0.00000  0.00000  1.0000
  K   K2        1.0  0.00000  0.50000  0.00000  1.0000
  K   K3        1.0  0.17600  0.17600  0.25000  1.0000
  K   K4        1.0  0.67600  0.32400  0.25000  1.0000
  K   K5        1.0  0.32400  0.67600  0.25000  1.0000
  K   K6        1.0  0.82400  0.82400  0.25000  1.0000
  K   K7        1.0  0.00000  0.50000  0.50000  1.0000
  K   K8        1.0  0.50000  0.00000  0.50000  1.0000
  K   K9        1.0  0.82400  0.17600  0.75000  1.0000
  K   K10       1.0  0.32400  0.32400  0.75000  1.0000
  K   K11       1.0  0.67600  0.67600  0.75000  1.0000
  K   K12       1.0  0.17600  0.82400  0.75000  1.0000
