data_image0
_chemical_formula_structural       Cs4F16I4O4
_chemical_formula_sum              "Cs4 F16 I4 O4"
_cell_length_a       5.76897
_cell_length_b       14.8288
_cell_length_c       5.84119
_cell_angle_alpha    90
_cell_angle_beta     90
_cell_angle_gamma    90

_space_group_name_H-M_alt    "P 1"
_space_group_IT_number       1

loop_
  _space_group_symop_operation_xyz
  'x, y, z'

loop_
  _atom_site_type_symbol
  _atom_site_label
  _atom_site_symmetry_multiplicity
  _atom_site_fract_x
  _atom_site_fract_y
  _atom_site_fract_z
  _atom_site_occupancy
  Cs  Cs1       1.0  0.25000  0.90000  0.20700  1.0000
  Cs  Cs2       1.0  0.75000  0.40000  0.29300  1.0000
  Cs  Cs3       1.0  0.25000  0.60000  0.70700  1.0000
  Cs  Cs4       1.0  0.75000  0.09980  0.79300  1.0000
  F   F1        1.0  0.00515  0.24200  0.09550  1.0000
  F   F2        1.0  0.49500  0.24200  0.09550  1.0000
  F   F3        1.0  0.50500  0.57900  0.14800  1.0000
  F   F4        1.0  0.99500  0.57900  0.14800  1.0000
  F   F5        1.0  0.00495  0.07890  0.35200  1.0000
  F   F6        1.0  0.49500  0.07890  0.35200  1.0000
  F   F7        1.0  0.50500  0.74200  0.40400  1.0000
  F   F8        1.0  0.99500  0.74200  0.40400  1.0000
  F   F9        1.0  0.00515  0.25800  0.59600  1.0000
  F   F10       1.0  0.49500  0.25800  0.59600  1.0000
  F   F11       1.0  0.50500  0.92100  0.64800  1.0000
  F   F12       1.0  0.99500  0.92100  0.64800  1.0000
  F   F13       1.0  0.00495  0.42100  0.85200  1.0000
  F   F14       1.0  0.49500  0.42100  0.85200  1.0000
  F   F15       1.0  0.50500  0.75800  0.90400  1.0000
  F   F16       1.0  0.99500  0.75800  0.90400  1.0000
  I   I1        1.0  0.25000  0.16100  0.23300  1.0000
  I   I2        1.0  0.75000  0.66100  0.26700  1.0000
  I   I3        1.0  0.25000  0.33900  0.73300  1.0000
  I   I4        1.0  0.75000  0.83900  0.76700  1.0000
  O   O1        1.0  0.75000  0.90200  0.02610  1.0000
  O   O2        1.0  0.25000  0.40200  0.47400  1.0000
  O   O3        1.0  0.75000  0.59800  0.52600  1.0000
  O   O4        1.0  0.25000  0.09820  0.97400  1.0000
