data_image0
_chemical_formula_structural       Fe4O16Sb8
_chemical_formula_sum              "Fe4 O16 Sb8"
_cell_length_a       5.77823
_cell_length_b       8.14883
_cell_length_c       8.43378
_cell_angle_alpha    90
_cell_angle_beta     93.6122
_cell_angle_gamma    90

_space_group_name_H-M_alt    "P 1"
_space_group_IT_number       1

loop_
  _space_group_symop_operation_xyz
  'x, y, z'

loop_
  _atom_site_type_symbol
  _atom_site_label
  _atom_site_symmetry_multiplicity
  _atom_site_fract_x
  _atom_site_fract_y
  _atom_site_fract_z
  _atom_site_occupancy
  Fe  Fe1       1.0  0.25100  0.50100  0.99500  1.0000
  Fe  Fe2       1.0  0.74900  0.00108  0.50500  1.0000
  Fe  Fe3       1.0  0.74900  0.49900  0.00495  1.0000
  Fe  Fe4       1.0  0.25100  0.99900  0.49500  1.0000
  O   O1        1.0  0.22200  0.78900  0.65100  1.0000
  O   O2        1.0  0.77800  0.28900  0.84900  1.0000
  O   O3        1.0  0.27600  0.14300  0.29400  1.0000
  O   O4        1.0  0.72400  0.64300  0.20600  1.0000
  O   O5        1.0  0.72400  0.85700  0.70600  1.0000
  O   O6        1.0  0.27600  0.35700  0.79400  1.0000
  O   O7        1.0  0.03650  0.40100  0.15100  1.0000
  O   O8        1.0  0.96400  0.90100  0.34900  1.0000
  O   O9        1.0  0.96400  0.59900  0.84900  1.0000
  O   O10       1.0  0.03650  0.09860  0.65100  1.0000
  O   O11       1.0  0.51400  0.16000  0.59200  1.0000
  O   O12       1.0  0.48600  0.66000  0.90800  1.0000
  O   O13       1.0  0.48600  0.84000  0.40800  1.0000
  O   O14       1.0  0.51400  0.34000  0.09210  1.0000
  O   O15       1.0  0.77800  0.21100  0.34900  1.0000
  O   O16       1.0  0.22200  0.71100  0.15100  1.0000
  Sb  Sb1       1.0  0.97100  0.33800  0.66500  1.0000
  Sb  Sb2       1.0  0.02860  0.83800  0.83500  1.0000
  Sb  Sb3       1.0  0.02860  0.66200  0.33500  1.0000
  Sb  Sb4       1.0  0.97100  0.16200  0.16500  1.0000
  Sb  Sb5       1.0  0.51900  0.65800  0.67500  1.0000
  Sb  Sb6       1.0  0.48100  0.15800  0.82500  1.0000
  Sb  Sb7       1.0  0.48100  0.34200  0.32500  1.0000
  Sb  Sb8       1.0  0.51900  0.84200  0.17500  1.0000
