data_image0
_chemical_formula_structural       Ge6K2O18Ta2
_chemical_formula_sum              "Ge6 K2 O18 Ta2"
_cell_length_a       6.93218
_cell_length_b       6.93218
_cell_length_c       10.2387
_cell_angle_alpha    90
_cell_angle_beta     90
_cell_angle_gamma    120

_space_group_name_H-M_alt    "P 1"
_space_group_IT_number       1

loop_
  _space_group_symop_operation_xyz
  'x, y, z'

loop_
  _atom_site_type_symbol
  _atom_site_label
  _atom_site_symmetry_multiplicity
  _atom_site_fract_x
  _atom_site_fract_y
  _atom_site_fract_z
  _atom_site_occupancy
  Ge  Ge1       1.0  0.06930  0.29100  0.25000  1.0000
  Ge  Ge2       1.0  0.70900  0.77800  0.25000  1.0000
  Ge  Ge3       1.0  0.22200  0.93100  0.25000  1.0000
  Ge  Ge4       1.0  0.22200  0.29100  0.75000  1.0000
  Ge  Ge5       1.0  0.06930  0.77800  0.75000  1.0000
  Ge  Ge6       1.0  0.70900  0.93100  0.75000  1.0000
  K   K1        1.0  0.66700  0.33300  0.00000  1.0000
  K   K2        1.0  0.66700  0.33300  0.50000  1.0000
  O   O1        1.0  0.08880  0.43900  0.10900  1.0000
  O   O2        1.0  0.56100  0.65000  0.10900  1.0000
  O   O3        1.0  0.35000  0.91100  0.10900  1.0000
  O   O4        1.0  0.79300  0.06450  0.25000  1.0000
  O   O5        1.0  0.27200  0.20700  0.25000  1.0000
  O   O6        1.0  0.93500  0.72800  0.25000  1.0000
  O   O7        1.0  0.56100  0.65000  0.39100  1.0000
  O   O8        1.0  0.35000  0.91100  0.39100  1.0000
  O   O9        1.0  0.08880  0.43900  0.39100  1.0000
  O   O10       1.0  0.35000  0.43900  0.60900  1.0000
  O   O11       1.0  0.08880  0.65000  0.60900  1.0000
  O   O12       1.0  0.56100  0.91100  0.60900  1.0000
  O   O13       1.0  0.27200  0.06450  0.75000  1.0000
  O   O14       1.0  0.93500  0.20700  0.75000  1.0000
  O   O15       1.0  0.79300  0.72800  0.75000  1.0000
  O   O16       1.0  0.56100  0.91100  0.89100  1.0000
  O   O17       1.0  0.35000  0.43900  0.89100  1.0000
  O   O18       1.0  0.08880  0.65000  0.89100  1.0000
  Ta  Ta1       1.0  0.33300  0.66700  0.00000  1.0000
  Ta  Ta2       1.0  0.33300  0.66700  0.50000  1.0000
