data_image0
_chemical_formula_structural       Ag8I8O24
_chemical_formula_sum              "Ag8 I8 O24"
_cell_length_a       7.12086
_cell_length_b       15.1121
_cell_length_c       5.70328
_cell_angle_alpha    90
_cell_angle_beta     90
_cell_angle_gamma    90

_space_group_name_H-M_alt    "P 1"
_space_group_IT_number       1

loop_
  _space_group_symop_operation_xyz
  'x, y, z'

loop_
  _atom_site_type_symbol
  _atom_site_label
  _atom_site_symmetry_multiplicity
  _atom_site_fract_x
  _atom_site_fract_y
  _atom_site_fract_z
  _atom_site_occupancy
  Ag  Ag1       1.0  0.87000  0.29400  0.00575  1.0000
  Ag  Ag2       1.0  0.13000  0.79400  0.00575  1.0000
  Ag  Ag3       1.0  0.39300  0.20200  0.49600  1.0000
  Ag  Ag4       1.0  0.60700  0.70200  0.49600  1.0000
  Ag  Ag5       1.0  0.87000  0.20600  0.50600  1.0000
  Ag  Ag6       1.0  0.13000  0.70600  0.50600  1.0000
  Ag  Ag7       1.0  0.39300  0.29800  0.99600  1.0000
  Ag  Ag8       1.0  0.60700  0.79800  0.99600  1.0000
  I   I1        1.0  0.13000  0.41400  0.41100  1.0000
  I   I2        1.0  0.87000  0.91400  0.41100  1.0000
  I   I3        1.0  0.63600  0.41600  0.47800  1.0000
  I   I4        1.0  0.36400  0.91600  0.47800  1.0000
  I   I5        1.0  0.13000  0.08600  0.91100  1.0000
  I   I6        1.0  0.87000  0.58600  0.91100  1.0000
  I   I7        1.0  0.63600  0.08420  0.97800  1.0000
  I   I8        1.0  0.36400  0.58400  0.97800  1.0000
  O   O1        1.0  0.83600  0.11500  0.17100  1.0000
  O   O2        1.0  0.16400  0.61500  0.17100  1.0000
  O   O3        1.0  0.43700  0.10200  0.18200  1.0000
  O   O4        1.0  0.56300  0.60200  0.18200  1.0000
  O   O5        1.0  0.32600  0.43800  0.20200  1.0000
  O   O6        1.0  0.67400  0.93800  0.20200  1.0000
  O   O7        1.0  0.93500  0.43700  0.20500  1.0000
  O   O8        1.0  0.06480  0.93700  0.20500  1.0000
  O   O9        1.0  0.62500  0.30600  0.32800  1.0000
  O   O10       1.0  0.37500  0.80600  0.32800  1.0000
  O   O11       1.0  0.13600  0.29400  0.35800  1.0000
  O   O12       1.0  0.86400  0.79400  0.35800  1.0000
  O   O13       1.0  0.83600  0.38500  0.67100  1.0000
  O   O14       1.0  0.16400  0.88500  0.67100  1.0000
  O   O15       1.0  0.43700  0.39800  0.68200  1.0000
  O   O16       1.0  0.56300  0.89800  0.68200  1.0000
  O   O17       1.0  0.32600  0.06170  0.70200  1.0000
  O   O18       1.0  0.67400  0.56200  0.70200  1.0000
  O   O19       1.0  0.93500  0.06290  0.70500  1.0000
  O   O20       1.0  0.06480  0.56300  0.70500  1.0000
  O   O21       1.0  0.62500  0.19400  0.82800  1.0000
  O   O22       1.0  0.37500  0.69400  0.82800  1.0000
  O   O23       1.0  0.13600  0.20600  0.85800  1.0000
  O   O24       1.0  0.86400  0.70600  0.85800  1.0000
