data_image0
_chemical_formula_structural       H16N4O12V4
_chemical_formula_sum              "H16 N4 O12 V4"
_cell_length_a       4.73642
_cell_length_b       11.5895
_cell_length_c       5.75915
_cell_angle_alpha    90
_cell_angle_beta     90
_cell_angle_gamma    90

_space_group_name_H-M_alt    "P 1"
_space_group_IT_number       1

loop_
  _space_group_symop_operation_xyz
  'x, y, z'

loop_
  _atom_site_type_symbol
  _atom_site_label
  _atom_site_symmetry_multiplicity
  _atom_site_fract_x
  _atom_site_fract_y
  _atom_site_fract_z
  _atom_site_occupancy
  H   H1        1.0  0.94800  0.36100  0.10500  1.0000
  H   H2        1.0  0.05230  0.86100  0.10500  1.0000
  H   H3        1.0  0.74800  0.45900  0.25000  1.0000
  H   H4        1.0  0.11500  0.46900  0.25000  1.0000
  H   H5        1.0  0.25200  0.95900  0.25000  1.0000
  H   H6        1.0  0.88500  0.96900  0.25000  1.0000
  H   H7        1.0  0.94800  0.36100  0.39500  1.0000
  H   H8        1.0  0.05230  0.86100  0.39500  1.0000
  H   H9        1.0  0.94800  0.13900  0.60500  1.0000
  H   H10       1.0  0.05230  0.63900  0.60500  1.0000
  H   H11       1.0  0.11500  0.03060  0.75000  1.0000
  H   H12       1.0  0.74800  0.04130  0.75000  1.0000
  H   H13       1.0  0.88500  0.53100  0.75000  1.0000
  H   H14       1.0  0.25200  0.54100  0.75000  1.0000
  H   H15       1.0  0.94800  0.13900  0.89500  1.0000
  H   H16       1.0  0.05230  0.63900  0.89500  1.0000
  N   N1        1.0  0.94100  0.41300  0.25000  1.0000
  N   N2        1.0  0.05950  0.91300  0.25000  1.0000
  N   N3        1.0  0.94100  0.08660  0.75000  1.0000
  N   N4        1.0  0.05950  0.58700  0.75000  1.0000
  O   O1        1.0  0.58500  0.25000  0.00000  1.0000
  O   O2        1.0  0.41500  0.75000  0.00000  1.0000
  O   O3        1.0  0.56700  0.03310  0.25000  1.0000
  O   O4        1.0  0.10900  0.17000  0.25000  1.0000
  O   O5        1.0  0.43300  0.53300  0.25000  1.0000
  O   O6        1.0  0.89100  0.67000  0.25000  1.0000
  O   O7        1.0  0.58500  0.25000  0.50000  1.0000
  O   O8        1.0  0.41500  0.75000  0.50000  1.0000
  O   O9        1.0  0.10900  0.33000  0.75000  1.0000
  O   O10       1.0  0.56700  0.46700  0.75000  1.0000
  O   O11       1.0  0.89100  0.83000  0.75000  1.0000
  O   O12       1.0  0.43300  0.96700  0.75000  1.0000
  V   V1        1.0  0.45900  0.17100  0.25000  1.0000
  V   V2        1.0  0.54100  0.67100  0.25000  1.0000
  V   V3        1.0  0.45900  0.32900  0.75000  1.0000
  V   V4        1.0  0.54100  0.82900  0.75000  1.0000
