data_image0
_chemical_formula_structural       Ni6O16P4
_chemical_formula_sum              "Ni6 O16 P4"
_cell_length_a       5.78135
_cell_length_b       4.6772
_cell_length_c       10.0502
_cell_angle_alpha    90
_cell_angle_beta     91.4247
_cell_angle_gamma    90

_space_group_name_H-M_alt    "P 1"
_space_group_IT_number       1

loop_
  _space_group_symop_operation_xyz
  'x, y, z'

loop_
  _atom_site_type_symbol
  _atom_site_label
  _atom_site_symmetry_multiplicity
  _atom_site_fract_x
  _atom_site_fract_y
  _atom_site_fract_z
  _atom_site_occupancy
  Ni  Ni1       1.0  0.50000  0.00000  0.00000  1.0000
  Ni  Ni2       1.0  0.75700  0.48600  0.22700  1.0000
  Ni  Ni3       1.0  0.24300  0.98600  0.27300  1.0000
  Ni  Ni4       1.0  0.50000  0.50000  0.50000  1.0000
  Ni  Ni5       1.0  0.75700  0.01360  0.72700  1.0000
  Ni  Ni6       1.0  0.24300  0.51400  0.77300  1.0000
  O   O1        1.0  0.74500  0.69500  0.04990  1.0000
  O   O2        1.0  0.26500  0.74900  0.10000  1.0000
  O   O3        1.0  0.46800  0.26400  0.16300  1.0000
  O   O4        1.0  0.04870  0.29800  0.17400  1.0000
  O   O5        1.0  0.95100  0.79800  0.32600  1.0000
  O   O6        1.0  0.53200  0.76400  0.33700  1.0000
  O   O7        1.0  0.73500  0.24900  0.40000  1.0000
  O   O8        1.0  0.25500  0.19500  0.45000  1.0000
  O   O9        1.0  0.74500  0.80500  0.55000  1.0000
  O   O10       1.0  0.26500  0.75100  0.60000  1.0000
  O   O11       1.0  0.46800  0.23600  0.66300  1.0000
  O   O12       1.0  0.04870  0.20200  0.67400  1.0000
  O   O13       1.0  0.95100  0.70200  0.82600  1.0000
  O   O14       1.0  0.53200  0.73600  0.83700  1.0000
  O   O15       1.0  0.73500  0.25100  0.90000  1.0000
  O   O16       1.0  0.25500  0.30500  0.95000  1.0000
  P   P1        1.0  0.25000  0.42200  0.09420  1.0000
  P   P2        1.0  0.75000  0.92200  0.40600  1.0000
  P   P3        1.0  0.25000  0.07840  0.59400  1.0000
  P   P4        1.0  0.75000  0.57800  0.90600  1.0000
