data_image0
_chemical_formula_structural       Ir8Sc22
_chemical_formula_sum              "Ir8 Sc22"
_cell_length_a       9.41384
_cell_length_b       9.41384
_cell_length_c       9.41384
_cell_angle_alpha    120
_cell_angle_beta     90
_cell_angle_gamma    120

_space_group_name_H-M_alt    "P 1"
_space_group_IT_number       1

loop_
  _space_group_symop_operation_xyz
  'x, y, z'

loop_
  _atom_site_type_symbol
  _atom_site_label
  _atom_site_symmetry_multiplicity
  _atom_site_fract_x
  _atom_site_fract_y
  _atom_site_fract_z
  _atom_site_occupancy
  Ir  Ir1       1.0  0.00000  0.00000  0.00000  1.0000
  Ir  Ir2       1.0  0.50000  0.00000  0.00000  1.0000
  Ir  Ir3       1.0  0.00000  0.50000  0.00000  1.0000
  Ir  Ir4       1.0  0.50000  0.50000  0.00000  1.0000
  Ir  Ir5       1.0  0.00000  0.00000  0.50000  1.0000
  Ir  Ir6       1.0  0.00000  0.50000  0.50000  1.0000
  Ir  Ir7       1.0  0.50000  0.50000  0.50000  1.0000
  Ir  Ir8       1.0  0.50000  0.00000  0.50000  1.0000
  Sc  Sc1       1.0  0.38200  0.76500  0.14700  1.0000
  Sc  Sc2       1.0  0.47000  0.31400  0.15700  1.0000
  Sc  Sc3       1.0  0.84300  0.31400  0.15700  1.0000
  Sc  Sc4       1.0  0.84300  0.68600  0.15700  1.0000
  Sc  Sc5       1.0  0.80100  0.00000  0.19900  1.0000
  Sc  Sc6       1.0  0.19900  0.00000  0.19900  1.0000
  Sc  Sc7       1.0  0.19900  0.39800  0.19900  1.0000
  Sc  Sc8       1.0  0.61800  0.23500  0.38200  1.0000
  Sc  Sc9       1.0  0.14700  0.76500  0.38200  1.0000
  Sc  Sc10      1.0  0.61800  0.76500  0.38200  1.0000
  Sc  Sc11      1.0  0.15700  0.31400  0.47000  1.0000
  Sc  Sc12      1.0  0.84300  0.68600  0.53000  1.0000
  Sc  Sc13      1.0  0.38200  0.23500  0.61800  1.0000
  Sc  Sc14      1.0  0.38200  0.76500  0.61800  1.0000
  Sc  Sc15      1.0  0.85300  0.23500  0.61800  1.0000
  Sc  Sc16      1.0  0.19900  1.00000  0.80100  1.0000
  Sc  Sc17      1.0  0.80100  1.00000  0.80100  1.0000
  Sc  Sc18      1.0  0.80100  0.60200  0.80100  1.0000
  Sc  Sc19      1.0  0.15700  0.31400  0.84300  1.0000
  Sc  Sc20      1.0  0.15700  0.68600  0.84300  1.0000
  Sc  Sc21      1.0  0.53000  0.68600  0.84300  1.0000
  Sc  Sc22      1.0  0.61800  0.23500  0.85300  1.0000
