data_image0
_chemical_formula_structural       Co8Y12
_chemical_formula_sum              "Co8 Y12"
_cell_length_a       12.158
_cell_length_b       9.34265
_cell_length_c       3.88844
_cell_angle_alpha    90
_cell_angle_beta     90
_cell_angle_gamma    90

_space_group_name_H-M_alt    "P 1"
_space_group_IT_number       1

loop_
  _space_group_symop_operation_xyz
  'x, y, z'

loop_
  _atom_site_type_symbol
  _atom_site_label
  _atom_site_symmetry_multiplicity
  _atom_site_fract_x
  _atom_site_fract_y
  _atom_site_fract_z
  _atom_site_occupancy
  Co  Co1       1.0  0.53500  0.12200  0.00000  1.0000
  Co  Co2       1.0  0.73200  0.13800  0.00000  1.0000
  Co  Co3       1.0  0.26800  0.86200  0.00000  1.0000
  Co  Co4       1.0  0.46500  0.87800  0.00000  1.0000
  Co  Co5       1.0  0.23200  0.36200  0.50000  1.0000
  Co  Co6       1.0  0.03470  0.37800  0.50000  1.0000
  Co  Co7       1.0  0.96500  0.62200  0.50000  1.0000
  Co  Co8       1.0  0.76800  0.63800  0.50000  1.0000
  Y   Y1        1.0  0.12700  0.19500  0.00000  1.0000
  Y   Y2        1.0  0.38700  0.37500  0.00000  1.0000
  Y   Y3        1.0  0.86500  0.42900  0.00000  1.0000
  Y   Y4        1.0  0.13500  0.57100  0.00000  1.0000
  Y   Y5        1.0  0.61300  0.62500  0.00000  1.0000
  Y   Y6        1.0  0.87300  0.80500  0.00000  1.0000
  Y   Y7        1.0  0.36500  0.07100  0.50000  1.0000
  Y   Y8        1.0  0.88700  0.12500  0.50000  1.0000
  Y   Y9        1.0  0.62700  0.30500  0.50000  1.0000
  Y   Y10       1.0  0.37300  0.69500  0.50000  1.0000
  Y   Y11       1.0  0.11300  0.87500  0.50000  1.0000
  Y   Y12       1.0  0.63500  0.92900  0.50000  1.0000
