data_image0
_chemical_formula_structural       H20Li4N8O16S4
_chemical_formula_sum              "H20 Li4 N8 O16 S4"
_cell_length_a       9.81143
_cell_length_b       8.74548
_cell_length_c       5.01893
_cell_angle_alpha    90
_cell_angle_beta     90
_cell_angle_gamma    90

_space_group_name_H-M_alt    "P 1"
_space_group_IT_number       1

loop_
  _space_group_symop_operation_xyz
  'x, y, z'

loop_
  _atom_site_type_symbol
  _atom_site_label
  _atom_site_symmetry_multiplicity
  _atom_site_fract_x
  _atom_site_fract_y
  _atom_site_fract_z
  _atom_site_occupancy
  H   H1        1.0  0.98900  0.52400  0.05790  1.0000
  H   H2        1.0  0.48900  0.97600  0.05790  1.0000
  H   H3        1.0  0.52600  0.71100  0.09230  1.0000
  H   H4        1.0  0.02640  0.78900  0.09230  1.0000
  H   H5        1.0  0.15900  0.68500  0.19400  1.0000
  H   H6        1.0  0.65900  0.81500  0.19400  1.0000
  H   H7        1.0  0.87700  0.61100  0.25900  1.0000
  H   H8        1.0  0.37700  0.88900  0.25900  1.0000
  H   H9        1.0  0.55300  0.73500  0.42500  1.0000
  H   H10       1.0  0.05290  0.76500  0.42500  1.0000
  H   H11       1.0  0.51100  0.02430  0.55800  1.0000
  H   H12       1.0  0.01140  0.47600  0.55800  1.0000
  H   H13       1.0  0.97400  0.21100  0.59200  1.0000
  H   H14       1.0  0.47400  0.28900  0.59200  1.0000
  H   H15       1.0  0.34100  0.18500  0.69400  1.0000
  H   H16       1.0  0.84100  0.31500  0.69400  1.0000
  H   H17       1.0  0.62300  0.11100  0.75900  1.0000
  H   H18       1.0  0.12300  0.38900  0.75900  1.0000
  H   H19       1.0  0.94700  0.23500  0.92500  1.0000
  H   H20       1.0  0.44700  0.26500  0.92500  1.0000
  Li  Li1       1.0  0.82700  0.06170  0.25500  1.0000
  Li  Li2       1.0  0.32700  0.43800  0.25500  1.0000
  Li  Li3       1.0  0.67300  0.56200  0.75500  1.0000
  Li  Li4       1.0  0.17300  0.93800  0.75500  1.0000
  N   N1        1.0  0.05840  0.71300  0.23800  1.0000
  N   N2        1.0  0.55800  0.78700  0.23800  1.0000
  N   N3        1.0  0.97700  0.57700  0.24400  1.0000
  N   N4        1.0  0.47700  0.92300  0.24400  1.0000
  N   N5        1.0  0.44200  0.21300  0.73800  1.0000
  N   N6        1.0  0.94200  0.28700  0.73800  1.0000
  N   N7        1.0  0.52300  0.07670  0.74400  1.0000
  N   N8        1.0  0.02300  0.42300  0.74400  1.0000
  O   O1        1.0  0.31100  0.62100  0.04490  1.0000
  O   O2        1.0  0.81100  0.87900  0.04490  1.0000
  O   O3        1.0  0.69800  0.50900  0.11800  1.0000
  O   O4        1.0  0.19800  0.99100  0.11800  1.0000
  O   O5        1.0  0.72400  0.23300  0.13700  1.0000
  O   O6        1.0  0.22400  0.26700  0.13700  1.0000
  O   O7        1.0  0.00484  0.15400  0.23100  1.0000
  O   O8        1.0  0.50500  0.34600  0.23100  1.0000
  O   O9        1.0  0.18900  0.12100  0.54500  1.0000
  O   O10       1.0  0.68900  0.37900  0.54500  1.0000
  O   O11       1.0  0.80200  0.00892  0.61800  1.0000
  O   O12       1.0  0.30200  0.49100  0.61800  1.0000
  O   O13       1.0  0.77600  0.73300  0.63700  1.0000
  O   O14       1.0  0.27600  0.76700  0.63700  1.0000
  O   O15       1.0  0.49500  0.65400  0.73100  1.0000
  O   O16       1.0  0.99500  0.84600  0.73100  1.0000
  S   S1        1.0  0.15600  0.13300  0.25400  1.0000
  S   S2        1.0  0.65600  0.36700  0.25400  1.0000
  S   S3        1.0  0.34400  0.63300  0.75400  1.0000
  S   S4        1.0  0.84400  0.86700  0.75400  1.0000
