data_image0
_chemical_formula_structural       Cl18K6Ni6
_chemical_formula_sum              "Cl18 K6 Ni6"
_cell_length_a       11.771
_cell_length_b       11.771
_cell_length_c       5.9362
_cell_angle_alpha    90
_cell_angle_beta     90
_cell_angle_gamma    120

_space_group_name_H-M_alt    "P 1"
_space_group_IT_number       1

loop_
  _space_group_symop_operation_xyz
  'x, y, z'

loop_
  _atom_site_type_symbol
  _atom_site_label
  _atom_site_symmetry_multiplicity
  _atom_site_fract_x
  _atom_site_fract_y
  _atom_site_fract_z
  _atom_site_occupancy
  Cl  Cl1       1.0  0.16000  0.00000  0.25600  1.0000
  Cl  Cl2       1.0  0.00000  0.16000  0.25600  1.0000
  Cl  Cl3       1.0  0.84000  0.84000  0.25600  1.0000
  Cl  Cl4       1.0  0.50600  0.17400  0.38300  1.0000
  Cl  Cl5       1.0  0.17400  0.50600  0.38300  1.0000
  Cl  Cl6       1.0  0.66800  0.49400  0.38300  1.0000
  Cl  Cl7       1.0  0.49400  0.66800  0.38300  1.0000
  Cl  Cl8       1.0  0.82600  0.33200  0.38300  1.0000
  Cl  Cl9       1.0  0.33200  0.82600  0.38300  1.0000
  Cl  Cl10      1.0  0.84000  0.00000  0.75600  1.0000
  Cl  Cl11      1.0  0.16000  0.16000  0.75600  1.0000
  Cl  Cl12      1.0  0.00000  0.84000  0.75600  1.0000
  Cl  Cl13      1.0  0.82600  0.49400  0.88300  1.0000
  Cl  Cl14      1.0  0.49400  0.82600  0.88300  1.0000
  Cl  Cl15      1.0  0.50600  0.33200  0.88300  1.0000
  Cl  Cl16      1.0  0.33200  0.50600  0.88300  1.0000
  Cl  Cl17      1.0  0.66800  0.17400  0.88300  1.0000
  Cl  Cl18      1.0  0.17400  0.66800  0.88300  1.0000
  K   K1        1.0  0.66500  0.00000  0.33000  1.0000
  K   K2        1.0  0.00000  0.66500  0.33000  1.0000
  K   K3        1.0  0.33500  0.33500  0.33000  1.0000
  K   K4        1.0  0.33500  0.00000  0.83000  1.0000
  K   K5        1.0  0.00000  0.33500  0.83000  1.0000
  K   K6        1.0  0.66500  0.66500  0.83000  1.0000
  Ni  Ni1       1.0  0.00000  0.00000  0.01040  1.0000
  Ni  Ni2       1.0  0.66700  0.33300  0.13100  1.0000
  Ni  Ni3       1.0  0.33300  0.66700  0.13100  1.0000
  Ni  Ni4       1.0  0.00000  0.00000  0.51000  1.0000
  Ni  Ni5       1.0  0.66700  0.33300  0.63100  1.0000
  Ni  Ni6       1.0  0.33300  0.66700  0.63100  1.0000
