data_image0
_chemical_formula_structural       CoF6H12O6Si
_chemical_formula_sum              "Co1 F6 H12 O6 Si1"
_cell_length_a       5.99606
_cell_length_b       5.99606
_cell_length_c       5.99606
_cell_angle_alpha    95.8927
_cell_angle_beta     95.8927
_cell_angle_gamma    95.8927

_space_group_name_H-M_alt    "P 1"
_space_group_IT_number       1

loop_
  _space_group_symop_operation_xyz
  'x, y, z'

loop_
  _atom_site_type_symbol
  _atom_site_label
  _atom_site_symmetry_multiplicity
  _atom_site_fract_x
  _atom_site_fract_y
  _atom_site_fract_z
  _atom_site_occupancy
  Co  Co1       1.0  0.00000  0.00000  0.00000  1.0000
  F   F1        1.0  0.57100  0.33600  0.27400  1.0000
  F   F2        1.0  0.27400  0.57100  0.33600  1.0000
  F   F3        1.0  0.66400  0.72600  0.42900  1.0000
  F   F4        1.0  0.33600  0.27400  0.57100  1.0000
  F   F5        1.0  0.72600  0.42900  0.66400  1.0000
  F   F6        1.0  0.42900  0.66400  0.72600  1.0000
  H   H1        1.0  0.18200  0.42800  0.06430  1.0000
  H   H2        1.0  0.42800  0.06430  0.18200  1.0000
  H   H3        1.0  0.77900  0.67800  0.18300  1.0000
  H   H4        1.0  0.32200  0.81700  0.22100  1.0000
  H   H5        1.0  0.81700  0.22100  0.32200  1.0000
  H   H6        1.0  0.06430  0.18200  0.42800  1.0000
  H   H7        1.0  0.93600  0.81800  0.57200  1.0000
  H   H8        1.0  0.18300  0.77900  0.67800  1.0000
  H   H9        1.0  0.67800  0.18300  0.77900  1.0000
  H   H10       1.0  0.22100  0.32200  0.81700  1.0000
  H   H11       1.0  0.57200  0.93600  0.81800  1.0000
  H   H12       1.0  0.81800  0.57200  0.93600  1.0000
  O   O1        1.0  0.88100  0.68100  0.06530  1.0000
  O   O2        1.0  0.31900  0.93500  0.11900  1.0000
  O   O3        1.0  0.93500  0.11900  0.31900  1.0000
  O   O4        1.0  0.06530  0.88100  0.68100  1.0000
  O   O5        1.0  0.68100  0.06530  0.88100  1.0000
  O   O6        1.0  0.11900  0.31900  0.93500  1.0000
  Si  Si1       1.0  0.50000  0.50000  0.50000  1.0000
