data_image0
_chemical_formula_structural       Cl16N12Sb4
_chemical_formula_sum              "Cl16 N12 Sb4"
_cell_length_a       7.92535
_cell_length_b       9.32937
_cell_length_c       10.2025
_cell_angle_alpha    90
_cell_angle_beta     94.1647
_cell_angle_gamma    90

_space_group_name_H-M_alt    "P 1"
_space_group_IT_number       1

loop_
  _space_group_symop_operation_xyz
  'x, y, z'

loop_
  _atom_site_type_symbol
  _atom_site_label
  _atom_site_symmetry_multiplicity
  _atom_site_fract_x
  _atom_site_fract_y
  _atom_site_fract_z
  _atom_site_occupancy
  Cl  Cl1       1.0  0.66100  0.88000  0.02090  1.0000
  Cl  Cl2       1.0  0.77300  0.23900  0.04530  1.0000
  Cl  Cl3       1.0  0.93800  0.63900  0.15500  1.0000
  Cl  Cl4       1.0  0.14600  0.31200  0.20900  1.0000
  Cl  Cl5       1.0  0.35400  0.81200  0.29100  1.0000
  Cl  Cl6       1.0  0.56200  0.13900  0.34500  1.0000
  Cl  Cl7       1.0  0.72700  0.73900  0.45500  1.0000
  Cl  Cl8       1.0  0.83900  0.38000  0.47900  1.0000
  Cl  Cl9       1.0  0.16100  0.62000  0.52100  1.0000
  Cl  Cl10      1.0  0.27300  0.26100  0.54500  1.0000
  Cl  Cl11      1.0  0.43800  0.86100  0.65500  1.0000
  Cl  Cl12      1.0  0.64600  0.18800  0.70900  1.0000
  Cl  Cl13      1.0  0.85400  0.68800  0.79100  1.0000
  Cl  Cl14      1.0  0.06170  0.36100  0.84500  1.0000
  Cl  Cl15      1.0  0.22700  0.76100  0.95500  1.0000
  Cl  Cl16      1.0  0.33900  0.12000  0.97900  1.0000
  N   N1        1.0  0.03440  0.98400  0.12500  1.0000
  N   N2        1.0  0.53600  0.49100  0.15100  1.0000
  N   N3        1.0  0.99500  0.98800  0.24100  1.0000
  N   N4        1.0  0.50500  0.48800  0.25900  1.0000
  N   N5        1.0  0.96400  0.99100  0.34900  1.0000
  N   N6        1.0  0.46600  0.48400  0.37500  1.0000
  N   N7        1.0  0.53400  0.51600  0.62500  1.0000
  N   N8        1.0  0.03580  0.00927  0.65100  1.0000
  N   N9        1.0  0.49500  0.51200  0.74100  1.0000
  N   N10       1.0  0.00508  0.01220  0.75900  1.0000
  N   N11       1.0  0.46400  0.50900  0.84900  1.0000
  N   N12       1.0  0.96600  0.01560  0.87500  1.0000
  Sb  Sb1       1.0  0.05900  0.19000  0.01360  1.0000
  Sb  Sb2       1.0  0.44100  0.69000  0.48600  1.0000
  Sb  Sb3       1.0  0.55900  0.31000  0.51400  1.0000
  Sb  Sb4       1.0  0.94100  0.81000  0.98600  1.0000
