data_image0
_chemical_formula_structural       Br16Cs8Cu4
_chemical_formula_sum              "Br16 Cs8 Cu4"
_cell_length_a       10.4119
_cell_length_b       7.92156
_cell_length_c       13.0865
_cell_angle_alpha    90
_cell_angle_beta     90
_cell_angle_gamma    90

_space_group_name_H-M_alt    "P 1"
_space_group_IT_number       1

loop_
  _space_group_symop_operation_xyz
  'x, y, z'

loop_
  _atom_site_type_symbol
  _atom_site_label
  _atom_site_symmetry_multiplicity
  _atom_site_fract_x
  _atom_site_fract_y
  _atom_site_fract_z
  _atom_site_occupancy
  Br  Br1       1.0  0.15700  0.75000  0.07900  1.0000
  Br  Br2       1.0  0.50300  0.25000  0.12200  1.0000
  Br  Br3       1.0  0.79400  0.52200  0.14300  1.0000
  Br  Br4       1.0  0.79400  0.97800  0.14300  1.0000
  Br  Br5       1.0  0.29400  0.52200  0.35700  1.0000
  Br  Br6       1.0  0.29400  0.97800  0.35700  1.0000
  Br  Br7       1.0  0.00279  0.25000  0.37800  1.0000
  Br  Br8       1.0  0.65700  0.75000  0.42100  1.0000
  Br  Br9       1.0  0.34300  0.25000  0.57900  1.0000
  Br  Br10      1.0  0.99700  0.75000  0.62200  1.0000
  Br  Br11      1.0  0.70600  0.02240  0.64300  1.0000
  Br  Br12      1.0  0.70600  0.47800  0.64300  1.0000
  Br  Br13      1.0  0.20600  0.02240  0.85700  1.0000
  Br  Br14      1.0  0.20600  0.47800  0.85700  1.0000
  Br  Br15      1.0  0.49700  0.75000  0.87800  1.0000
  Br  Br16      1.0  0.84300  0.25000  0.92100  1.0000
  Cs  Cs1       1.0  0.12500  0.25000  0.10500  1.0000
  Cs  Cs2       1.0  0.49300  0.75000  0.16400  1.0000
  Cs  Cs3       1.0  0.99300  0.75000  0.33600  1.0000
  Cs  Cs4       1.0  0.62500  0.25000  0.39500  1.0000
  Cs  Cs5       1.0  0.37500  0.75000  0.60500  1.0000
  Cs  Cs6       1.0  0.00704  0.25000  0.66400  1.0000
  Cs  Cs7       1.0  0.50700  0.25000  0.83600  1.0000
  Cs  Cs8       1.0  0.87500  0.75000  0.89500  1.0000
  Cu  Cu1       1.0  0.72900  0.25000  0.08140  1.0000
  Cu  Cu2       1.0  0.22900  0.25000  0.41900  1.0000
  Cu  Cu3       1.0  0.77100  0.75000  0.58100  1.0000
  Cu  Cu4       1.0  0.27100  0.75000  0.91900  1.0000
