data_image0
_chemical_formula_structural       Co4Mo6O16
_chemical_formula_sum              "Co4 Mo6 O16"
_cell_length_a       5.78678
_cell_length_b       5.77725
_cell_length_c       9.90278
_cell_angle_alpha    90
_cell_angle_beta     90
_cell_angle_gamma    120.055

_space_group_name_H-M_alt    "P 1"
_space_group_IT_number       1

loop_
  _space_group_symop_operation_xyz
  'x, y, z'

loop_
  _atom_site_type_symbol
  _atom_site_label
  _atom_site_symmetry_multiplicity
  _atom_site_fract_x
  _atom_site_fract_y
  _atom_site_fract_z
  _atom_site_occupancy
  Co  Co1       1.0  0.66500  0.33000  0.01250  1.0000
  Co  Co2       1.0  0.66700  0.33400  0.44800  1.0000
  Co  Co3       1.0  0.33500  0.67000  0.51200  1.0000
  Co  Co4       1.0  0.33300  0.66600  0.94800  1.0000
  Mo  Mo1       1.0  0.14600  0.85400  0.24900  1.0000
  Mo  Mo2       1.0  0.70800  0.85400  0.24900  1.0000
  Mo  Mo3       1.0  0.14600  0.29200  0.24900  1.0000
  Mo  Mo4       1.0  0.29200  0.14600  0.74900  1.0000
  Mo  Mo5       1.0  0.85400  0.14600  0.74900  1.0000
  Mo  Mo6       1.0  0.85400  0.70800  0.74900  1.0000
  O   O1        1.0  0.83200  0.66300  0.13100  1.0000
  O   O2        1.0  0.33700  0.16900  0.13200  1.0000
  O   O3        1.0  0.83200  0.16900  0.13200  1.0000
  O   O4        1.0  0.33300  0.66700  0.14400  1.0000
  O   O5        1.0  0.48800  0.97600  0.36600  1.0000
  O   O6        1.0  0.02360  0.51200  0.36600  1.0000
  O   O7        1.0  0.48800  0.51200  0.36600  1.0000
  O   O8        1.0  0.00000  0.00000  0.39300  1.0000
  O   O9        1.0  0.16800  0.33700  0.63100  1.0000
  O   O10       1.0  0.16800  0.83100  0.63200  1.0000
  O   O11       1.0  0.66300  0.83100  0.63200  1.0000
  O   O12       1.0  0.66700  0.33300  0.64400  1.0000
  O   O13       1.0  0.51200  0.02380  0.86600  1.0000
  O   O14       1.0  0.51200  0.48800  0.86600  1.0000
  O   O15       1.0  0.97600  0.48800  0.86600  1.0000
  O   O16       1.0  0.00024  0.00049  0.89300  1.0000
