data_image0
_chemical_formula_structural       Cl4K12O4S12W4
_chemical_formula_sum              "Cl4 K12 O4 S12 W4"
_cell_length_a       12.6165
_cell_length_b       6.3752
_cell_length_c       12.4897
_cell_angle_alpha    90
_cell_angle_beta     90
_cell_angle_gamma    90

_space_group_name_H-M_alt    "P 1"
_space_group_IT_number       1

loop_
  _space_group_symop_operation_xyz
  'x, y, z'

loop_
  _atom_site_type_symbol
  _atom_site_label
  _atom_site_symmetry_multiplicity
  _atom_site_fract_x
  _atom_site_fract_y
  _atom_site_fract_z
  _atom_site_occupancy
  Cl  Cl1       1.0  0.23200  0.47400  0.01220  1.0000
  Cl  Cl2       1.0  0.73200  0.52600  0.01220  1.0000
  Cl  Cl3       1.0  0.26800  0.47400  0.51200  1.0000
  Cl  Cl4       1.0  0.76800  0.52600  0.51200  1.0000
  K   K1        1.0  0.70400  0.03850  0.00194  1.0000
  K   K2        1.0  0.20400  0.96200  0.00194  1.0000
  K   K3        1.0  0.26500  0.39700  0.26000  1.0000
  K   K4        1.0  0.76500  0.60300  0.26000  1.0000
  K   K5        1.0  0.52000  0.41500  0.49900  1.0000
  K   K6        1.0  0.02030  0.58500  0.49900  1.0000
  K   K7        1.0  0.79600  0.03850  0.50200  1.0000
  K   K8        1.0  0.29600  0.96200  0.50200  1.0000
  K   K9        1.0  0.23500  0.39700  0.76000  1.0000
  K   K10       1.0  0.73500  0.60300  0.76000  1.0000
  K   K11       1.0  0.98000  0.41500  0.99900  1.0000
  K   K12       1.0  0.48000  0.58500  0.99900  1.0000
  O   O1        1.0  0.42500  0.13300  0.34600  1.0000
  O   O2        1.0  0.92500  0.86700  0.34600  1.0000
  O   O3        1.0  0.07470  0.13300  0.84600  1.0000
  O   O4        1.0  0.57500  0.86700  0.84600  1.0000
  S   S1        1.0  0.45100  0.08760  0.08680  1.0000
  S   S2        1.0  0.95100  0.91200  0.08680  1.0000
  S   S3        1.0  0.99500  0.34200  0.26900  1.0000
  S   S4        1.0  0.49500  0.65800  0.26900  1.0000
  S   S5        1.0  0.67300  0.10200  0.27000  1.0000
  S   S6        1.0  0.17300  0.89800  0.27000  1.0000
  S   S7        1.0  0.04890  0.08760  0.58700  1.0000
  S   S8        1.0  0.54900  0.91200  0.58700  1.0000
  S   S9        1.0  0.50500  0.34200  0.76900  1.0000
  S   S10       1.0  0.00534  0.65800  0.76900  1.0000
  S   S11       1.0  0.82700  0.10200  0.77000  1.0000
  S   S12       1.0  0.32700  0.89800  0.77000  1.0000
  W   W1        1.0  0.50600  0.00326  0.25000  1.0000
  W   W2        1.0  0.00559  0.99700  0.25000  1.0000
  W   W3        1.0  0.99400  0.00326  0.75000  1.0000
  W   W4        1.0  0.49400  0.99700  0.75000  1.0000
