data_image0
_chemical_formula_structural       Cs2O24P8Pr2
_chemical_formula_sum              "Cs2 O24 P8 Pr2"
_cell_length_a       7.11341
_cell_length_b       9.13842
_cell_length_c       8.71335
_cell_angle_alpha    90
_cell_angle_beta     99.3328
_cell_angle_gamma    90

_space_group_name_H-M_alt    "P 1"
_space_group_IT_number       1

loop_
  _space_group_symop_operation_xyz
  'x, y, z'

loop_
  _atom_site_type_symbol
  _atom_site_label
  _atom_site_symmetry_multiplicity
  _atom_site_fract_x
  _atom_site_fract_y
  _atom_site_fract_z
  _atom_site_occupancy
  Cs  Cs1       1.0  0.66500  0.16400  0.16900  1.0000
  Cs  Cs2       1.0  0.33500  0.66400  0.83100  1.0000
  O   O1        1.0  0.07840  0.66500  0.08660  1.0000
  O   O2        1.0  0.13900  0.33800  0.09360  1.0000
  O   O3        1.0  0.72300  0.70200  0.10600  1.0000
  O   O4        1.0  0.48500  0.53100  0.17900  1.0000
  O   O5        1.0  0.95700  0.90400  0.18600  1.0000
  O   O6        1.0  0.84200  0.46100  0.23400  1.0000
  O   O7        1.0  0.20200  0.03700  0.34800  1.0000
  O   O8        1.0  0.36400  0.27600  0.37100  1.0000
  O   O9        1.0  0.72200  0.66500  0.38700  1.0000
  O   O10       1.0  0.16800  0.76100  0.40300  1.0000
  O   O11       1.0  0.91900  0.95200  0.46000  1.0000
  O   O12       1.0  0.54000  0.04790  0.48400  1.0000
  O   O13       1.0  0.46000  0.54800  0.51600  1.0000
  O   O14       1.0  0.08120  0.45200  0.54000  1.0000
  O   O15       1.0  0.83200  0.26100  0.59700  1.0000
  O   O16       1.0  0.27800  0.16500  0.61300  1.0000
  O   O17       1.0  0.63600  0.77600  0.62900  1.0000
  O   O18       1.0  0.79800  0.53700  0.65200  1.0000
  O   O19       1.0  0.15800  0.96100  0.76600  1.0000
  O   O20       1.0  0.04310  0.40400  0.81400  1.0000
  O   O21       1.0  0.51500  0.03120  0.82100  1.0000
  O   O22       1.0  0.27700  0.20200  0.89400  1.0000
  O   O23       1.0  0.86100  0.83800  0.90600  1.0000
  O   O24       1.0  0.92200  0.16500  0.91300  1.0000
  P   P1        1.0  0.91800  0.77200  0.06180  1.0000
  P   P2        1.0  0.68900  0.57500  0.22500  1.0000
  P   P3        1.0  0.06300  0.90200  0.36500  1.0000
  P   P4        1.0  0.36000  0.13500  0.45400  1.0000
  P   P5        1.0  0.64000  0.63500  0.54600  1.0000
  P   P6        1.0  0.93700  0.40200  0.63500  1.0000
  P   P7        1.0  0.31100  0.07460  0.77500  1.0000
  P   P8        1.0  0.08200  0.27200  0.93800  1.0000
  Pr  Pr1       1.0  0.20000  0.50500  0.30700  1.0000
  Pr  Pr2       1.0  0.80000  0.00508  0.69300  1.0000
