data_image0
_chemical_formula_structural       C2CoTm
_chemical_formula_sum              "C2 Co1 Tm1"
_cell_length_a       3.47691
_cell_length_b       3.72536
_cell_length_c       3.72536
_cell_angle_alpha    105.87
_cell_angle_beta     90
_cell_angle_gamma    90

_space_group_name_H-M_alt    "P 1"
_space_group_IT_number       1

loop_
  _space_group_symop_operation_xyz
  'x, y, z'

loop_
  _atom_site_type_symbol
  _atom_site_label
  _atom_site_symmetry_multiplicity
  _atom_site_fract_x
  _atom_site_fract_y
  _atom_site_fract_z
  _atom_site_occupancy
  C   C1        1.0  0.50000  0.54800  0.14500  1.0000
  C   C2        1.0  0.50000  0.85500  0.45200  1.0000
  Co  Co1       1.0  0.50000  0.39000  0.61000  1.0000
  Tm  Tm1       1.0  0.00000  0.00728  0.99300  1.0000
