data_image0
_chemical_formula_structural       Co2Si2Tb
_chemical_formula_sum              "Co2 Si2 Tb1"
_cell_length_a       3.88212
_cell_length_b       3.88212
_cell_length_c       5.5925
_cell_angle_alpha    110.309
_cell_angle_beta     110.309
_cell_angle_gamma    90

_space_group_name_H-M_alt    "P 1"
_space_group_IT_number       1

loop_
  _space_group_symop_operation_xyz
  'x, y, z'

loop_
  _atom_site_type_symbol
  _atom_site_label
  _atom_site_symmetry_multiplicity
  _atom_site_fract_x
  _atom_site_fract_y
  _atom_site_fract_z
  _atom_site_occupancy
  Co  Co1       1.0  0.75000  0.25000  0.50000  1.0000
  Co  Co2       1.0  0.25000  0.75000  0.50000  1.0000
  Si  Si1       1.0  0.62900  0.62900  0.25700  1.0000
  Si  Si2       1.0  0.37100  0.37100  0.74300  1.0000
  Tb  Tb1       1.0  0.00000  0.00000  0.00000  1.0000
