data_image0
_chemical_formula_structural       C2CoPu
_chemical_formula_sum              "C2 Co1 Pu1"
_cell_length_a       3.61485
_cell_length_b       3.74297
_cell_length_c       3.74297
_cell_angle_alpha    105.761
_cell_angle_beta     90
_cell_angle_gamma    90

_space_group_name_H-M_alt    "P 1"
_space_group_IT_number       1

loop_
  _space_group_symop_operation_xyz
  'x, y, z'

loop_
  _atom_site_type_symbol
  _atom_site_label
  _atom_site_symmetry_multiplicity
  _atom_site_fract_x
  _atom_site_fract_y
  _atom_site_fract_z
  _atom_site_occupancy
  C   C1        1.0  0.50000  0.54300  0.14800  1.0000
  C   C2        1.0  0.50000  0.85200  0.45700  1.0000
  Co  Co1       1.0  0.50000  0.38900  0.61100  1.0000
  Pu  Pu1       1.0  0.00000  0.00087  0.99900  1.0000
