data_image0
_chemical_formula_structural       CeCoSi3
_chemical_formula_sum              "Ce1 Co1 Si3"
_cell_length_a       4.16258
_cell_length_b       4.16258
_cell_length_c       5.66022
_cell_angle_alpha    111.574
_cell_angle_beta     111.574
_cell_angle_gamma    90

_space_group_name_H-M_alt    "P 1"
_space_group_IT_number       1

loop_
  _space_group_symop_operation_xyz
  'x, y, z'

loop_
  _atom_site_type_symbol
  _atom_site_label
  _atom_site_symmetry_multiplicity
  _atom_site_fract_x
  _atom_site_fract_y
  _atom_site_fract_z
  _atom_site_occupancy
  Ce  Ce1       1.0  0.00437  0.00437  0.00874  1.0000
  Co  Co1       1.0  0.66100  0.66100  0.32200  1.0000
  Si  Si1       1.0  0.76000  0.26000  0.52000  1.0000
  Si  Si2       1.0  0.26000  0.76000  0.52000  1.0000
  Si  Si3       1.0  0.42400  0.42400  0.84700  1.0000
