data_image0
_chemical_formula_structural       FeS2Tl
_chemical_formula_sum              "Fe1 S2 Tl1"
_cell_length_a       3.67769
_cell_length_b       3.67769
_cell_length_c       6.7727
_cell_angle_alpha    105.754
_cell_angle_beta     105.754
_cell_angle_gamma    90

_space_group_name_H-M_alt    "P 1"
_space_group_IT_number       1

loop_
  _space_group_symop_operation_xyz
  'x, y, z'

loop_
  _atom_site_type_symbol
  _atom_site_label
  _atom_site_symmetry_multiplicity
  _atom_site_fract_x
  _atom_site_fract_y
  _atom_site_fract_z
  _atom_site_occupancy
  Fe  Fe1       1.0  0.25000  0.75000  0.50000  1.0000
  S   S1        1.0  0.66400  0.66400  0.32900  1.0000
  S   S2        1.0  0.33600  0.33600  0.67100  1.0000
  Tl  Tl1       1.0  0.00000  0.00000  0.00000  1.0000
