data_image0
_chemical_formula_structural       B2Co2Er
_chemical_formula_sum              "B2 Co2 Er1"
_cell_length_a       3.53981
_cell_length_b       3.53981
_cell_length_c       5.22749
_cell_angle_alpha    109.79
_cell_angle_beta     109.79
_cell_angle_gamma    90

_space_group_name_H-M_alt    "P 1"
_space_group_IT_number       1

loop_
  _space_group_symop_operation_xyz
  'x, y, z'

loop_
  _atom_site_type_symbol
  _atom_site_label
  _atom_site_symmetry_multiplicity
  _atom_site_fract_x
  _atom_site_fract_y
  _atom_site_fract_z
  _atom_site_occupancy
  B   B1        1.0  0.64700  0.64700  0.29400  1.0000
  B   B2        1.0  0.35300  0.35300  0.70600  1.0000
  Co  Co1       1.0  0.75000  0.25000  0.50000  1.0000
  Co  Co2       1.0  0.25000  0.75000  0.50000  1.0000
  Er  Er1       1.0  0.00000  0.00000  0.00000  1.0000
