data_image0
_chemical_formula_structural       C2Co4
_chemical_formula_sum              "C2 Co4"
_cell_length_a       2.87407
_cell_length_b       4.35941
_cell_length_c       4.36263
_cell_angle_alpha    90
_cell_angle_beta     90
_cell_angle_gamma    90

_space_group_name_H-M_alt    "P 1"
_space_group_IT_number       1

loop_
  _space_group_symop_operation_xyz
  'x, y, z'

loop_
  _atom_site_type_symbol
  _atom_site_label
  _atom_site_symmetry_multiplicity
  _atom_site_fract_x
  _atom_site_fract_y
  _atom_site_fract_z
  _atom_site_occupancy
  C   C1        1.0  0.00000  0.00000  0.00000  1.0000
  C   C2        1.0  0.50000  0.50000  0.50000  1.0000
  Co  Co1       1.0  0.50000  0.85100  0.24200  1.0000
  Co  Co2       1.0  0.00000  0.35100  0.25800  1.0000
  Co  Co3       1.0  0.00000  0.64900  0.74200  1.0000
  Co  Co4       1.0  0.50000  0.14900  0.75800  1.0000
