data_image0
_chemical_formula_structural       Co2Y2
_chemical_formula_sum              "Co2 Y2"
_cell_length_a       6.99265
_cell_length_b       6.99265
_cell_length_c       6.99265
_cell_angle_alpha    32.1319
_cell_angle_beta     32.1319
_cell_angle_gamma    32.1319

_space_group_name_H-M_alt    "P 1"
_space_group_IT_number       1

loop_
  _space_group_symop_operation_xyz
  'x, y, z'

loop_
  _atom_site_type_symbol
  _atom_site_label
  _atom_site_symmetry_multiplicity
  _atom_site_fract_x
  _atom_site_fract_y
  _atom_site_fract_z
  _atom_site_occupancy
  Co  Co1       1.0  0.33200  0.33200  0.33200  1.0000
  Co  Co2       1.0  0.66800  0.66800  0.66800  1.0000
  Y   Y1        1.0  0.08990  0.08990  0.08990  1.0000
  Y   Y2        1.0  0.91000  0.91000  0.91000  1.0000
