data_image0
_chemical_formula_structural       AlCo2Dy2
_chemical_formula_sum              "Al1 Co2 Dy2"
_cell_length_a       4.02356
_cell_length_b       5.37027
_cell_length_c       5.37027
_cell_angle_alpha    61.0556
_cell_angle_beta     112
_cell_angle_gamma    112

_space_group_name_H-M_alt    "P 1"
_space_group_IT_number       1

loop_
  _space_group_symop_operation_xyz
  'x, y, z'

loop_
  _atom_site_type_symbol
  _atom_site_label
  _atom_site_symmetry_multiplicity
  _atom_site_fract_x
  _atom_site_fract_y
  _atom_site_fract_z
  _atom_site_occupancy
  Al  Al1       1.0  0.00000  0.00000  0.00000  1.0000
  Co  Co1       1.0  0.50000  0.72300  0.27700  1.0000
  Co  Co2       1.0  0.50000  0.27700  0.72300  1.0000
  Dy  Dy1       1.0  0.79600  0.29600  0.29600  1.0000
  Dy  Dy2       1.0  0.20400  0.70400  0.70400  1.0000
