data_image0
_chemical_formula_structural       CeCoGe3
_chemical_formula_sum              "Ce1 Co1 Ge3"
_cell_length_a       4.35135
_cell_length_b       4.35135
_cell_length_c       5.84307
_cell_angle_alpha    111.861
_cell_angle_beta     111.861
_cell_angle_gamma    90

_space_group_name_H-M_alt    "P 1"
_space_group_IT_number       1

loop_
  _space_group_symop_operation_xyz
  'x, y, z'

loop_
  _atom_site_type_symbol
  _atom_site_label
  _atom_site_symmetry_multiplicity
  _atom_site_fract_x
  _atom_site_fract_y
  _atom_site_fract_z
  _atom_site_occupancy
  Ce  Ce1       1.0  0.33800  0.33800  0.67600  1.0000
  Co  Co1       1.0  0.00308  0.00308  0.00616  1.0000
  Ge  Ge1       1.0  0.59500  0.09510  0.19000  1.0000
  Ge  Ge2       1.0  0.09510  0.59500  0.19000  1.0000
  Ge  Ge3       1.0  0.77100  0.77100  0.54200  1.0000
