data_image0
_chemical_formula_structural       Cl2CoH4O2
_chemical_formula_sum              "Cl2 Co1 H4 O2"
_cell_length_a       3.51566
_cell_length_b       5.53581
_cell_length_c       5.53581
_cell_angle_alpha    98.7487
_cell_angle_beta     95.1465
_cell_angle_gamma    95.1465

_space_group_name_H-M_alt    "P 1"
_space_group_IT_number       1

loop_
  _space_group_symop_operation_xyz
  'x, y, z'

loop_
  _atom_site_type_symbol
  _atom_site_label
  _atom_site_symmetry_multiplicity
  _atom_site_fract_x
  _atom_site_fract_y
  _atom_site_fract_z
  _atom_site_occupancy
  Cl  Cl1       1.0  0.56800  0.24300  0.24300  1.0000
  Cl  Cl2       1.0  0.43200  0.75700  0.75700  1.0000
  Co  Co1       1.0  0.00000  0.00000  0.00000  1.0000
  H   H1        1.0  0.84800  0.59700  0.21700  1.0000
  H   H2        1.0  0.15200  0.78300  0.40300  1.0000
  H   H3        1.0  0.84800  0.21700  0.59700  1.0000
  H   H4        1.0  0.15200  0.40300  0.78300  1.0000
  O   O1        1.0  0.00000  0.75900  0.24100  1.0000
  O   O2        1.0  0.00000  0.24100  0.75900  1.0000
