data_image0
_chemical_formula_structural       CoCu2S4Sn
_chemical_formula_sum              "Co1 Cu2 S4 Sn1"
_cell_length_a       5.40457
_cell_length_b       5.40457
_cell_length_c       6.57337
_cell_angle_alpha    114.274
_cell_angle_beta     114.274
_cell_angle_gamma    90

_space_group_name_H-M_alt    "P 1"
_space_group_IT_number       1

loop_
  _space_group_symop_operation_xyz
  'x, y, z'

loop_
  _atom_site_type_symbol
  _atom_site_label
  _atom_site_symmetry_multiplicity
  _atom_site_fract_x
  _atom_site_fract_y
  _atom_site_fract_z
  _atom_site_occupancy
  Co  Co1       1.0  0.00000  0.00000  0.00000  1.0000
  Cu  Cu1       1.0  0.75000  0.25000  0.50000  1.0000
  Cu  Cu2       1.0  0.25000  0.75000  0.50000  1.0000
  S   S1        1.0  0.90000  0.36200  0.26200  1.0000
  S   S2        1.0  0.36200  0.90000  0.26200  1.0000
  S   S3        1.0  0.09990  0.09990  0.73800  1.0000
  S   S4        1.0  0.63800  0.63800  0.73800  1.0000
  Sn  Sn1       1.0  0.50000  0.50000  0.00000  1.0000
