data_image0
_chemical_formula_structural       Co2P4W2
_chemical_formula_sum              "Co2 P4 W2"
_cell_length_a       3.29952
_cell_length_b       3.29951
_cell_length_c       11.2076
_cell_angle_alpha    90
_cell_angle_beta     90
_cell_angle_gamma    120

_space_group_name_H-M_alt    "P 1"
_space_group_IT_number       1

loop_
  _space_group_symop_operation_xyz
  'x, y, z'

loop_
  _atom_site_type_symbol
  _atom_site_label
  _atom_site_symmetry_multiplicity
  _atom_site_fract_x
  _atom_site_fract_y
  _atom_site_fract_z
  _atom_site_occupancy
  Co  Co1       1.0  0.00000  0.00000  0.00000  1.0000
  Co  Co2       1.0  0.00000  0.00000  0.50000  1.0000
  P   P1        1.0  0.33300  0.66700  0.10800  1.0000
  P   P2        1.0  0.33300  0.66700  0.39200  1.0000
  P   P3        1.0  0.66700  0.33300  0.60800  1.0000
  P   P4        1.0  0.66700  0.33300  0.89200  1.0000
  W   W1        1.0  0.00000  0.00000  0.25000  1.0000
  W   W2        1.0  0.00000  0.00000  0.75000  1.0000
