data_image0
_chemical_formula_structural       CoFe2Se4
_chemical_formula_sum              "Co1 Fe2 Se4"
_cell_length_a       3.47937
_cell_length_b       6.08347
_cell_length_c       6.33109
_cell_angle_alpha    116.156
_cell_angle_beta     105.949
_cell_angle_gamma    90

_space_group_name_H-M_alt    "P 1"
_space_group_IT_number       1

loop_
  _space_group_symop_operation_xyz
  'x, y, z'

loop_
  _atom_site_type_symbol
  _atom_site_label
  _atom_site_symmetry_multiplicity
  _atom_site_fract_x
  _atom_site_fract_y
  _atom_site_fract_z
  _atom_site_occupancy
  Co  Co1       1.0  0.00000  0.00000  0.00000  1.0000
  Fe  Fe1       1.0  0.74100  0.69400  0.48200  1.0000
  Fe  Fe2       1.0  0.25900  0.30600  0.51800  1.0000
  Se  Se1       1.0  0.10800  0.44600  0.21600  1.0000
  Se  Se2       1.0  0.63600  0.97800  0.27200  1.0000
  Se  Se3       1.0  0.36400  0.02150  0.72800  1.0000
  Se  Se4       1.0  0.89200  0.55400  0.78400  1.0000
