data_image0
_chemical_formula_structural       Co6Mo2
_chemical_formula_sum              "Co6 Mo2"
_cell_length_a       5.05872
_cell_length_b       5.05872
_cell_length_c       4.04606
_cell_angle_alpha    90
_cell_angle_beta     90
_cell_angle_gamma    120

_space_group_name_H-M_alt    "P 1"
_space_group_IT_number       1

loop_
  _space_group_symop_operation_xyz
  'x, y, z'

loop_
  _atom_site_type_symbol
  _atom_site_label
  _atom_site_symmetry_multiplicity
  _atom_site_fract_x
  _atom_site_fract_y
  _atom_site_fract_z
  _atom_site_occupancy
  Co  Co1       1.0  0.83800  0.16200  0.75000  1.0000
  Co  Co2       1.0  0.32300  0.16200  0.75000  1.0000
  Co  Co3       1.0  0.83800  0.67700  0.75000  1.0000
  Co  Co4       1.0  0.16200  0.83800  0.25000  1.0000
  Co  Co5       1.0  0.67700  0.83800  0.25000  1.0000
  Co  Co6       1.0  0.16200  0.32300  0.25000  1.0000
  Mo  Mo1       1.0  0.66700  0.33300  0.25000  1.0000
  Mo  Mo2       1.0  0.33300  0.66700  0.75000  1.0000
