data_image0
_chemical_formula_structural       Cs2Pt3S4
_chemical_formula_sum              "Cs2 Pt3 S4"
_cell_length_a       6.42078
_cell_length_b       6.42078
_cell_length_c       7.66822
_cell_angle_alpha    102.66
_cell_angle_beta     102.66
_cell_angle_gamma    118.459

_space_group_name_H-M_alt    "P 1"
_space_group_IT_number       1

loop_
  _space_group_symop_operation_xyz
  'x, y, z'

loop_
  _atom_site_type_symbol
  _atom_site_label
  _atom_site_symmetry_multiplicity
  _atom_site_fract_x
  _atom_site_fract_y
  _atom_site_fract_z
  _atom_site_occupancy
  Cs  Cs1       1.0  0.65500  0.65500  0.30900  1.0000
  Cs  Cs2       1.0  0.34500  0.34500  0.69100  1.0000
  Pt  Pt1       1.0  0.00000  0.00000  0.00000  1.0000
  Pt  Pt2       1.0  0.50000  0.00000  0.00000  1.0000
  Pt  Pt3       1.0  0.00000  0.50000  0.00000  1.0000
  S   S1        1.0  0.93700  0.27500  0.21200  1.0000
  S   S2        1.0  0.27500  0.93700  0.21200  1.0000
  S   S3        1.0  0.72500  0.06320  0.78800  1.0000
  S   S4        1.0  0.06320  0.72500  0.78800  1.0000
