data_image0
_chemical_formula_structural       C4Co2Sc2
_chemical_formula_sum              "C4 Co2 Sc2"
_cell_length_a       3.3602
_cell_length_b       3.3602
_cell_length_c       7.17788
_cell_angle_alpha    90
_cell_angle_beta     90
_cell_angle_gamma    90

_space_group_name_H-M_alt    "P 1"
_space_group_IT_number       1

loop_
  _space_group_symop_operation_xyz
  'x, y, z'

loop_
  _atom_site_type_symbol
  _atom_site_label
  _atom_site_symmetry_multiplicity
  _atom_site_fract_x
  _atom_site_fract_y
  _atom_site_fract_z
  _atom_site_occupancy
  C   C1        1.0  0.25000  0.25000  0.15000  1.0000
  C   C2        1.0  0.25000  0.25000  0.34700  1.0000
  C   C3        1.0  0.75000  0.75000  0.65300  1.0000
  C   C4        1.0  0.75000  0.75000  0.85000  1.0000
  Co  Co1       1.0  0.75000  0.25000  0.00000  1.0000
  Co  Co2       1.0  0.25000  0.75000  0.00000  1.0000
  Sc  Sc1       1.0  0.75000  0.75000  0.34600  1.0000
  Sc  Sc2       1.0  0.25000  0.25000  0.65400  1.0000
