data_image0
_chemical_formula_structural       CoGe3La
_chemical_formula_sum              "Co1 Ge3 La1"
_cell_length_a       4.35961
_cell_length_b       4.35961
_cell_length_c       5.84276
_cell_angle_alpha    111.906
_cell_angle_beta     111.906
_cell_angle_gamma    90

_space_group_name_H-M_alt    "P 1"
_space_group_IT_number       1

loop_
  _space_group_symop_operation_xyz
  'x, y, z'

loop_
  _atom_site_type_symbol
  _atom_site_label
  _atom_site_symmetry_multiplicity
  _atom_site_fract_x
  _atom_site_fract_y
  _atom_site_fract_z
  _atom_site_occupancy
  Co  Co1       1.0  0.00352  0.00352  0.00703  1.0000
  Ge  Ge1       1.0  0.59700  0.09720  0.19400  1.0000
  Ge  Ge2       1.0  0.09720  0.59700  0.19400  1.0000
  Ge  Ge3       1.0  0.77100  0.77100  0.54200  1.0000
  La  La1       1.0  0.33900  0.33900  0.67800  1.0000
