data_image0
_chemical_formula_structural       B4Co4
_chemical_formula_sum              "B4 Co4"
_cell_length_a       3.91683
_cell_length_b       5.15175
_cell_length_c       3.05753
_cell_angle_alpha    90
_cell_angle_beta     90
_cell_angle_gamma    90

_space_group_name_H-M_alt    "P 1"
_space_group_IT_number       1

loop_
  _space_group_symop_operation_xyz
  'x, y, z'

loop_
  _atom_site_type_symbol
  _atom_site_label
  _atom_site_symmetry_multiplicity
  _atom_site_fract_x
  _atom_site_fract_y
  _atom_site_fract_z
  _atom_site_occupancy
  B   B1        1.0  0.62400  0.03200  0.25000  1.0000
  B   B2        1.0  0.87600  0.53200  0.25000  1.0000
  B   B3        1.0  0.12400  0.46800  0.75000  1.0000
  B   B4        1.0  0.37600  0.96800  0.75000  1.0000
  Co  Co1       1.0  0.12700  0.17600  0.25000  1.0000
  Co  Co2       1.0  0.37300  0.67600  0.25000  1.0000
  Co  Co3       1.0  0.62700  0.32400  0.75000  1.0000
  Co  Co4       1.0  0.87300  0.82400  0.75000  1.0000
