data_image0
_chemical_formula_structural       CoH2O2
_chemical_formula_sum              "Co1 H2 O2"
_cell_length_a       3.15509
_cell_length_b       3.13602
_cell_length_c       4.58181
_cell_angle_alpha    90
_cell_angle_beta     90.7723
_cell_angle_gamma    119.8

_space_group_name_H-M_alt    "P 1"
_space_group_IT_number       1

loop_
  _space_group_symop_operation_xyz
  'x, y, z'

loop_
  _atom_site_type_symbol
  _atom_site_label
  _atom_site_symmetry_multiplicity
  _atom_site_fract_x
  _atom_site_fract_y
  _atom_site_fract_z
  _atom_site_occupancy
  Co  Co1       1.0  0.00000  0.00000  0.00000  1.0000
  H   H1        1.0  0.32700  0.66400  0.44200  1.0000
  H   H2        1.0  0.67300  0.33600  0.55800  1.0000
  O   O1        1.0  0.33000  0.66500  0.22900  1.0000
  O   O2        1.0  0.67000  0.33500  0.77100  1.0000
