data_image0
_chemical_formula_structural       Br2CoO2Sr2
_chemical_formula_sum              "Br2 Co1 O2 Sr2"
_cell_length_a       4.10394
_cell_length_b       4.10394
_cell_length_c       8.68618
_cell_angle_alpha    103.664
_cell_angle_beta     103.664
_cell_angle_gamma    90

_space_group_name_H-M_alt    "P 1"
_space_group_IT_number       1

loop_
  _space_group_symop_operation_xyz
  'x, y, z'

loop_
  _atom_site_type_symbol
  _atom_site_label
  _atom_site_symmetry_multiplicity
  _atom_site_fract_x
  _atom_site_fract_y
  _atom_site_fract_z
  _atom_site_occupancy
  Br  Br1       1.0  0.17800  0.17800  0.35500  1.0000
  Br  Br2       1.0  0.82200  0.82200  0.64500  1.0000
  Co  Co1       1.0  0.00000  0.00000  0.00000  1.0000
  O   O1        1.0  0.50000  0.00000  0.00000  1.0000
  O   O2        1.0  0.00000  0.50000  0.00000  1.0000
  Sr  Sr1       1.0  0.59900  0.59900  0.19900  1.0000
  Sr  Sr2       1.0  0.40100  0.40100  0.80100  1.0000
