data_image0
_chemical_formula_structural       CoEuGe3
_chemical_formula_sum              "Co1 Eu1 Ge3"
_cell_length_a       5.78862
_cell_length_b       4.30422
_cell_length_c       4.30422
_cell_angle_alpha    90
_cell_angle_beta     111.826
_cell_angle_gamma    111.826

_space_group_name_H-M_alt    "P 1"
_space_group_IT_number       1

loop_
  _space_group_symop_operation_xyz
  'x, y, z'

loop_
  _atom_site_type_symbol
  _atom_site_label
  _atom_site_symmetry_multiplicity
  _atom_site_fract_x
  _atom_site_fract_y
  _atom_site_fract_z
  _atom_site_occupancy
  Co  Co1       1.0  0.31500  0.65700  0.65700  1.0000
  Eu  Eu1       1.0  0.99300  0.99700  0.99700  1.0000
  Ge  Ge1       1.0  0.50200  0.75100  0.25100  1.0000
  Ge  Ge2       1.0  0.85400  0.42700  0.42700  1.0000
  Ge  Ge3       1.0  0.50200  0.25100  0.75100  1.0000
