data_image0
_chemical_formula_structural       Ca14Li10Sn22
_chemical_formula_sum              "Ca14 Li10 Sn22"
_cell_length_a       8.87139
_cell_length_b       4.62103
_cell_length_c       31.8283
_cell_angle_alpha    90
_cell_angle_beta     90
_cell_angle_gamma    105.097

_space_group_name_H-M_alt    "P 1"
_space_group_IT_number       1

loop_
  _space_group_symop_operation_xyz
  'x, y, z'

loop_
  _atom_site_type_symbol
  _atom_site_label
  _atom_site_symmetry_multiplicity
  _atom_site_fract_x
  _atom_site_fract_y
  _atom_site_fract_z
  _atom_site_occupancy
  Ca  Ca1       1.0  0.80500  0.90300  0.02930  1.0000
  Ca  Ca2       1.0  0.21400  0.10700  0.10200  1.0000
  Ca  Ca3       1.0  0.90700  0.95300  0.18300  1.0000
  Ca  Ca4       1.0  0.29600  0.14800  0.25000  1.0000
  Ca  Ca5       1.0  0.90700  0.95300  0.31700  1.0000
  Ca  Ca6       1.0  0.21400  0.10700  0.39800  1.0000
  Ca  Ca7       1.0  0.80500  0.90300  0.47100  1.0000
  Ca  Ca8       1.0  0.19500  0.09750  0.52900  1.0000
  Ca  Ca9       1.0  0.78600  0.89300  0.60200  1.0000
  Ca  Ca10      1.0  0.09330  0.04660  0.68300  1.0000
  Ca  Ca11      1.0  0.70400  0.85200  0.75000  1.0000
  Ca  Ca12      1.0  0.09330  0.04660  0.81700  1.0000
  Ca  Ca13      1.0  0.78600  0.89300  0.89800  1.0000
  Ca  Ca14      1.0  0.19500  0.09750  0.97100  1.0000
  Li  Li1       1.0  0.41200  0.70600  0.02950  1.0000
  Li  Li2       1.0  0.58300  0.79100  0.11600  1.0000
  Li  Li3       1.0  0.68100  0.34100  0.25000  1.0000
  Li  Li4       1.0  0.58300  0.79100  0.38400  1.0000
  Li  Li5       1.0  0.41200  0.70600  0.47100  1.0000
  Li  Li6       1.0  0.58800  0.29400  0.52900  1.0000
  Li  Li7       1.0  0.41700  0.20900  0.61600  1.0000
  Li  Li8       1.0  0.31900  0.65900  0.75000  1.0000
  Li  Li9       1.0  0.41700  0.20900  0.88400  1.0000
  Li  Li10      1.0  0.58800  0.29400  0.97100  1.0000
  Sn  Sn1       1.0  0.08730  0.54400  0.03920  1.0000
  Sn  Sn2       1.0  0.55700  0.27800  0.06090  1.0000
  Sn  Sn3       1.0  0.85200  0.42600  0.10800  1.0000
  Sn  Sn4       1.0  0.21400  0.60700  0.17500  1.0000
  Sn  Sn5       1.0  0.53600  0.76800  0.20500  1.0000
  Sn  Sn6       1.0  0.01550  0.50800  0.25000  1.0000
  Sn  Sn7       1.0  0.53600  0.76800  0.29500  1.0000
  Sn  Sn8       1.0  0.21400  0.60700  0.32500  1.0000
  Sn  Sn9       1.0  0.85200  0.42600  0.39200  1.0000
  Sn  Sn10      1.0  0.55700  0.27800  0.43900  1.0000
  Sn  Sn11      1.0  0.08730  0.54400  0.46100  1.0000
  Sn  Sn12      1.0  0.91300  0.45600  0.53900  1.0000
  Sn  Sn13      1.0  0.44300  0.72200  0.56100  1.0000
  Sn  Sn14      1.0  0.14800  0.57400  0.60800  1.0000
  Sn  Sn15      1.0  0.78600  0.39300  0.67500  1.0000
  Sn  Sn16      1.0  0.46400  0.23200  0.70500  1.0000
  Sn  Sn17      1.0  0.98400  0.49200  0.75000  1.0000
  Sn  Sn18      1.0  0.46400  0.23200  0.79500  1.0000
  Sn  Sn19      1.0  0.78600  0.39300  0.82500  1.0000
  Sn  Sn20      1.0  0.14800  0.57400  0.89200  1.0000
  Sn  Sn21      1.0  0.44300  0.72200  0.93900  1.0000
  Sn  Sn22      1.0  0.91300  0.45600  0.96100  1.0000
