data_image0
_chemical_formula_structural       B2Co2Gd
_chemical_formula_sum              "B2 Co2 Gd1"
_cell_length_a       3.55408
_cell_length_b       3.55408
_cell_length_c       5.38142
_cell_angle_alpha    109.282
_cell_angle_beta     109.282
_cell_angle_gamma    90

_space_group_name_H-M_alt    "P 1"
_space_group_IT_number       1

loop_
  _space_group_symop_operation_xyz
  'x, y, z'

loop_
  _atom_site_type_symbol
  _atom_site_label
  _atom_site_symmetry_multiplicity
  _atom_site_fract_x
  _atom_site_fract_y
  _atom_site_fract_z
  _atom_site_occupancy
  B   B1        1.0  0.65400  0.65400  0.30700  1.0000
  B   B2        1.0  0.34600  0.34600  0.69300  1.0000
  Co  Co1       1.0  0.75000  0.25000  0.50000  1.0000
  Co  Co2       1.0  0.25000  0.75000  0.50000  1.0000
  Gd  Gd1       1.0  0.00000  0.00000  0.00000  1.0000
