data_image0
_chemical_formula_structural       B16H112Mg8N16
_chemical_formula_sum              "B16 H112 Mg8 N16"
_cell_length_a       16.8815
_cell_length_b       9.08468
_cell_length_c       8.32465
_cell_angle_alpha    90
_cell_angle_beta     90
_cell_angle_gamma    90

_space_group_name_H-M_alt    "P 1"
_space_group_IT_number       1

loop_
  _space_group_symop_operation_xyz
  'x, y, z'

loop_
  _atom_site_type_symbol
  _atom_site_label
  _atom_site_symmetry_multiplicity
  _atom_site_fract_x
  _atom_site_fract_y
  _atom_site_fract_z
  _atom_site_occupancy
  B   B1        1.0  0.39000  0.53500  0.16200  1.0000
  B   B2        1.0  0.89000  0.96500  0.16200  1.0000
  B   B3        1.0  0.63700  0.08660  0.20300  1.0000
  B   B4        1.0  0.13700  0.41300  0.20300  1.0000
  B   B5        1.0  0.63700  0.58700  0.29700  1.0000
  B   B6        1.0  0.13700  0.91300  0.29700  1.0000
  B   B7        1.0  0.39000  0.03500  0.33800  1.0000
  B   B8        1.0  0.89000  0.46500  0.33800  1.0000
  B   B9        1.0  0.11000  0.53500  0.66200  1.0000
  B   B10       1.0  0.61000  0.96500  0.66200  1.0000
  B   B11       1.0  0.86300  0.08660  0.70300  1.0000
  B   B12       1.0  0.36300  0.41300  0.70300  1.0000
  B   B13       1.0  0.86300  0.58700  0.79700  1.0000
  B   B14       1.0  0.36300  0.91300  0.79700  1.0000
  B   B15       1.0  0.11000  0.03500  0.83800  1.0000
  B   B16       1.0  0.61000  0.46500  0.83800  1.0000
  H   H1        1.0  0.97400  0.74700  0.03080  1.0000
  H   H2        1.0  0.47400  0.75300  0.03080  1.0000
  H   H3        1.0  0.22800  0.62800  0.03760  1.0000
  H   H4        1.0  0.72800  0.87200  0.03760  1.0000
  H   H5        1.0  0.64500  0.05360  0.06350  1.0000
  H   H6        1.0  0.14500  0.44600  0.06350  1.0000
  H   H7        1.0  0.44300  0.50900  0.06370  1.0000
  H   H8        1.0  0.94300  0.99100  0.06370  1.0000
  H   H9        1.0  0.73200  0.23700  0.06790  1.0000
  H   H10       1.0  0.23200  0.26300  0.06790  1.0000
  H   H11       1.0  0.47200  0.15100  0.09640  1.0000
  H   H12       1.0  0.97200  0.34900  0.09640  1.0000
  H   H13       1.0  0.03440  0.61800  0.09670  1.0000
  H   H14       1.0  0.53400  0.88200  0.09670  1.0000
  H   H15       1.0  0.32400  0.50100  0.11000  1.0000
  H   H16       1.0  0.82400  0.99900  0.11000  1.0000
  H   H17       1.0  0.30300  0.16100  0.14500  1.0000
  H   H18       1.0  0.80300  0.33900  0.14500  1.0000
  H   H19       1.0  0.39000  0.66700  0.18400  1.0000
  H   H20       1.0  0.89000  0.83300  0.18400  1.0000
  H   H21       1.0  0.69200  0.53800  0.21500  1.0000
  H   H22       1.0  0.19200  0.96200  0.21500  1.0000
  H   H23       1.0  0.63500  0.22200  0.21700  1.0000
  H   H24       1.0  0.13500  0.27800  0.21700  1.0000
  H   H25       1.0  0.90300  0.53700  0.21700  1.0000
  H   H26       1.0  0.40300  0.96300  0.21700  1.0000
  H   H27       1.0  0.57400  0.53700  0.24400  1.0000
  H   H28       1.0  0.07410  0.96300  0.24400  1.0000
  H   H29       1.0  0.57400  0.03660  0.25600  1.0000
  H   H30       1.0  0.07410  0.46300  0.25600  1.0000
  H   H31       1.0  0.90300  0.03720  0.28300  1.0000
  H   H32       1.0  0.40300  0.46300  0.28300  1.0000
  H   H33       1.0  0.63500  0.72200  0.28300  1.0000
  H   H34       1.0  0.13500  0.77800  0.28300  1.0000
  H   H35       1.0  0.69200  0.03840  0.28500  1.0000
  H   H36       1.0  0.19200  0.46200  0.28500  1.0000
  H   H37       1.0  0.39000  0.16700  0.31600  1.0000
  H   H38       1.0  0.89000  0.33300  0.31600  1.0000
  H   H39       1.0  0.30300  0.66100  0.35500  1.0000
  H   H40       1.0  0.80300  0.83900  0.35500  1.0000
  H   H41       1.0  0.32400  0.00127  0.39000  1.0000
  H   H42       1.0  0.82400  0.49900  0.39000  1.0000
  H   H43       1.0  0.03440  0.11800  0.40300  1.0000
  H   H44       1.0  0.53400  0.38200  0.40300  1.0000
  H   H45       1.0  0.47200  0.65100  0.40400  1.0000
  H   H46       1.0  0.97200  0.84900  0.40400  1.0000
  H   H47       1.0  0.73200  0.73700  0.43200  1.0000
  H   H48       1.0  0.23200  0.76300  0.43200  1.0000
  H   H49       1.0  0.44300  0.00858  0.43600  1.0000
  H   H50       1.0  0.94300  0.49100  0.43600  1.0000
  H   H51       1.0  0.64500  0.55400  0.43600  1.0000
  H   H52       1.0  0.14500  0.94600  0.43600  1.0000
  H   H53       1.0  0.22800  0.12800  0.46200  1.0000
  H   H54       1.0  0.72800  0.37200  0.46200  1.0000
  H   H55       1.0  0.97400  0.24700  0.46900  1.0000
  H   H56       1.0  0.47400  0.25300  0.46900  1.0000
  H   H57       1.0  0.52600  0.74700  0.53100  1.0000
  H   H58       1.0  0.02640  0.75300  0.53100  1.0000
  H   H59       1.0  0.27200  0.62800  0.53800  1.0000
  H   H60       1.0  0.77200  0.87200  0.53800  1.0000
  H   H61       1.0  0.85500  0.05360  0.56400  1.0000
  H   H62       1.0  0.35500  0.44600  0.56400  1.0000
  H   H63       1.0  0.05670  0.50900  0.56400  1.0000
  H   H64       1.0  0.55700  0.99100  0.56400  1.0000
  H   H65       1.0  0.76800  0.23700  0.56800  1.0000
  H   H66       1.0  0.26800  0.26300  0.56800  1.0000
  H   H67       1.0  0.02850  0.15100  0.59600  1.0000
  H   H68       1.0  0.52800  0.34900  0.59600  1.0000
  H   H69       1.0  0.46600  0.61800  0.59700  1.0000
  H   H70       1.0  0.96600  0.88200  0.59700  1.0000
  H   H71       1.0  0.17600  0.50100  0.61000  1.0000
  H   H72       1.0  0.67600  0.99900  0.61000  1.0000
  H   H73       1.0  0.19700  0.16100  0.64500  1.0000
  H   H74       1.0  0.69700  0.33900  0.64500  1.0000
  H   H75       1.0  0.11000  0.66700  0.68400  1.0000
  H   H76       1.0  0.61000  0.83300  0.68400  1.0000
  H   H77       1.0  0.80800  0.53800  0.71500  1.0000
  H   H78       1.0  0.30800  0.96200  0.71500  1.0000
  H   H79       1.0  0.86500  0.22200  0.71700  1.0000
  H   H80       1.0  0.36500  0.27800  0.71700  1.0000
  H   H81       1.0  0.59700  0.53700  0.71700  1.0000
  H   H82       1.0  0.09720  0.96300  0.71700  1.0000
  H   H83       1.0  0.92600  0.53700  0.74400  1.0000
  H   H84       1.0  0.42600  0.96300  0.74400  1.0000
  H   H85       1.0  0.92600  0.03660  0.75600  1.0000
  H   H86       1.0  0.42600  0.46300  0.75600  1.0000
  H   H87       1.0  0.59700  0.03720  0.78300  1.0000
  H   H88       1.0  0.09720  0.46300  0.78300  1.0000
  H   H89       1.0  0.86500  0.72200  0.78300  1.0000
  H   H90       1.0  0.36500  0.77800  0.78300  1.0000
  H   H91       1.0  0.80800  0.03840  0.78500  1.0000
  H   H92       1.0  0.30800  0.46200  0.78500  1.0000
  H   H93       1.0  0.11000  0.16700  0.81600  1.0000
  H   H94       1.0  0.61000  0.33300  0.81600  1.0000
  H   H95       1.0  0.19700  0.66100  0.85500  1.0000
  H   H96       1.0  0.69700  0.83900  0.85500  1.0000
  H   H97       1.0  0.17600  0.00127  0.89000  1.0000
  H   H98       1.0  0.67600  0.49900  0.89000  1.0000
  H   H99       1.0  0.46600  0.11800  0.90300  1.0000
  H   H100      1.0  0.96600  0.38200  0.90300  1.0000
  H   H101      1.0  0.02850  0.65100  0.90400  1.0000
  H   H102      1.0  0.52800  0.84900  0.90400  1.0000
  H   H103      1.0  0.76800  0.73700  0.93200  1.0000
  H   H104      1.0  0.26800  0.76300  0.93200  1.0000
  H   H105      1.0  0.05670  0.00858  0.93600  1.0000
  H   H106      1.0  0.55700  0.49100  0.93600  1.0000
  H   H107      1.0  0.85500  0.55400  0.93600  1.0000
  H   H108      1.0  0.35500  0.94600  0.93600  1.0000
  H   H109      1.0  0.27200  0.12800  0.96200  1.0000
  H   H110      1.0  0.77200  0.37200  0.96200  1.0000
  H   H111      1.0  0.52600  0.24700  0.96900  1.0000
  H   H112      1.0  0.02640  0.25300  0.96900  1.0000
  Mg  Mg1       1.0  0.62400  0.64900  0.03790  1.0000
  Mg  Mg2       1.0  0.12400  0.85100  0.03790  1.0000
  Mg  Mg3       1.0  0.62400  0.14900  0.46200  1.0000
  Mg  Mg4       1.0  0.12400  0.35100  0.46200  1.0000
  Mg  Mg5       1.0  0.87600  0.64900  0.53800  1.0000
  Mg  Mg6       1.0  0.37600  0.85100  0.53800  1.0000
  Mg  Mg7       1.0  0.87600  0.14900  0.96200  1.0000
  Mg  Mg8       1.0  0.37600  0.35100  0.96200  1.0000
  N   N1        1.0  0.02880  0.70200  0.01380  1.0000
  N   N2        1.0  0.52900  0.79800  0.01380  1.0000
  N   N3        1.0  0.28500  0.21200  0.04130  1.0000
  N   N4        1.0  0.78500  0.28800  0.04130  1.0000
  N   N5        1.0  0.28500  0.71200  0.45900  1.0000
  N   N6        1.0  0.78500  0.78800  0.45900  1.0000
  N   N7        1.0  0.02880  0.20200  0.48600  1.0000
  N   N8        1.0  0.52900  0.29800  0.48600  1.0000
  N   N9        1.0  0.47100  0.70200  0.51400  1.0000
  N   N10       1.0  0.97100  0.79800  0.51400  1.0000
  N   N11       1.0  0.21500  0.21200  0.54100  1.0000
  N   N12       1.0  0.71500  0.28800  0.54100  1.0000
  N   N13       1.0  0.21500  0.71200  0.95900  1.0000
  N   N14       1.0  0.71500  0.78800  0.95900  1.0000
  N   N15       1.0  0.47100  0.20200  0.98600  1.0000
  N   N16       1.0  0.97100  0.29800  0.98600  1.0000
