data_image0
_chemical_formula_structural       CoGa2S4
_chemical_formula_sum              "Co1 Ga2 S4"
_cell_length_a       6.40705
_cell_length_b       5.26921
_cell_length_c       5.26921
_cell_angle_alpha    90
_cell_angle_beta     114.28
_cell_angle_gamma    114.28

_space_group_name_H-M_alt    "P 1"
_space_group_IT_number       1

loop_
  _space_group_symop_operation_xyz
  'x, y, z'

loop_
  _atom_site_type_symbol
  _atom_site_label
  _atom_site_symmetry_multiplicity
  _atom_site_fract_x
  _atom_site_fract_y
  _atom_site_fract_z
  _atom_site_occupancy
  Co  Co1       1.0  0.00000  0.50000  0.50000  1.0000
  Ga  Ga1       1.0  0.00000  0.00000  0.00000  1.0000
  Ga  Ga2       1.0  0.50000  0.25000  0.75000  1.0000
  S   S1        1.0  0.74500  0.62600  0.13400  1.0000
  S   S2        1.0  0.25500  0.38900  0.37400  1.0000
  S   S3        1.0  0.74500  0.11800  0.61100  1.0000
  S   S4        1.0  0.25500  0.86600  0.88200  1.0000
