data_image0
_chemical_formula_structural       B2CoW2
_chemical_formula_sum              "B2 Co1 W2"
_cell_length_a       3.18506
_cell_length_b       4.52198
_cell_length_c       4.52198
_cell_angle_alpha    103.893
_cell_angle_beta     110.62
_cell_angle_gamma    110.62

_space_group_name_H-M_alt    "P 1"
_space_group_IT_number       1

loop_
  _space_group_symop_operation_xyz
  'x, y, z'

loop_
  _atom_site_type_symbol
  _atom_site_label
  _atom_site_symmetry_multiplicity
  _atom_site_fract_x
  _atom_site_fract_y
  _atom_site_fract_z
  _atom_site_occupancy
  B   B1        1.0  0.79500  0.29500  0.29500  1.0000
  B   B2        1.0  0.20500  0.70500  0.70500  1.0000
  Co  Co1       1.0  0.00000  0.00000  0.00000  1.0000
  W   W1        1.0  0.50000  0.70100  0.29900  1.0000
  W   W2        1.0  0.50000  0.29900  0.70100  1.0000
