data_image0
_chemical_formula_structural       C4CoSc3
_chemical_formula_sum              "C4 Co1 Sc3"
_cell_length_a       3.4254
_cell_length_b       4.33288
_cell_length_c       6.57972
_cell_angle_alpha    109.224
_cell_angle_beta     105.088
_cell_angle_gamma    90

_space_group_name_H-M_alt    "P 1"
_space_group_IT_number       1

loop_
  _space_group_symop_operation_xyz
  'x, y, z'

loop_
  _atom_site_type_symbol
  _atom_site_label
  _atom_site_symmetry_multiplicity
  _atom_site_fract_x
  _atom_site_fract_y
  _atom_site_fract_z
  _atom_site_occupancy
  C   C1        1.0  0.62300  0.45600  0.24700  1.0000
  C   C2        1.0  0.62300  0.79100  0.24700  1.0000
  C   C3        1.0  0.37700  0.20900  0.75300  1.0000
  C   C4        1.0  0.37700  0.54400  0.75300  1.0000
  Co  Co1       1.0  0.50000  0.00000  0.00000  1.0000
  Sc  Sc1       1.0  0.00000  0.50000  0.00000  1.0000
  Sc  Sc2       1.0  0.18800  0.18800  0.37500  1.0000
  Sc  Sc3       1.0  0.81200  0.81200  0.62500  1.0000
