data_image0
_chemical_formula_structural       Br2Co
_chemical_formula_sum              "Br2 Co1"
_cell_length_a       3.73747
_cell_length_b       3.73123
_cell_length_c       6.25486
_cell_angle_alpha    90
_cell_angle_beta     90.1959
_cell_angle_gamma    119.945

_space_group_name_H-M_alt    "P 1"
_space_group_IT_number       1

loop_
  _space_group_symop_operation_xyz
  'x, y, z'

loop_
  _atom_site_type_symbol
  _atom_site_label
  _atom_site_symmetry_multiplicity
  _atom_site_fract_x
  _atom_site_fract_y
  _atom_site_fract_z
  _atom_site_occupancy
  Br  Br1       1.0  0.33300  0.66600  0.23000  1.0000
  Br  Br2       1.0  0.66700  0.33400  0.77000  1.0000
  Co  Co1       1.0  0.00000  0.00000  0.00000  1.0000
