data_image0
_chemical_formula_structural       C2CoYb
_chemical_formula_sum              "C2 Co1 Yb1"
_cell_length_a       3.72094
_cell_length_b       3.66099
_cell_length_c       3.66099
_cell_angle_alpha    104.662
_cell_angle_beta     90
_cell_angle_gamma    90

_space_group_name_H-M_alt    "P 1"
_space_group_IT_number       1

loop_
  _space_group_symop_operation_xyz
  'x, y, z'

loop_
  _atom_site_type_symbol
  _atom_site_label
  _atom_site_symmetry_multiplicity
  _atom_site_fract_x
  _atom_site_fract_y
  _atom_site_fract_z
  _atom_site_occupancy
  C   C1        1.0  0.50000  0.54900  0.14700  1.0000
  C   C2        1.0  0.50000  0.85300  0.45100  1.0000
  Co  Co1       1.0  0.50000  0.38100  0.61900  1.0000
  Yb  Yb1       1.0  0.00000  0.00174  0.99800  1.0000
