data_image0
_chemical_formula_structural       CoCr2Se4
_chemical_formula_sum              "Co1 Cr2 Se4"
_cell_length_a       3.65633
_cell_length_b       6.32029
_cell_length_c       6.55274
_cell_angle_alpha    117.591
_cell_angle_beta     106.2
_cell_angle_gamma    90

_space_group_name_H-M_alt    "P 1"
_space_group_IT_number       1

loop_
  _space_group_symop_operation_xyz
  'x, y, z'

loop_
  _atom_site_type_symbol
  _atom_site_label
  _atom_site_symmetry_multiplicity
  _atom_site_fract_x
  _atom_site_fract_y
  _atom_site_fract_z
  _atom_site_occupancy
  Co  Co1       1.0  0.00000  0.00000  0.00000  1.0000
  Cr  Cr1       1.0  0.74000  0.71900  0.48000  1.0000
  Cr  Cr2       1.0  0.26000  0.28100  0.52000  1.0000
  Se  Se1       1.0  0.11500  0.44400  0.23000  1.0000
  Se  Se2       1.0  0.62800  0.97100  0.25600  1.0000
  Se  Se3       1.0  0.37200  0.02850  0.74400  1.0000
  Se  Se4       1.0  0.88500  0.55600  0.77000  1.0000
