data_image0
_chemical_formula_structural       CoGe3Pr
_chemical_formula_sum              "Co1 Ge3 Pr1"
_cell_length_a       4.34309
_cell_length_b       4.34309
_cell_length_c       5.83038
_cell_angle_alpha    111.867
_cell_angle_beta     111.867
_cell_angle_gamma    90

_space_group_name_H-M_alt    "P 1"
_space_group_IT_number       1

loop_
  _space_group_symop_operation_xyz
  'x, y, z'

loop_
  _atom_site_type_symbol
  _atom_site_label
  _atom_site_symmetry_multiplicity
  _atom_site_fract_x
  _atom_site_fract_y
  _atom_site_fract_z
  _atom_site_occupancy
  Co  Co1       1.0  0.23300  0.23300  0.46600  1.0000
  Ge  Ge1       1.0  0.00094  0.00094  0.00187  1.0000
  Ge  Ge2       1.0  0.82600  0.32600  0.65300  1.0000
  Ge  Ge3       1.0  0.32600  0.82600  0.65300  1.0000
  Pr  Pr1       1.0  0.56900  0.56900  0.13700  1.0000
