data_image0
_chemical_formula_structural       C4Co2Pr2
_chemical_formula_sum              "C4 Co2 Pr2"
_cell_length_a       3.81897
_cell_length_b       3.81897
_cell_length_c       7.41514
_cell_angle_alpha    98.3666
_cell_angle_beta     98.3666
_cell_angle_gamma    90.0584

_space_group_name_H-M_alt    "P 1"
_space_group_IT_number       1

loop_
  _space_group_symop_operation_xyz
  'x, y, z'

loop_
  _atom_site_type_symbol
  _atom_site_label
  _atom_site_symmetry_multiplicity
  _atom_site_fract_x
  _atom_site_fract_y
  _atom_site_fract_z
  _atom_site_occupancy
  C   C1        1.0  0.51100  0.14800  0.27500  1.0000
  C   C2        1.0  0.55700  0.40600  0.42700  1.0000
  C   C3        1.0  0.14800  0.51100  0.77500  1.0000
  C   C4        1.0  0.40600  0.55700  0.92700  1.0000
  Co  Co1       1.0  0.48600  0.62800  0.19500  1.0000
  Co  Co2       1.0  0.62800  0.48600  0.69500  1.0000
  Pr  Pr1       1.0  0.92600  0.07420  0.00296  1.0000
  Pr  Pr2       1.0  0.07420  0.92600  0.50300  1.0000
