data_image0
_chemical_formula_structural       CoSi3Sm
_chemical_formula_sum              "Co1 Si3 Sm1"
_cell_length_a       4.10312
_cell_length_b       4.10312
_cell_length_c       5.59671
_cell_angle_alpha    111.504
_cell_angle_beta     111.504
_cell_angle_gamma    90

_space_group_name_H-M_alt    "P 1"
_space_group_IT_number       1

loop_
  _space_group_symop_operation_xyz
  'x, y, z'

loop_
  _atom_site_type_symbol
  _atom_site_label
  _atom_site_symmetry_multiplicity
  _atom_site_fract_x
  _atom_site_fract_y
  _atom_site_fract_z
  _atom_site_occupancy
  Co  Co1       1.0  0.33900  0.33900  0.67800  1.0000
  Si  Si1       1.0  0.57300  0.57300  0.14600  1.0000
  Si  Si2       1.0  0.73900  0.23900  0.47700  1.0000
  Si  Si3       1.0  0.23900  0.73900  0.47700  1.0000
  Sm  Sm1       1.0  0.99600  0.99600  0.99100  1.0000
