data_image0
_chemical_formula_structural       CoSi3Th
_chemical_formula_sum              "Co1 Si3 Th1"
_cell_length_a       4.16912
_cell_length_b       4.16912
_cell_length_c       5.57153
_cell_angle_alpha    111.971
_cell_angle_beta     111.971
_cell_angle_gamma    90

_space_group_name_H-M_alt    "P 1"
_space_group_IT_number       1

loop_
  _space_group_symop_operation_xyz
  'x, y, z'

loop_
  _atom_site_type_symbol
  _atom_site_label
  _atom_site_symmetry_multiplicity
  _atom_site_fract_x
  _atom_site_fract_y
  _atom_site_fract_z
  _atom_site_occupancy
  Co  Co1       1.0  0.33700  0.33700  0.67300  1.0000
  Si  Si1       1.0  0.57700  0.57700  0.15400  1.0000
  Si  Si2       1.0  0.73800  0.23800  0.47600  1.0000
  Si  Si3       1.0  0.23800  0.73800  0.47600  1.0000
  Th  Th1       1.0  0.99600  0.99600  0.99200  1.0000
