data_image0
_chemical_formula_structural       CoSi3Tb
_chemical_formula_sum              "Co1 Si3 Tb1"
_cell_length_a       4.06738
_cell_length_b       4.06738
_cell_length_c       5.56341
_cell_angle_alpha    111.441
_cell_angle_beta     111.441
_cell_angle_gamma    90

_space_group_name_H-M_alt    "P 1"
_space_group_IT_number       1

loop_
  _space_group_symop_operation_xyz
  'x, y, z'

loop_
  _atom_site_type_symbol
  _atom_site_label
  _atom_site_symmetry_multiplicity
  _atom_site_fract_x
  _atom_site_fract_y
  _atom_site_fract_z
  _atom_site_occupancy
  Co  Co1       1.0  0.66000  0.66000  0.32000  1.0000
  Si  Si1       1.0  0.76200  0.26200  0.52400  1.0000
  Si  Si2       1.0  0.26200  0.76200  0.52400  1.0000
  Si  Si3       1.0  0.42800  0.42800  0.85500  1.0000
  Tb  Tb1       1.0  0.00327  0.00327  0.00655  1.0000
