data_image0
_chemical_formula_structural       C4Ce2Co2
_chemical_formula_sum              "C4 Ce2 Co2"
_cell_length_a       3.85493
_cell_length_b       3.85493
_cell_length_c       7.44283
_cell_angle_alpha    98.6246
_cell_angle_beta     81.3754
_cell_angle_gamma    89.9558

_space_group_name_H-M_alt    "P 1"
_space_group_IT_number       1

loop_
  _space_group_symop_operation_xyz
  'x, y, z'

loop_
  _atom_site_type_symbol
  _atom_site_label
  _atom_site_symmetry_multiplicity
  _atom_site_fract_x
  _atom_site_fract_y
  _atom_site_fract_z
  _atom_site_occupancy
  C   C1        1.0  0.49100  0.14900  0.27400  1.0000
  C   C2        1.0  0.44300  0.40400  0.42600  1.0000
  C   C3        1.0  0.85100  0.50900  0.77400  1.0000
  C   C4        1.0  0.59600  0.55700  0.92600  1.0000
  Ce  Ce1       1.0  0.07520  0.07370  0.00204  1.0000
  Ce  Ce2       1.0  0.92600  0.92500  0.50200  1.0000
  Co  Co1       1.0  0.51400  0.62800  0.19500  1.0000
  Co  Co2       1.0  0.37200  0.48600  0.69500  1.0000
