data_image0
_chemical_formula_structural       B2Co2Ho
_chemical_formula_sum              "B2 Co2 Ho1"
_cell_length_a       3.53667
_cell_length_b       3.53667
_cell_length_c       5.27257
_cell_angle_alpha    109.596
_cell_angle_beta     109.596
_cell_angle_gamma    90

_space_group_name_H-M_alt    "P 1"
_space_group_IT_number       1

loop_
  _space_group_symop_operation_xyz
  'x, y, z'

loop_
  _atom_site_type_symbol
  _atom_site_label
  _atom_site_symmetry_multiplicity
  _atom_site_fract_x
  _atom_site_fract_y
  _atom_site_fract_z
  _atom_site_occupancy
  B   B1        1.0  0.64800  0.64800  0.29700  1.0000
  B   B2        1.0  0.35200  0.35200  0.70300  1.0000
  Co  Co1       1.0  0.75000  0.25000  0.50000  1.0000
  Co  Co2       1.0  0.25000  0.75000  0.50000  1.0000
  Ho  Ho1       1.0  0.00000  0.00000  0.00000  1.0000
