data_image0
_chemical_formula_structural       GeMnTe4Tl2
_chemical_formula_sum              "Ge1 Mn1 Te4 Tl2"
_cell_length_a       6.99813
_cell_length_b       6.99813
_cell_length_c       6.99813
_cell_angle_alpha    104.332
_cell_angle_beta     120.325
_cell_angle_gamma    104.332

_space_group_name_H-M_alt    "P 1"
_space_group_IT_number       1

loop_
  _space_group_symop_operation_xyz
  'x, y, z'

loop_
  _atom_site_type_symbol
  _atom_site_label
  _atom_site_symmetry_multiplicity
  _atom_site_fract_x
  _atom_site_fract_y
  _atom_site_fract_z
  _atom_site_occupancy
  Ge  Ge1       1.0  0.00000  0.00000  0.00000  1.0000
  Mn  Mn1       1.0  0.50000  0.00000  0.50000  1.0000
  Te  Te1       1.0  0.06740  0.65900  0.06740  1.0000
  Te  Te2       1.0  0.40800  0.34100  0.40800  1.0000
  Te  Te3       1.0  0.93300  0.00000  0.59200  1.0000
  Te  Te4       1.0  0.59200  0.00000  0.93300  1.0000
  Tl  Tl1       1.0  0.50000  0.50000  0.00000  1.0000
  Tl  Tl2       1.0  0.00000  0.50000  0.50000  1.0000
