data_image0
_chemical_formula_structural       CoRh2Se4
_chemical_formula_sum              "Co1 Rh2 Se4"
_cell_length_a       3.72865
_cell_length_b       6.42663
_cell_length_c       6.37236
_cell_angle_alpha    118.85
_cell_angle_beta     107.012
_cell_angle_gamma    90

_space_group_name_H-M_alt    "P 1"
_space_group_IT_number       1

loop_
  _space_group_symop_operation_xyz
  'x, y, z'

loop_
  _atom_site_type_symbol
  _atom_site_label
  _atom_site_symmetry_multiplicity
  _atom_site_fract_x
  _atom_site_fract_y
  _atom_site_fract_z
  _atom_site_occupancy
  Co  Co1       1.0  0.00000  0.00000  0.00000  1.0000
  Rh  Rh1       1.0  0.73700  0.71900  0.47400  1.0000
  Rh  Rh2       1.0  0.26300  0.28100  0.52600  1.0000
  Se  Se1       1.0  0.11600  0.44500  0.23200  1.0000
  Se  Se2       1.0  0.62900  0.97300  0.25800  1.0000
  Se  Se3       1.0  0.37100  0.02710  0.74200  1.0000
  Se  Se4       1.0  0.88400  0.55500  0.76800  1.0000
