data_image0
_chemical_formula_structural       Co4Nd2
_chemical_formula_sum              "Co4 Nd2"
_cell_length_a       5.1066
_cell_length_b       5.10221
_cell_length_c       5.1008
_cell_angle_alpha    60.0743
_cell_angle_beta     59.9959
_cell_angle_gamma    59.9632

_space_group_name_H-M_alt    "P 1"
_space_group_IT_number       1

loop_
  _space_group_symop_operation_xyz
  'x, y, z'

loop_
  _atom_site_type_symbol
  _atom_site_label
  _atom_site_symmetry_multiplicity
  _atom_site_fract_x
  _atom_site_fract_y
  _atom_site_fract_z
  _atom_site_occupancy
  Co  Co1       1.0  0.62500  0.62500  0.62500  1.0000
  Co  Co2       1.0  0.62500  0.62500  0.12500  1.0000
  Co  Co3       1.0  0.12500  0.62500  0.62500  1.0000
  Co  Co4       1.0  0.62500  0.12500  0.62500  1.0000
  Nd  Nd1       1.0  0.00002  0.00000  0.00001  1.0000
  Nd  Nd2       1.0  0.25000  0.25000  0.25000  1.0000
