data_image0
_chemical_formula_structural       Co2Hf4P2
_chemical_formula_sum              "Co2 Hf4 P2"
_cell_length_a       5.17673
_cell_length_b       3.5996
_cell_length_c       7.40451
_cell_angle_alpha    90
_cell_angle_beta     111.195
_cell_angle_gamma    90

_space_group_name_H-M_alt    "P 1"
_space_group_IT_number       1

loop_
  _space_group_symop_operation_xyz
  'x, y, z'

loop_
  _atom_site_type_symbol
  _atom_site_label
  _atom_site_symmetry_multiplicity
  _atom_site_fract_x
  _atom_site_fract_y
  _atom_site_fract_z
  _atom_site_occupancy
  Co  Co1       1.0  0.64900  0.75000  0.29000  1.0000
  Co  Co2       1.0  0.35100  0.25000  0.71000  1.0000
  Hf  Hf1       1.0  0.78700  0.25000  0.08050  1.0000
  Hf  Hf2       1.0  0.20800  0.75000  0.43500  1.0000
  Hf  Hf3       1.0  0.79200  0.25000  0.56500  1.0000
  Hf  Hf4       1.0  0.21300  0.75000  0.91900  1.0000
  P   P1        1.0  0.35000  0.25000  0.21100  1.0000
  P   P2        1.0  0.65000  0.75000  0.78900  1.0000
