data_image0
_chemical_formula_structural       Co3Se4
_chemical_formula_sum              "Co3 Se4"
_cell_length_a       3.56806
_cell_length_b       6.15149
_cell_length_c       6.33077
_cell_angle_alpha    120.796
_cell_angle_beta     106.368
_cell_angle_gamma    90

_space_group_name_H-M_alt    "P 1"
_space_group_IT_number       1

loop_
  _space_group_symop_operation_xyz
  'x, y, z'

loop_
  _atom_site_type_symbol
  _atom_site_label
  _atom_site_symmetry_multiplicity
  _atom_site_fract_x
  _atom_site_fract_y
  _atom_site_fract_z
  _atom_site_occupancy
  Co  Co1       1.0  0.50000  0.50000  0.00000  1.0000
  Co  Co2       1.0  0.23900  0.25900  0.47800  1.0000
  Co  Co3       1.0  0.76100  0.74100  0.52200  1.0000
  Se  Se1       1.0  0.62200  0.28800  0.24400  1.0000
  Se  Se2       1.0  0.13400  0.79200  0.26700  1.0000
  Se  Se3       1.0  0.86600  0.20800  0.73300  1.0000
  Se  Se4       1.0  0.37800  0.71200  0.75600  1.0000
