data_image0
_chemical_formula_structural       CoNdSi3
_chemical_formula_sum              "Co1 Nd1 Si3"
_cell_length_a       4.12865
_cell_length_b       4.12865
_cell_length_c       5.61786
_cell_angle_alpha    111.559
_cell_angle_beta     111.559
_cell_angle_gamma    90

_space_group_name_H-M_alt    "P 1"
_space_group_IT_number       1

loop_
  _space_group_symop_operation_xyz
  'x, y, z'

loop_
  _atom_site_type_symbol
  _atom_site_label
  _atom_site_symmetry_multiplicity
  _atom_site_fract_x
  _atom_site_fract_y
  _atom_site_fract_z
  _atom_site_occupancy
  Co  Co1       1.0  0.66200  0.66200  0.32300  1.0000
  Nd  Nd1       1.0  0.00457  0.00457  0.00913  1.0000
  Si  Si1       1.0  0.76100  0.26100  0.52200  1.0000
  Si  Si2       1.0  0.26100  0.76100  0.52200  1.0000
  Si  Si3       1.0  0.42600  0.42600  0.85300  1.0000
