data_image0
_chemical_formula_structural       CoS4V2
_chemical_formula_sum              "Co1 S4 V2"
_cell_length_a       3.22119
_cell_length_b       5.77367
_cell_length_c       6.1886
_cell_angle_alpha    114.976
_cell_angle_beta     105.085
_cell_angle_gamma    90

_space_group_name_H-M_alt    "P 1"
_space_group_IT_number       1

loop_
  _space_group_symop_operation_xyz
  'x, y, z'

loop_
  _atom_site_type_symbol
  _atom_site_label
  _atom_site_symmetry_multiplicity
  _atom_site_fract_x
  _atom_site_fract_y
  _atom_site_fract_z
  _atom_site_occupancy
  Co  Co1       1.0  0.00000  0.00000  0.00000  1.0000
  S   S1        1.0  0.10400  0.44100  0.20900  1.0000
  S   S2        1.0  0.63500  0.97700  0.27000  1.0000
  S   S3        1.0  0.36500  0.02270  0.73000  1.0000
  S   S4        1.0  0.89600  0.55900  0.79100  1.0000
  V   V1        1.0  0.74000  0.69000  0.48100  1.0000
  V   V2        1.0  0.26000  0.31000  0.51900  1.0000
