data_image0
_chemical_formula_structural       CoSe4Ti2
_chemical_formula_sum              "Co1 Se4 Ti2"
_cell_length_a       3.56838
_cell_length_b       6.13033
_cell_length_c       6.83285
_cell_angle_alpha    116.287
_cell_angle_beta     105.136
_cell_angle_gamma    90

_space_group_name_H-M_alt    "P 1"
_space_group_IT_number       1

loop_
  _space_group_symop_operation_xyz
  'x, y, z'

loop_
  _atom_site_type_symbol
  _atom_site_label
  _atom_site_symmetry_multiplicity
  _atom_site_fract_x
  _atom_site_fract_y
  _atom_site_fract_z
  _atom_site_occupancy
  Co  Co1       1.0  0.00000  0.00000  0.00000  1.0000
  Se  Se1       1.0  0.11400  0.45000  0.22800  1.0000
  Se  Se2       1.0  0.61900  0.95500  0.23900  1.0000
  Se  Se3       1.0  0.38100  0.04540  0.76100  1.0000
  Se  Se4       1.0  0.88600  0.55000  0.77200  1.0000
  Ti  Ti1       1.0  0.74800  0.73500  0.49700  1.0000
  Ti  Ti2       1.0  0.25200  0.26500  0.50300  1.0000
