data_image0
_chemical_formula_structural       B4Co2Mo
_chemical_formula_sum              "B4 Co2 Mo1"
_cell_length_a       3.02214
_cell_length_b       3.06295
_cell_length_c       6.58544
_cell_angle_alpha    103.448
_cell_angle_beta     103.265
_cell_angle_gamma    90

_space_group_name_H-M_alt    "P 1"
_space_group_IT_number       1

loop_
  _space_group_symop_operation_xyz
  'x, y, z'

loop_
  _atom_site_type_symbol
  _atom_site_label
  _atom_site_symmetry_multiplicity
  _atom_site_fract_x
  _atom_site_fract_y
  _atom_site_fract_z
  _atom_site_occupancy
  B   B1        1.0  0.07480  0.57500  0.15000  1.0000
  B   B2        1.0  0.65200  0.65200  0.30300  1.0000
  B   B3        1.0  0.34800  0.34800  0.69700  1.0000
  B   B4        1.0  0.92500  0.42500  0.85000  1.0000
  Co  Co1       1.0  0.18500  0.18500  0.37100  1.0000
  Co  Co2       1.0  0.81500  0.81500  0.62900  1.0000
  Mo  Mo1       1.0  0.50000  0.00000  0.00000  1.0000
