data_image0
_chemical_formula_structural       AlCo2Nd2
_chemical_formula_sum              "Al1 Co2 Nd2"
_cell_length_a       4.09236
_cell_length_b       5.54183
_cell_length_c       5.54183
_cell_angle_alpha    102.576
_cell_angle_beta     111.668
_cell_angle_gamma    111.668

_space_group_name_H-M_alt    "P 1"
_space_group_IT_number       1

loop_
  _space_group_symop_operation_xyz
  'x, y, z'

loop_
  _atom_site_type_symbol
  _atom_site_label
  _atom_site_symmetry_multiplicity
  _atom_site_fract_x
  _atom_site_fract_y
  _atom_site_fract_z
  _atom_site_occupancy
  Al  Al1       1.0  0.00000  0.00000  0.00000  1.0000
  Co  Co1       1.0  0.76300  0.26300  0.26300  1.0000
  Co  Co2       1.0  0.23700  0.73700  0.73700  1.0000
  Nd  Nd1       1.0  0.50000  0.70100  0.29900  1.0000
  Nd  Nd2       1.0  0.50000  0.29900  0.70100  1.0000
