data_image0
_chemical_formula_structural       CoS4Ti2
_chemical_formula_sum              "Co1 S4 Ti2"
_cell_length_a       3.35795
_cell_length_b       5.80717
_cell_length_c       6.46458
_cell_angle_alpha    116.15
_cell_angle_beta     105.053
_cell_angle_gamma    90

_space_group_name_H-M_alt    "P 1"
_space_group_IT_number       1

loop_
  _space_group_symop_operation_xyz
  'x, y, z'

loop_
  _atom_site_type_symbol
  _atom_site_label
  _atom_site_symmetry_multiplicity
  _atom_site_fract_x
  _atom_site_fract_y
  _atom_site_fract_z
  _atom_site_occupancy
  Co  Co1       1.0  0.00000  0.00000  0.00000  1.0000
  S   S1        1.0  0.11400  0.44300  0.22900  1.0000
  S   S2        1.0  0.61900  0.95900  0.23900  1.0000
  S   S3        1.0  0.38100  0.04060  0.76100  1.0000
  S   S4        1.0  0.88600  0.55700  0.77100  1.0000
  Ti  Ti1       1.0  0.74300  0.73500  0.48600  1.0000
  Ti  Ti2       1.0  0.25700  0.26500  0.51400  1.0000
