data_image0
_chemical_formula_structural       Co2O8W2
_chemical_formula_sum              "Co2 O8 W2"
_cell_length_a       4.64253
_cell_length_b       5.6958
_cell_length_c       4.94317
_cell_angle_alpha    90
_cell_angle_beta     89.758
_cell_angle_gamma    90

_space_group_name_H-M_alt    "P 1"
_space_group_IT_number       1

loop_
  _space_group_symop_operation_xyz
  'x, y, z'

loop_
  _atom_site_type_symbol
  _atom_site_label
  _atom_site_symmetry_multiplicity
  _atom_site_fract_x
  _atom_site_fract_y
  _atom_site_fract_z
  _atom_site_occupancy
  Co  Co1       1.0  0.50000  0.66200  0.25000  1.0000
  Co  Co2       1.0  0.50000  0.33800  0.75000  1.0000
  O   O1        1.0  0.78000  0.89300  0.06960  1.0000
  O   O2        1.0  0.74200  0.37800  0.09760  1.0000
  O   O3        1.0  0.25800  0.37800  0.40200  1.0000
  O   O4        1.0  0.22000  0.89300  0.43000  1.0000
  O   O5        1.0  0.78000  0.10700  0.57000  1.0000
  O   O6        1.0  0.74200  0.62200  0.59800  1.0000
  O   O7        1.0  0.25800  0.62200  0.90200  1.0000
  O   O8        1.0  0.22000  0.10700  0.93000  1.0000
  W   W1        1.0  0.00000  0.18000  0.25000  1.0000
  W   W2        1.0  0.00000  0.82000  0.75000  1.0000
