data_image0
_chemical_formula_structural       Cl6Co2Tl2
_chemical_formula_sum              "Cl6 Co2 Tl2"
_cell_length_a       6.92642
_cell_length_b       6.92693
_cell_length_c       5.83908
_cell_angle_alpha    90
_cell_angle_beta     90
_cell_angle_gamma    119.998

_space_group_name_H-M_alt    "P 1"
_space_group_IT_number       1

loop_
  _space_group_symop_operation_xyz
  'x, y, z'

loop_
  _atom_site_type_symbol
  _atom_site_label
  _atom_site_symmetry_multiplicity
  _atom_site_fract_x
  _atom_site_fract_y
  _atom_site_fract_z
  _atom_site_occupancy
  Cl  Cl1       1.0  0.32200  0.16100  0.25000  1.0000
  Cl  Cl2       1.0  0.83900  0.16100  0.25000  1.0000
  Cl  Cl3       1.0  0.83900  0.67800  0.25000  1.0000
  Cl  Cl4       1.0  0.16100  0.32200  0.75000  1.0000
  Cl  Cl5       1.0  0.16100  0.83900  0.75000  1.0000
  Cl  Cl6       1.0  0.67800  0.83900  0.75000  1.0000
  Co  Co1       1.0  0.00000  0.00000  0.00000  1.0000
  Co  Co2       1.0  0.00000  0.00000  0.50000  1.0000
  Tl  Tl1       1.0  0.33300  0.66700  0.25000  1.0000
  Tl  Tl2       1.0  0.66700  0.33300  0.75000  1.0000
