data_image0
_chemical_formula_structural       Co2Gd4Si4
_chemical_formula_sum              "Co2 Gd4 Si4"
_cell_length_a       4.15744
_cell_length_b       5.68572
_cell_length_c       9.01496
_cell_angle_alpha    96.7825
_cell_angle_beta     103.332
_cell_angle_gamma    68.5553

_space_group_name_H-M_alt    "P 1"
_space_group_IT_number       1

loop_
  _space_group_symop_operation_xyz
  'x, y, z'

loop_
  _atom_site_type_symbol
  _atom_site_label
  _atom_site_symmetry_multiplicity
  _atom_site_fract_x
  _atom_site_fract_y
  _atom_site_fract_z
  _atom_site_occupancy
  Co  Co1       1.0  0.72700  0.92700  0.38100  1.0000
  Co  Co2       1.0  0.27300  0.07310  0.61900  1.0000
  Gd  Gd1       1.0  0.18700  0.73100  0.10500  1.0000
  Gd  Gd2       1.0  0.99800  0.33100  0.32700  1.0000
  Gd  Gd3       1.0  0.00197  0.66900  0.67300  1.0000
  Gd  Gd4       1.0  0.81300  0.26900  0.89500  1.0000
  Si  Si1       1.0  0.49800  0.13100  0.12700  1.0000
  Si  Si2       1.0  0.34600  0.74200  0.43300  1.0000
  Si  Si3       1.0  0.65400  0.25800  0.56700  1.0000
  Si  Si4       1.0  0.50200  0.86900  0.87300  1.0000
