data_image0
_chemical_formula_structural       Co2Sc4Si4
_chemical_formula_sum              "Co2 Sc4 Si4"
_cell_length_a       3.95004
_cell_length_b       5.30508
_cell_length_c       8.49752
_cell_angle_alpha    92.4359
_cell_angle_beta     103.44
_cell_angle_gamma    68.1432

_space_group_name_H-M_alt    "P 1"
_space_group_IT_number       1

loop_
  _space_group_symop_operation_xyz
  'x, y, z'

loop_
  _atom_site_type_symbol
  _atom_site_label
  _atom_site_symmetry_multiplicity
  _atom_site_fract_x
  _atom_site_fract_y
  _atom_site_fract_z
  _atom_site_occupancy
  Co  Co1       1.0  0.14900  0.07690  0.37500  1.0000
  Co  Co2       1.0  0.85100  0.92300  0.62500  1.0000
  Sc  Sc1       1.0  0.42100  0.26300  0.10500  1.0000
  Sc  Sc2       1.0  0.82800  0.67300  0.32800  1.0000
  Sc  Sc3       1.0  0.17200  0.32700  0.67200  1.0000
  Sc  Sc4       1.0  0.57900  0.73700  0.89500  1.0000
  Si  Si1       1.0  0.13700  0.85100  0.12500  1.0000
  Si  Si2       1.0  0.57500  0.28000  0.43100  1.0000
  Si  Si3       1.0  0.42500  0.72000  0.56900  1.0000
  Si  Si4       1.0  0.86300  0.14900  0.87500  1.0000
