data_image0
_chemical_formula_structural       As2Co2O7
_chemical_formula_sum              "As2 Co2 O7"
_cell_length_a       4.79211
_cell_length_b       5.38095
_cell_length_c       5.38095
_cell_angle_alpha    105.314
_cell_angle_beta     97.3856
_cell_angle_gamma    97.3856

_space_group_name_H-M_alt    "P 1"
_space_group_IT_number       1

loop_
  _space_group_symop_operation_xyz
  'x, y, z'

loop_
  _atom_site_type_symbol
  _atom_site_label
  _atom_site_symmetry_multiplicity
  _atom_site_fract_x
  _atom_site_fract_y
  _atom_site_fract_z
  _atom_site_occupancy
  As  As1       1.0  0.90100  0.24000  0.24000  1.0000
  As  As2       1.0  0.09900  0.76000  0.76000  1.0000
  Co  Co1       1.0  0.50000  0.69300  0.30700  1.0000
  Co  Co2       1.0  0.50000  0.30700  0.69300  1.0000
  O   O1        1.0  0.00000  0.00000  0.00000  1.0000
  O   O2        1.0  0.71100  0.40600  0.06970  1.0000
  O   O3        1.0  0.71100  0.06970  0.40600  1.0000
  O   O4        1.0  0.23000  0.40700  0.40700  1.0000
  O   O5        1.0  0.77000  0.59300  0.59300  1.0000
  O   O6        1.0  0.28900  0.93000  0.59400  1.0000
  O   O7        1.0  0.28900  0.59400  0.93000  1.0000
