data_image0
_chemical_formula_structural       CoCu2O2S2Sr2
_chemical_formula_sum              "Co1 Cu2 O2 S2 Sr2"
_cell_length_a       3.91042
_cell_length_b       3.91042
_cell_length_c       9.62543
_cell_angle_alpha    101.72
_cell_angle_beta     101.72
_cell_angle_gamma    90

_space_group_name_H-M_alt    "P 1"
_space_group_IT_number       1

loop_
  _space_group_symop_operation_xyz
  'x, y, z'

loop_
  _atom_site_type_symbol
  _atom_site_label
  _atom_site_symmetry_multiplicity
  _atom_site_fract_x
  _atom_site_fract_y
  _atom_site_fract_z
  _atom_site_occupancy
  Co  Co1       1.0  0.00000  0.00000  0.00000  1.0000
  Cu  Cu1       1.0  0.75000  0.25000  0.50000  1.0000
  Cu  Cu2       1.0  0.25000  0.75000  0.50000  1.0000
  O   O1        1.0  0.50000  0.00000  0.00000  1.0000
  O   O2        1.0  0.00000  0.50000  0.00000  1.0000
  S   S1        1.0  0.17400  0.17400  0.34800  1.0000
  S   S2        1.0  0.82600  0.82600  0.65200  1.0000
  Sr  Sr1       1.0  0.59400  0.59400  0.18800  1.0000
  Sr  Sr2       1.0  0.40600  0.40600  0.81200  1.0000
