data_image0
_chemical_formula_structural       As3Co3Ni3
_chemical_formula_sum              "As3 Co3 Ni3"
_cell_length_a       6.08211
_cell_length_b       6.08211
_cell_length_c       3.41134
_cell_angle_alpha    90
_cell_angle_beta     90
_cell_angle_gamma    120.003

_space_group_name_H-M_alt    "P 1"
_space_group_IT_number       1

loop_
  _space_group_symop_operation_xyz
  'x, y, z'

loop_
  _atom_site_type_symbol
  _atom_site_label
  _atom_site_symmetry_multiplicity
  _atom_site_fract_x
  _atom_site_fract_y
  _atom_site_fract_z
  _atom_site_occupancy
  As  As1       1.0  0.66700  0.33300  0.00000  1.0000
  As  As2       1.0  0.33300  0.66700  0.00000  1.0000
  As  As3       1.0  0.00000  0.00000  0.50000  1.0000
  Co  Co1       1.0  0.60700  0.00000  0.50000  1.0000
  Co  Co2       1.0  0.39300  0.39300  0.50000  1.0000
  Co  Co3       1.0  0.00000  0.60700  0.50000  1.0000
  Ni  Ni1       1.0  0.26100  0.00000  0.00000  1.0000
  Ni  Ni2       1.0  0.00000  0.26100  0.00000  1.0000
  Ni  Ni3       1.0  0.73900  0.73900  0.00000  1.0000
