data_image0
_chemical_formula_structural       CNNaO
_chemical_formula_sum              "C1 N1 Na1 O1"
_cell_length_a       5.42185
_cell_length_b       5.42185
_cell_length_c       5.42185
_cell_angle_alpha    37.9766
_cell_angle_beta     37.9766
_cell_angle_gamma    37.9766

_space_group_name_H-M_alt    "P 1"
_space_group_IT_number       1

loop_
  _space_group_symop_operation_xyz
  'x, y, z'

loop_
  _atom_site_type_symbol
  _atom_site_label
  _atom_site_symmetry_multiplicity
  _atom_site_fract_x
  _atom_site_fract_y
  _atom_site_fract_z
  _atom_site_occupancy
  C   C1        1.0  0.99800  0.99800  0.99800  1.0000
  N   N1        1.0  0.07710  0.07710  0.07710  1.0000
  Na  Na1       1.0  0.49900  0.49900  0.49900  1.0000
  O   O1        1.0  0.91600  0.91600  0.91600  1.0000
