data_image0
_chemical_formula_structural       Co2Ge4Ho3
_chemical_formula_sum              "Co2 Ge4 Ho3"
_cell_length_a       4.14894
_cell_length_b       5.67001
_cell_length_c       7.98276
_cell_angle_alpha    106.459
_cell_angle_beta     90
_cell_angle_gamma    111.461

_space_group_name_H-M_alt    "P 1"
_space_group_IT_number       1

loop_
  _space_group_symop_operation_xyz
  'x, y, z'

loop_
  _atom_site_type_symbol
  _atom_site_label
  _atom_site_symmetry_multiplicity
  _atom_site_fract_x
  _atom_site_fract_y
  _atom_site_fract_z
  _atom_site_occupancy
  Co  Co1       1.0  0.69100  0.38100  0.37100  1.0000
  Co  Co2       1.0  0.30900  0.61900  0.62900  1.0000
  Ge  Ge1       1.0  0.71000  0.41900  0.08000  1.0000
  Ge  Ge2       1.0  0.09660  0.19300  0.40000  1.0000
  Ge  Ge3       1.0  0.90300  0.80700  0.60000  1.0000
  Ge  Ge4       1.0  0.29000  0.58100  0.92000  1.0000
  Ho  Ho1       1.0  0.00000  0.00000  0.00000  1.0000
  Ho  Ho2       1.0  0.37700  0.75300  0.30700  1.0000
  Ho  Ho3       1.0  0.62300  0.24700  0.69300  1.0000
