data_image0
_chemical_formula_structural       Co2Pd4Se4
_chemical_formula_sum              "Co2 Pd4 Se4"
_cell_length_a       5.03311
_cell_length_b       6.02128
_cell_length_c       6.60256
_cell_angle_alpha    117.128
_cell_angle_beta     112.405
_cell_angle_gamma    90

_space_group_name_H-M_alt    "P 1"
_space_group_IT_number       1

loop_
  _space_group_symop_operation_xyz
  'x, y, z'

loop_
  _atom_site_type_symbol
  _atom_site_label
  _atom_site_symmetry_multiplicity
  _atom_site_fract_x
  _atom_site_fract_y
  _atom_site_fract_z
  _atom_site_occupancy
  Co  Co1       1.0  0.25000  0.00000  0.00000  1.0000
  Co  Co2       1.0  0.75000  0.00000  0.00000  1.0000
  Pd  Pd1       1.0  0.61300  0.48800  0.22500  1.0000
  Pd  Pd2       1.0  0.11300  0.73800  0.22500  1.0000
  Pd  Pd3       1.0  0.88700  0.26200  0.77500  1.0000
  Pd  Pd4       1.0  0.38700  0.51200  0.77500  1.0000
  Se  Se1       1.0  0.14200  0.35200  0.28300  1.0000
  Se  Se2       1.0  0.64200  0.93100  0.28300  1.0000
  Se  Se3       1.0  0.35800  0.06860  0.71700  1.0000
  Se  Se4       1.0  0.85800  0.64800  0.71700  1.0000
