data_image0
_chemical_formula_structural       Br2CoH4O2
_chemical_formula_sum              "Br2 Co1 H4 O2"
_cell_length_a       3.72294
_cell_length_b       5.74866
_cell_length_c       5.74866
_cell_angle_alpha    96.6585
_cell_angle_beta     95.6145
_cell_angle_gamma    95.6145

_space_group_name_H-M_alt    "P 1"
_space_group_IT_number       1

loop_
  _space_group_symop_operation_xyz
  'x, y, z'

loop_
  _atom_site_type_symbol
  _atom_site_label
  _atom_site_symmetry_multiplicity
  _atom_site_fract_x
  _atom_site_fract_y
  _atom_site_fract_z
  _atom_site_occupancy
  Br  Br1       1.0  0.57100  0.24400  0.24400  1.0000
  Br  Br2       1.0  0.42900  0.75600  0.75600  1.0000
  Co  Co1       1.0  0.00000  0.00000  0.00000  1.0000
  H   H1        1.0  0.85700  0.60800  0.21600  1.0000
  H   H2        1.0  0.14300  0.78400  0.39200  1.0000
  H   H3        1.0  0.85700  0.21600  0.60800  1.0000
  H   H4        1.0  0.14300  0.39200  0.78400  1.0000
  O   O1        1.0  0.00000  0.76400  0.23600  1.0000
  O   O2        1.0  0.00000  0.23600  0.76400  1.0000
