data_image0
_chemical_formula_structural       B6Co2V2
_chemical_formula_sum              "B6 Co2 V2"
_cell_length_a       2.97524
_cell_length_b       3.00531
_cell_length_c       8.86197
_cell_angle_alpha    80.2376
_cell_angle_beta     90
_cell_angle_gamma    90

_space_group_name_H-M_alt    "P 1"
_space_group_IT_number       1

loop_
  _space_group_symop_operation_xyz
  'x, y, z'

loop_
  _atom_site_type_symbol
  _atom_site_label
  _atom_site_symmetry_multiplicity
  _atom_site_fract_x
  _atom_site_fract_y
  _atom_site_fract_z
  _atom_site_occupancy
  B   B1        1.0  0.25000  0.47500  0.05010  1.0000
  B   B2        1.0  0.25000  0.37500  0.24900  1.0000
  B   B3        1.0  0.75000  0.32100  0.35800  1.0000
  B   B4        1.0  0.25000  0.67900  0.64200  1.0000
  B   B5        1.0  0.75000  0.62500  0.75100  1.0000
  B   B6        1.0  0.75000  0.52500  0.95000  1.0000
  Co  Co1       1.0  0.25000  0.79600  0.40800  1.0000
  Co  Co2       1.0  0.75000  0.20400  0.59200  1.0000
  V   V1        1.0  0.75000  0.92600  0.14900  1.0000
  V   V2        1.0  0.25000  0.07440  0.85100  1.0000
