data_image0
_chemical_formula_structural       As4Co4Th2
_chemical_formula_sum              "As4 Co4 Th2"
_cell_length_a       4.18128
_cell_length_b       4.18128
_cell_length_c       9.35561
_cell_angle_alpha    90
_cell_angle_beta     90
_cell_angle_gamma    90

_space_group_name_H-M_alt    "P 1"
_space_group_IT_number       1

loop_
  _space_group_symop_operation_xyz
  'x, y, z'

loop_
  _atom_site_type_symbol
  _atom_site_label
  _atom_site_symmetry_multiplicity
  _atom_site_fract_x
  _atom_site_fract_y
  _atom_site_fract_z
  _atom_site_occupancy
  As  As1       1.0  0.25000  0.25000  0.13200  1.0000
  As  As2       1.0  0.75000  0.25000  0.50000  1.0000
  As  As3       1.0  0.25000  0.75000  0.50000  1.0000
  As  As4       1.0  0.75000  0.75000  0.86800  1.0000
  Co  Co1       1.0  0.75000  0.25000  0.00000  1.0000
  Co  Co2       1.0  0.25000  0.75000  0.00000  1.0000
  Co  Co3       1.0  0.25000  0.25000  0.38500  1.0000
  Co  Co4       1.0  0.75000  0.75000  0.61500  1.0000
  Th  Th1       1.0  0.75000  0.75000  0.24600  1.0000
  Th  Th2       1.0  0.25000  0.25000  0.75400  1.0000
