data_image0
_chemical_formula_structural       Co2H6Zr2
_chemical_formula_sum              "Co2 H6 Zr2"
_cell_length_a       3.53309
_cell_length_b       4.28476
_cell_length_c       5.45408
_cell_angle_alpha    90
_cell_angle_beta     71.1014
_cell_angle_gamma    90

_space_group_name_H-M_alt    "P 1"
_space_group_IT_number       1

loop_
  _space_group_symop_operation_xyz
  'x, y, z'

loop_
  _atom_site_type_symbol
  _atom_site_label
  _atom_site_symmetry_multiplicity
  _atom_site_fract_x
  _atom_site_fract_y
  _atom_site_fract_z
  _atom_site_occupancy
  Co  Co1       1.0  0.42600  0.75000  0.14700  1.0000
  Co  Co2       1.0  0.57400  0.25000  0.85300  1.0000
  H   H1        1.0  0.92500  0.75000  0.15000  1.0000
  H   H2        1.0  0.31200  0.00776  0.37500  1.0000
  H   H3        1.0  0.31200  0.49200  0.37500  1.0000
  H   H4        1.0  0.68800  0.50800  0.62500  1.0000
  H   H5        1.0  0.68800  0.99200  0.62500  1.0000
  H   H6        1.0  0.07520  0.25000  0.85000  1.0000
  Zr  Zr1       1.0  0.86600  0.25000  0.26800  1.0000
  Zr  Zr2       1.0  0.13400  0.75000  0.73200  1.0000
