data_image0
_chemical_formula_structural       Bi2CoHo6
_chemical_formula_sum              "Bi2 Co1 Ho6"
_cell_length_a       8.33216
_cell_length_b       8.33216
_cell_length_c       4.06149
_cell_angle_alpha    90
_cell_angle_beta     90
_cell_angle_gamma    119.998

_space_group_name_H-M_alt    "P 1"
_space_group_IT_number       1

loop_
  _space_group_symop_operation_xyz
  'x, y, z'

loop_
  _atom_site_type_symbol
  _atom_site_label
  _atom_site_symmetry_multiplicity
  _atom_site_fract_x
  _atom_site_fract_y
  _atom_site_fract_z
  _atom_site_occupancy
  Bi  Bi1       1.0  0.66700  0.33300  0.00000  1.0000
  Bi  Bi2       1.0  0.33300  0.66700  0.00000  1.0000
  Co  Co1       1.0  0.00000  0.00000  0.50000  1.0000
  Ho  Ho1       1.0  0.23100  0.00000  0.00000  1.0000
  Ho  Ho2       1.0  0.00000  0.23100  0.00000  1.0000
  Ho  Ho3       1.0  0.76900  0.76900  0.00000  1.0000
  Ho  Ho4       1.0  0.60500  0.00000  0.50000  1.0000
  Ho  Ho5       1.0  0.39500  0.39500  0.50000  1.0000
  Ho  Ho6       1.0  0.00000  0.60500  0.50000  1.0000
