data_image0
_chemical_formula_structural       Co2Ge4Tb3
_chemical_formula_sum              "Co2 Ge4 Tb3"
_cell_length_a       4.16579
_cell_length_b       5.73169
_cell_length_c       8.04382
_cell_angle_alpha    106.578
_cell_angle_beta     90
_cell_angle_gamma    111.309

_space_group_name_H-M_alt    "P 1"
_space_group_IT_number       1

loop_
  _space_group_symop_operation_xyz
  'x, y, z'

loop_
  _atom_site_type_symbol
  _atom_site_label
  _atom_site_symmetry_multiplicity
  _atom_site_fract_x
  _atom_site_fract_y
  _atom_site_fract_z
  _atom_site_occupancy
  Co  Co1       1.0  0.69200  0.38400  0.37100  1.0000
  Co  Co2       1.0  0.30800  0.61600  0.62900  1.0000
  Ge  Ge1       1.0  0.71000  0.41900  0.08080  1.0000
  Ge  Ge2       1.0  0.09890  0.19800  0.40000  1.0000
  Ge  Ge3       1.0  0.90100  0.80200  0.60000  1.0000
  Ge  Ge4       1.0  0.29000  0.58100  0.91900  1.0000
  Tb  Tb1       1.0  0.00000  0.00000  0.00000  1.0000
  Tb  Tb2       1.0  0.37700  0.75300  0.30800  1.0000
  Tb  Tb3       1.0  0.62300  0.24700  0.69200  1.0000
