data_image0
_chemical_formula_structural       Co2Gd3Ge4
_chemical_formula_sum              "Co2 Gd3 Ge4"
_cell_length_a       4.17034
_cell_length_b       5.77261
_cell_length_c       8.07823
_cell_angle_alpha    106.494
_cell_angle_beta     90
_cell_angle_gamma    111.175

_space_group_name_H-M_alt    "P 1"
_space_group_IT_number       1

loop_
  _space_group_symop_operation_xyz
  'x, y, z'

loop_
  _atom_site_type_symbol
  _atom_site_label
  _atom_site_symmetry_multiplicity
  _atom_site_fract_x
  _atom_site_fract_y
  _atom_site_fract_z
  _atom_site_occupancy
  Co  Co1       1.0  0.69300  0.38600  0.37200  1.0000
  Co  Co2       1.0  0.30700  0.61400  0.62800  1.0000
  Gd  Gd1       1.0  0.00000  0.00000  0.00000  1.0000
  Gd  Gd2       1.0  0.37700  0.75500  0.30800  1.0000
  Gd  Gd3       1.0  0.62300  0.24500  0.69200  1.0000
  Ge  Ge1       1.0  0.70900  0.41900  0.08130  1.0000
  Ge  Ge2       1.0  0.10000  0.20000  0.39900  1.0000
  Ge  Ge3       1.0  0.90000  0.80000  0.60100  1.0000
  Ge  Ge4       1.0  0.29100  0.58100  0.91900  1.0000
