data_image0
_chemical_formula_structural       Co2Rb4S4
_chemical_formula_sum              "Co2 Rb4 S4"
_cell_length_a       6.09722
_cell_length_b       7.00752
_cell_length_c       8.05732
_cell_angle_alpha    115.776
_cell_angle_beta     112.232
_cell_angle_gamma    90

_space_group_name_H-M_alt    "P 1"
_space_group_IT_number       1

loop_
  _space_group_symop_operation_xyz
  'x, y, z'

loop_
  _atom_site_type_symbol
  _atom_site_label
  _atom_site_symmetry_multiplicity
  _atom_site_fract_x
  _atom_site_fract_y
  _atom_site_fract_z
  _atom_site_occupancy
  Co  Co1       1.0  0.25000  0.00000  0.00000  1.0000
  Co  Co2       1.0  0.75000  0.00000  0.00000  1.0000
  Rb  Rb1       1.0  0.64700  0.48300  0.29500  1.0000
  Rb  Rb2       1.0  0.14700  0.81100  0.29500  1.0000
  Rb  Rb3       1.0  0.85300  0.18900  0.70500  1.0000
  Rb  Rb4       1.0  0.35300  0.51700  0.70500  1.0000
  S   S1        1.0  0.09510  0.26800  0.19000  1.0000
  S   S2        1.0  0.59500  0.92200  0.19000  1.0000
  S   S3        1.0  0.40500  0.07760  0.81000  1.0000
  S   S4        1.0  0.90500  0.73200  0.81000  1.0000
