data_image0
_chemical_formula_structural       Co2Dy4Si4
_chemical_formula_sum              "Co2 Dy4 Si4"
_cell_length_a       4.12663
_cell_length_b       5.60096
_cell_length_c       8.96024
_cell_angle_alpha    96.9639
_cell_angle_beta     103.313
_cell_angle_gamma    68.3839

_space_group_name_H-M_alt    "P 1"
_space_group_IT_number       1

loop_
  _space_group_symop_operation_xyz
  'x, y, z'

loop_
  _atom_site_type_symbol
  _atom_site_label
  _atom_site_symmetry_multiplicity
  _atom_site_fract_x
  _atom_site_fract_y
  _atom_site_fract_z
  _atom_site_occupancy
  Co  Co1       1.0  0.72700  0.92300  0.37700  1.0000
  Co  Co2       1.0  0.27300  0.07690  0.62300  1.0000
  Dy  Dy1       1.0  0.18700  0.73300  0.10700  1.0000
  Dy  Dy2       1.0  0.00015  0.32800  0.32800  1.0000
  Dy  Dy3       1.0  0.00000  0.67200  0.67200  1.0000
  Dy  Dy4       1.0  0.81300  0.26700  0.89300  1.0000
  Si  Si1       1.0  0.49400  0.13600  0.12500  1.0000
  Si  Si2       1.0  0.34900  0.73600  0.43400  1.0000
  Si  Si3       1.0  0.65100  0.26400  0.56600  1.0000
  Si  Si4       1.0  0.50600  0.86400  0.87500  1.0000
