data_image0
_chemical_formula_structural       CoDy6Te2
_chemical_formula_sum              "Co1 Dy6 Te2"
_cell_length_a       8.37533
_cell_length_b       8.37533
_cell_length_c       3.90197
_cell_angle_alpha    90
_cell_angle_beta     90
_cell_angle_gamma    119.999

_space_group_name_H-M_alt    "P 1"
_space_group_IT_number       1

loop_
  _space_group_symop_operation_xyz
  'x, y, z'

loop_
  _atom_site_type_symbol
  _atom_site_label
  _atom_site_symmetry_multiplicity
  _atom_site_fract_x
  _atom_site_fract_y
  _atom_site_fract_z
  _atom_site_occupancy
  Co  Co1       1.0  0.00000  0.00000  0.50000  1.0000
  Dy  Dy1       1.0  0.23500  0.00000  0.00000  1.0000
  Dy  Dy2       1.0  0.00000  0.23500  0.00000  1.0000
  Dy  Dy3       1.0  0.76500  0.76500  0.00000  1.0000
  Dy  Dy4       1.0  0.59800  0.00000  0.50000  1.0000
  Dy  Dy5       1.0  0.40200  0.40200  0.50000  1.0000
  Dy  Dy6       1.0  1.00000  0.59800  0.50000  1.0000
  Te  Te1       1.0  0.66700  0.33300  0.00000  1.0000
  Te  Te2       1.0  0.33300  0.66700  0.00000  1.0000
