data_image0
_chemical_formula_structural       Co4Mn4P4
_chemical_formula_sum              "Co4 Mn4 P4"
_cell_length_a       5.86098
_cell_length_b       3.44366
_cell_length_c       6.65805
_cell_angle_alpha    90
_cell_angle_beta     90
_cell_angle_gamma    90

_space_group_name_H-M_alt    "P 1"
_space_group_IT_number       1

loop_
  _space_group_symop_operation_xyz
  'x, y, z'

loop_
  _atom_site_type_symbol
  _atom_site_label
  _atom_site_symmetry_multiplicity
  _atom_site_fract_x
  _atom_site_fract_y
  _atom_site_fract_z
  _atom_site_occupancy
  Co  Co1       1.0  0.64200  0.25000  0.06510  1.0000
  Co  Co2       1.0  0.14200  0.25000  0.43500  1.0000
  Co  Co3       1.0  0.85800  0.75000  0.56500  1.0000
  Co  Co4       1.0  0.35800  0.75000  0.93500  1.0000
  Mn  Mn1       1.0  0.97200  0.75000  0.16700  1.0000
  Mn  Mn2       1.0  0.47200  0.75000  0.33300  1.0000
  Mn  Mn3       1.0  0.52800  0.25000  0.66700  1.0000
  Mn  Mn4       1.0  0.02770  0.25000  0.83300  1.0000
  P   P1        1.0  0.26600  0.25000  0.12600  1.0000
  P   P2        1.0  0.76600  0.25000  0.37400  1.0000
  P   P3        1.0  0.23400  0.75000  0.62600  1.0000
  P   P4        1.0  0.73400  0.75000  0.87400  1.0000
