data_image0
_chemical_formula_structural       CoGa8Ho2
_chemical_formula_sum              "Co1 Ga8 Ho2"
_cell_length_a       4.21901
_cell_length_b       4.21901
_cell_length_c       11.0577
_cell_angle_alpha    90
_cell_angle_beta     90
_cell_angle_gamma    90

_space_group_name_H-M_alt    "P 1"
_space_group_IT_number       1

loop_
  _space_group_symop_operation_xyz
  'x, y, z'

loop_
  _atom_site_type_symbol
  _atom_site_label
  _atom_site_symmetry_multiplicity
  _atom_site_fract_x
  _atom_site_fract_y
  _atom_site_fract_z
  _atom_site_occupancy
  Co  Co1       1.0  0.00000  0.00000  0.00000  1.0000
  Ga  Ga1       1.0  0.50000  0.00000  0.11700  1.0000
  Ga  Ga2       1.0  0.00000  0.50000  0.11700  1.0000
  Ga  Ga3       1.0  0.50000  0.50000  0.30100  1.0000
  Ga  Ga4       1.0  0.50000  0.00000  0.50000  1.0000
  Ga  Ga5       1.0  0.00000  0.50000  0.50000  1.0000
  Ga  Ga6       1.0  0.50000  0.50000  0.69900  1.0000
  Ga  Ga7       1.0  0.50000  0.00000  0.88300  1.0000
  Ga  Ga8       1.0  0.00000  0.50000  0.88300  1.0000
  Ho  Ho1       1.0  0.00000  0.00000  0.30600  1.0000
  Ho  Ho2       1.0  0.00000  0.00000  0.69400  1.0000
