data_image0
_chemical_formula_structural       Co4P8
_chemical_formula_sum              "Co4 P8"
_cell_length_a       5.53249
_cell_length_b       5.52499
_cell_length_c       5.59985
_cell_angle_alpha    90
_cell_angle_beta     114.735
_cell_angle_gamma    90

_space_group_name_H-M_alt    "P 1"
_space_group_IT_number       1

loop_
  _space_group_symop_operation_xyz
  'x, y, z'

loop_
  _atom_site_type_symbol
  _atom_site_label
  _atom_site_symmetry_multiplicity
  _atom_site_fract_x
  _atom_site_fract_y
  _atom_site_fract_z
  _atom_site_occupancy
  Co  Co1       1.0  0.72800  0.50100  0.21300  1.0000
  Co  Co2       1.0  0.27200  0.00116  0.28700  1.0000
  Co  Co3       1.0  0.72800  0.99900  0.71300  1.0000
  Co  Co4       1.0  0.27200  0.49900  0.78700  1.0000
  P   P1        1.0  0.84200  0.12800  0.13300  1.0000
  P   P2        1.0  0.33900  0.37100  0.18100  1.0000
  P   P3        1.0  0.66100  0.87100  0.31900  1.0000
  P   P4        1.0  0.15800  0.62800  0.36700  1.0000
  P   P5        1.0  0.84200  0.37200  0.63300  1.0000
  P   P6        1.0  0.33900  0.12900  0.68100  1.0000
  P   P7        1.0  0.66100  0.62900  0.81900  1.0000
  P   P8        1.0  0.15800  0.87200  0.86700  1.0000
