data_image0
_chemical_formula_structural       C4CoCsO4
_chemical_formula_sum              "C4 Co1 Cs1 O4"
_cell_length_a       5.34439
_cell_length_b       6.41249
_cell_length_c       6.41249
_cell_angle_alpha    100
_cell_angle_beta     65.3725
_cell_angle_gamma    114.628

_space_group_name_H-M_alt    "P 1"
_space_group_IT_number       1

loop_
  _space_group_symop_operation_xyz
  'x, y, z'

loop_
  _atom_site_type_symbol
  _atom_site_label
  _atom_site_symmetry_multiplicity
  _atom_site_fract_x
  _atom_site_fract_y
  _atom_site_fract_z
  _atom_site_occupancy
  C   C1        1.0  0.10200  0.59500  0.28300  1.0000
  C   C2        1.0  0.49300  0.28300  0.40500  1.0000
  C   C3        1.0  0.61500  0.71700  0.59500  1.0000
  C   C4        1.0  0.79000  0.40500  0.71700  1.0000
  Co  Co1       1.0  0.75000  0.50000  0.50000  1.0000
  Cs  Cs1       1.0  0.00000  0.00000  0.00000  1.0000
  O   O1        1.0  0.34100  0.65900  0.13700  1.0000
  O   O2        1.0  0.31800  0.13700  0.34100  1.0000
  O   O3        1.0  0.52200  0.86300  0.65900  1.0000
  O   O4        1.0  0.81900  0.34100  0.86300  1.0000
