data_image0
_chemical_formula_structural       Co2Rb4Se4
_chemical_formula_sum              "Co2 Rb4 Se4"
_cell_length_a       6.47124
_cell_length_b       7.16508
_cell_length_c       8.36624
_cell_angle_alpha    115.354
_cell_angle_beta     112.752
_cell_angle_gamma    90

_space_group_name_H-M_alt    "P 1"
_space_group_IT_number       1

loop_
  _space_group_symop_operation_xyz
  'x, y, z'

loop_
  _atom_site_type_symbol
  _atom_site_label
  _atom_site_symmetry_multiplicity
  _atom_site_fract_x
  _atom_site_fract_y
  _atom_site_fract_z
  _atom_site_occupancy
  Co  Co1       1.0  0.25000  0.00000  0.00000  1.0000
  Co  Co2       1.0  0.75000  0.00000  0.00000  1.0000
  Rb  Rb1       1.0  0.64600  0.47600  0.29100  1.0000
  Rb  Rb2       1.0  0.14600  0.81500  0.29100  1.0000
  Rb  Rb3       1.0  0.85400  0.18500  0.70900  1.0000
  Rb  Rb4       1.0  0.35400  0.52400  0.70900  1.0000
  Se  Se1       1.0  0.09730  0.27200  0.19500  1.0000
  Se  Se2       1.0  0.59700  0.92200  0.19500  1.0000
  Se  Se3       1.0  0.40300  0.07770  0.80500  1.0000
  Se  Se4       1.0  0.90300  0.72800  0.80500  1.0000
