data_image0
_chemical_formula_structural       Cs2I6Pt
_chemical_formula_sum              "Cs2 I6 Pt1"
_cell_length_a       8.21472
_cell_length_b       8.21472
_cell_length_c       8.21472
_cell_angle_alpha    120
_cell_angle_beta     90
_cell_angle_gamma    120

_space_group_name_H-M_alt    "P 1"
_space_group_IT_number       1

loop_
  _space_group_symop_operation_xyz
  'x, y, z'

loop_
  _atom_site_type_symbol
  _atom_site_label
  _atom_site_symmetry_multiplicity
  _atom_site_fract_x
  _atom_site_fract_y
  _atom_site_fract_z
  _atom_site_occupancy
  Cs  Cs1       1.0  0.75000  0.50000  0.25000  1.0000
  Cs  Cs2       1.0  0.25000  0.50000  0.75000  1.0000
  I   I1        1.0  0.23400  0.00000  0.23400  1.0000
  I   I2        1.0  0.23400  0.46700  0.23400  1.0000
  I   I3        1.0  0.76600  0.00000  0.23400  1.0000
  I   I4        1.0  0.76600  1.00000  0.76600  1.0000
  I   I5        1.0  0.23400  0.00000  0.76600  1.0000
  I   I6        1.0  0.76600  0.53300  0.76600  1.0000
  Pt  Pt1       1.0  0.00000  0.00000  0.00000  1.0000
