data_image0
_chemical_formula_structural       Co2K4Se4
_chemical_formula_sum              "Co2 K4 Se4"
_cell_length_a       6.18413
_cell_length_b       6.98291
_cell_length_c       8.07755
_cell_angle_alpha    115.61
_cell_angle_beta     112.507
_cell_angle_gamma    90

_space_group_name_H-M_alt    "P 1"
_space_group_IT_number       1

loop_
  _space_group_symop_operation_xyz
  'x, y, z'

loop_
  _atom_site_type_symbol
  _atom_site_label
  _atom_site_symmetry_multiplicity
  _atom_site_fract_x
  _atom_site_fract_y
  _atom_site_fract_z
  _atom_site_occupancy
  Co  Co1       1.0  0.25000  0.00000  0.00000  1.0000
  Co  Co2       1.0  0.75000  0.00000  0.00000  1.0000
  K   K1        1.0  0.64400  0.47400  0.28900  1.0000
  K   K2        1.0  0.14400  0.81500  0.28900  1.0000
  K   K3        1.0  0.85600  0.18500  0.71100  1.0000
  K   K4        1.0  0.35600  0.52600  0.71100  1.0000
  Se  Se1       1.0  0.10200  0.28800  0.20500  1.0000
  Se  Se2       1.0  0.60200  0.91600  0.20500  1.0000
  Se  Se3       1.0  0.39800  0.08360  0.79500  1.0000
  Se  Se4       1.0  0.89800  0.71200  0.79500  1.0000
