data_image0
_chemical_formula_structural       Ba2CoCu2O2S2
_chemical_formula_sum              "Ba2 Co1 Cu2 O2 S2"
_cell_length_a       3.98772
_cell_length_b       3.98772
_cell_length_c       10.1636
_cell_angle_alpha    101.314
_cell_angle_beta     101.314
_cell_angle_gamma    90

_space_group_name_H-M_alt    "P 1"
_space_group_IT_number       1

loop_
  _space_group_symop_operation_xyz
  'x, y, z'

loop_
  _atom_site_type_symbol
  _atom_site_label
  _atom_site_symmetry_multiplicity
  _atom_site_fract_x
  _atom_site_fract_y
  _atom_site_fract_z
  _atom_site_occupancy
  Ba  Ba1       1.0  0.59800  0.59800  0.19600  1.0000
  Ba  Ba2       1.0  0.40200  0.40200  0.80400  1.0000
  Co  Co1       1.0  0.00000  0.00000  0.00000  1.0000
  Cu  Cu1       1.0  0.75000  0.25000  0.50000  1.0000
  Cu  Cu2       1.0  0.25000  0.75000  0.50000  1.0000
  O   O1        1.0  0.50000  0.00000  0.00000  1.0000
  O   O2        1.0  0.00000  0.50000  0.00000  1.0000
  S   S1        1.0  0.18100  0.18100  0.36200  1.0000
  S   S2        1.0  0.81900  0.81900  0.63800  1.0000
