data_image0
_chemical_formula_structural       Co5H4Pr
_chemical_formula_sum              "Co5 H4 Pr1"
_cell_length_a       4.00514
_cell_length_b       5.15006
_cell_length_c       5.15006
_cell_angle_alpha    63.0067
_cell_angle_beta     90
_cell_angle_gamma    90

_space_group_name_H-M_alt    "P 1"
_space_group_IT_number       1

loop_
  _space_group_symop_operation_xyz
  'x, y, z'

loop_
  _atom_site_type_symbol
  _atom_site_label
  _atom_site_symmetry_multiplicity
  _atom_site_fract_x
  _atom_site_fract_y
  _atom_site_fract_z
  _atom_site_occupancy
  Co  Co1       1.0  0.50000  0.50000  0.00000  1.0000
  Co  Co2       1.0  0.00000  0.36400  0.36400  1.0000
  Co  Co3       1.0  0.50000  0.50000  0.50000  1.0000
  Co  Co4       1.0  0.50000  0.00000  0.50000  1.0000
  Co  Co5       1.0  0.00000  0.63600  0.63600  1.0000
  H   H1        1.0  0.00000  0.50000  0.00000  1.0000
  H   H2        1.0  0.50000  0.14400  0.14400  1.0000
  H   H3        1.0  0.00000  0.00000  0.50000  1.0000
  H   H4        1.0  0.50000  0.85600  0.85600  1.0000
  Pr  Pr1       1.0  0.00000  0.00000  0.00000  1.0000
