data_image0
_chemical_formula_structural       CoK2O6Se2
_chemical_formula_sum              "Co1 K2 O6 Se2"
_cell_length_a       5.52463
_cell_length_b       5.52463
_cell_length_c       6.88942
_cell_angle_alpha    66.3624
_cell_angle_beta     113.638
_cell_angle_gamma    120

_space_group_name_H-M_alt    "P 1"
_space_group_IT_number       1

loop_
  _space_group_symop_operation_xyz
  'x, y, z'

loop_
  _atom_site_type_symbol
  _atom_site_label
  _atom_site_symmetry_multiplicity
  _atom_site_fract_x
  _atom_site_fract_y
  _atom_site_fract_z
  _atom_site_occupancy
  Co  Co1       1.0  0.00000  0.00000  0.00000  1.0000
  K   K1        1.0  0.80600  0.19400  0.41700  1.0000
  K   K2        1.0  0.19400  0.80600  0.58300  1.0000
  O   O1        1.0  0.24500  0.26600  0.22500  1.0000
  O   O2        1.0  0.24500  0.75500  0.22500  1.0000
  O   O3        1.0  0.73400  0.75500  0.22500  1.0000
  O   O4        1.0  0.75500  0.24500  0.77500  1.0000
  O   O5        1.0  0.26600  0.24500  0.77500  1.0000
  O   O6        1.0  0.75500  0.73400  0.77500  1.0000
  Se  Se1       1.0  0.36800  0.63200  0.10400  1.0000
  Se  Se2       1.0  0.63200  0.36800  0.89600  1.0000
