data_image0
_chemical_formula_structural       Co2K4S4
_chemical_formula_sum              "Co2 K4 S4"
_cell_length_a       5.91233
_cell_length_b       6.75056
_cell_length_c       7.72838
_cell_angle_alpha    115.896
_cell_angle_beta     112.489
_cell_angle_gamma    90

_space_group_name_H-M_alt    "P 1"
_space_group_IT_number       1

loop_
  _space_group_symop_operation_xyz
  'x, y, z'

loop_
  _atom_site_type_symbol
  _atom_site_label
  _atom_site_symmetry_multiplicity
  _atom_site_fract_x
  _atom_site_fract_y
  _atom_site_fract_z
  _atom_site_occupancy
  Co  Co1       1.0  0.25000  0.00000  0.00000  1.0000
  Co  Co2       1.0  0.75000  0.00000  0.00000  1.0000
  K   K1        1.0  0.64700  0.48400  0.29300  1.0000
  K   K2        1.0  0.14700  0.81000  0.29300  1.0000
  K   K3        1.0  0.85300  0.19000  0.70700  1.0000
  K   K4        1.0  0.35300  0.51600  0.70700  1.0000
  S   S1        1.0  0.09980  0.28300  0.20000  1.0000
  S   S2        1.0  0.60000  0.91700  0.20000  1.0000
  S   S3        1.0  0.40000  0.08340  0.80000  1.0000
  S   S4        1.0  0.90000  0.71700  0.80000  1.0000
