data_image0
_chemical_formula_structural       Co2Pd4Te4
_chemical_formula_sum              "Co2 Pd4 Te4"
_cell_length_a       5.24463
_cell_length_b       6.32474
_cell_length_c       6.94149
_cell_angle_alpha    117.102
_cell_angle_beta     112.196
_cell_angle_gamma    90

_space_group_name_H-M_alt    "P 1"
_space_group_IT_number       1

loop_
  _space_group_symop_operation_xyz
  'x, y, z'

loop_
  _atom_site_type_symbol
  _atom_site_label
  _atom_site_symmetry_multiplicity
  _atom_site_fract_x
  _atom_site_fract_y
  _atom_site_fract_z
  _atom_site_occupancy
  Co  Co1       1.0  0.25000  0.00000  0.00000  1.0000
  Co  Co2       1.0  0.75000  0.00000  0.00000  1.0000
  Pd  Pd1       1.0  0.60600  0.47300  0.21200  1.0000
  Pd  Pd2       1.0  0.10600  0.73900  0.21200  1.0000
  Pd  Pd3       1.0  0.89400  0.26100  0.78800  1.0000
  Pd  Pd4       1.0  0.39400  0.52700  0.78800  1.0000
  Te  Te1       1.0  0.14400  0.35900  0.28900  1.0000
  Te  Te2       1.0  0.64400  0.93000  0.28900  1.0000
  Te  Te3       1.0  0.35600  0.07030  0.71100  1.0000
  Te  Te4       1.0  0.85600  0.64100  0.71100  1.0000
