data_image0
_chemical_formula_structural       Co4I2Tb4
_chemical_formula_sum              "Co4 I2 Tb4"
_cell_length_a       3.9464
_cell_length_b       3.94642
_cell_length_c       16.948
_cell_angle_alpha    90
_cell_angle_beta     90
_cell_angle_gamma    120

_space_group_name_H-M_alt    "P 1"
_space_group_IT_number       1

loop_
  _space_group_symop_operation_xyz
  'x, y, z'

loop_
  _atom_site_type_symbol
  _atom_site_label
  _atom_site_symmetry_multiplicity
  _atom_site_fract_x
  _atom_site_fract_y
  _atom_site_fract_z
  _atom_site_occupancy
  Co  Co1       1.0  0.33300  0.66700  0.00174  1.0000
  Co  Co2       1.0  0.33300  0.66700  0.49800  1.0000
  Co  Co3       1.0  0.66700  0.33300  0.50200  1.0000
  Co  Co4       1.0  0.66700  0.33300  0.99800  1.0000
  I   I1        1.0  0.66700  0.33300  0.25000  1.0000
  I   I2        1.0  0.33300  0.66700  0.75000  1.0000
  Tb  Tb1       1.0  0.00000  0.00000  0.10400  1.0000
  Tb  Tb2       1.0  0.00000  0.00000  0.39600  1.0000
  Tb  Tb3       1.0  0.00000  0.00000  0.60400  1.0000
  Tb  Tb4       1.0  0.00000  0.00000  0.89600  1.0000
