data_image0
_chemical_formula_structural       Co2O8U2
_chemical_formula_sum              "Co2 O8 U2"
_cell_length_a       5.77178
_cell_length_b       5.77178
_cell_length_c       5.77178
_cell_angle_alpha    105.114
_cell_angle_beta     111.534
_cell_angle_gamma    111.852

_space_group_name_H-M_alt    "P 1"
_space_group_IT_number       1

loop_
  _space_group_symop_operation_xyz
  'x, y, z'

loop_
  _atom_site_type_symbol
  _atom_site_label
  _atom_site_symmetry_multiplicity
  _atom_site_fract_x
  _atom_site_fract_y
  _atom_site_fract_z
  _atom_site_occupancy
  Co  Co1       1.0  0.50000  0.50000  0.00000  1.0000
  Co  Co2       1.0  0.50000  0.00000  0.50000  1.0000
  O   O1        1.0  0.19900  0.02170  0.22100  1.0000
  O   O2        1.0  0.27500  0.55200  0.22300  1.0000
  O   O3        1.0  0.67100  0.94800  0.22300  1.0000
  O   O4        1.0  0.80100  0.52200  0.32300  1.0000
  O   O5        1.0  0.19900  0.47800  0.67700  1.0000
  O   O6        1.0  0.32900  0.05200  0.77700  1.0000
  O   O7        1.0  0.72500  0.44800  0.77700  1.0000
  O   O8        1.0  0.80100  0.97800  0.77900  1.0000
  U   U1        1.0  0.97000  0.25000  0.22000  1.0000
  U   U2        1.0  0.02950  0.75000  0.78000  1.0000
