data_image0
_chemical_formula_structural       Co4Dy4Sn4
_chemical_formula_sum              "Co4 Dy4 Sn4"
_cell_length_a       7.17171
_cell_length_b       4.55852
_cell_length_c       7.40678
_cell_angle_alpha    90
_cell_angle_beta     90
_cell_angle_gamma    90

_space_group_name_H-M_alt    "P 1"
_space_group_IT_number       1

loop_
  _space_group_symop_operation_xyz
  'x, y, z'

loop_
  _atom_site_type_symbol
  _atom_site_label
  _atom_site_symmetry_multiplicity
  _atom_site_fract_x
  _atom_site_fract_y
  _atom_site_fract_z
  _atom_site_occupancy
  Co  Co1       1.0  0.32500  0.75000  0.06960  1.0000
  Co  Co2       1.0  0.82500  0.75000  0.43000  1.0000
  Co  Co3       1.0  0.17500  0.25000  0.57000  1.0000
  Co  Co4       1.0  0.67500  0.25000  0.93000  1.0000
  Dy  Dy1       1.0  0.98000  0.25000  0.20000  1.0000
  Dy  Dy2       1.0  0.48000  0.25000  0.30000  1.0000
  Dy  Dy3       1.0  0.52000  0.75000  0.70000  1.0000
  Dy  Dy4       1.0  0.02020  0.75000  0.80000  1.0000
  Sn  Sn1       1.0  0.69600  0.75000  0.09950  1.0000
  Sn  Sn2       1.0  0.19600  0.75000  0.40100  1.0000
  Sn  Sn3       1.0  0.80400  0.25000  0.59900  1.0000
  Sn  Sn4       1.0  0.30400  0.25000  0.90100  1.0000
