data_image0
_chemical_formula_structural       Al8Co2Pr2
_chemical_formula_sum              "Al8 Co2 Pr2"
_cell_length_a       7.6818
_cell_length_b       4.03694
_cell_length_c       6.91922
_cell_angle_alpha    90
_cell_angle_beta     90
_cell_angle_gamma    90

_space_group_name_H-M_alt    "P 1"
_space_group_IT_number       1

loop_
  _space_group_symop_operation_xyz
  'x, y, z'

loop_
  _atom_site_type_symbol
  _atom_site_label
  _atom_site_symmetry_multiplicity
  _atom_site_fract_x
  _atom_site_fract_y
  _atom_site_fract_z
  _atom_site_occupancy
  Al  Al1       1.0  0.00000  0.00000  0.00000  1.0000
  Al  Al2       1.0  0.50000  0.00000  0.00000  1.0000
  Al  Al3       1.0  0.25000  0.50000  0.04200  1.0000
  Al  Al4       1.0  0.57100  0.50000  0.29900  1.0000
  Al  Al5       1.0  0.92900  0.50000  0.29900  1.0000
  Al  Al6       1.0  0.07110  0.50000  0.70100  1.0000
  Al  Al7       1.0  0.42900  0.50000  0.70100  1.0000
  Al  Al8       1.0  0.75000  0.50000  0.95800  1.0000
  Co  Co1       1.0  0.75000  0.00000  0.18300  1.0000
  Co  Co2       1.0  0.25000  0.00000  0.81700  1.0000
  Pr  Pr1       1.0  0.25000  0.00000  0.38400  1.0000
  Pr  Pr2       1.0  0.75000  0.00000  0.61600  1.0000
