data_image0
_chemical_formula_structural       B2Co2Sm
_chemical_formula_sum              "B2 Co2 Sm1"
_cell_length_a       3.56313
_cell_length_b       3.56313
_cell_length_c       5.48259
_cell_angle_alpha    108.963
_cell_angle_beta     108.963
_cell_angle_gamma    90

_space_group_name_H-M_alt    "P 1"
_space_group_IT_number       1

loop_
  _space_group_symop_operation_xyz
  'x, y, z'

loop_
  _atom_site_type_symbol
  _atom_site_label
  _atom_site_symmetry_multiplicity
  _atom_site_fract_x
  _atom_site_fract_y
  _atom_site_fract_z
  _atom_site_occupancy
  B   B1        1.0  0.65900  0.65900  0.31700  1.0000
  B   B2        1.0  0.34100  0.34100  0.68300  1.0000
  Co  Co1       1.0  0.75000  0.25000  0.50000  1.0000
  Co  Co2       1.0  0.25000  0.75000  0.50000  1.0000
  Sm  Sm1       1.0  0.00000  0.00000  0.00000  1.0000
