data_image0
_chemical_formula_structural       Co2Cs2Ho2Se6
_chemical_formula_sum              "Co2 Cs2 Ho2 Se6"
_cell_length_a       4.08608
_cell_length_b       8.28717
_cell_length_c       10.8443
_cell_angle_alpha    90
_cell_angle_beta     90
_cell_angle_gamma    75.7277

_space_group_name_H-M_alt    "P 1"
_space_group_IT_number       1

loop_
  _space_group_symop_operation_xyz
  'x, y, z'

loop_
  _atom_site_type_symbol
  _atom_site_label
  _atom_site_symmetry_multiplicity
  _atom_site_fract_x
  _atom_site_fract_y
  _atom_site_fract_z
  _atom_site_occupancy
  Co  Co1       1.0  0.53700  0.92700  0.25000  1.0000
  Co  Co2       1.0  0.46300  0.07340  0.75000  1.0000
  Cs  Cs1       1.0  0.26000  0.48000  0.25000  1.0000
  Cs  Cs2       1.0  0.74000  0.52000  0.75000  1.0000
  Ho  Ho1       1.0  0.00000  0.00000  0.00000  1.0000
  Ho  Ho2       1.0  0.00000  0.00000  0.50000  1.0000
  Se  Se1       1.0  0.61600  0.76700  0.06360  1.0000
  Se  Se2       1.0  0.94900  0.10300  0.25000  1.0000
  Se  Se3       1.0  0.61600  0.76700  0.43600  1.0000
  Se  Se4       1.0  0.38400  0.23300  0.56400  1.0000
  Se  Se5       1.0  0.05130  0.89700  0.75000  1.0000
  Se  Se6       1.0  0.38400  0.23300  0.93600  1.0000
