data_image0
_chemical_formula_structural       Co2Ge7U3
_chemical_formula_sum              "Co2 Ge7 U3"
_cell_length_a       4.16475
_cell_length_b       4.14138
_cell_length_c       12.6504
_cell_angle_alpha    80.5791
_cell_angle_beta     90
_cell_angle_gamma    90

_space_group_name_H-M_alt    "P 1"
_space_group_IT_number       1

loop_
  _space_group_symop_operation_xyz
  'x, y, z'

loop_
  _atom_site_type_symbol
  _atom_site_label
  _atom_site_symmetry_multiplicity
  _atom_site_fract_x
  _atom_site_fract_y
  _atom_site_fract_z
  _atom_site_occupancy
  Co  Co1       1.0  0.50000  0.37200  0.25700  1.0000
  Co  Co2       1.0  0.50000  0.62800  0.74300  1.0000
  Ge  Ge1       1.0  0.00000  0.00000  0.00000  1.0000
  Ge  Ge2       1.0  0.50000  0.91300  0.17500  1.0000
  Ge  Ge3       1.0  0.00000  0.41200  0.17600  1.0000
  Ge  Ge4       1.0  0.50000  0.28000  0.44100  1.0000
  Ge  Ge5       1.0  0.50000  0.72000  0.55900  1.0000
  Ge  Ge6       1.0  0.00000  0.58800  0.82400  1.0000
  Ge  Ge7       1.0  0.50000  0.08730  0.82500  1.0000
  U   U1        1.0  0.50000  0.50000  0.00000  1.0000
  U   U2        1.0  0.00000  0.81500  0.37100  1.0000
  U   U3        1.0  0.00000  0.18500  0.62900  1.0000
