data_image0
_chemical_formula_structural       Co2Ga8Sm2
_chemical_formula_sum              "Co2 Ga8 Sm2"
_cell_length_a       4.13386
_cell_length_b       6.48361
_cell_length_c       8.1143
_cell_angle_alpha    90
_cell_angle_beta     75.2426
_cell_angle_gamma    90

_space_group_name_H-M_alt    "P 1"
_space_group_IT_number       1

loop_
  _space_group_symop_operation_xyz
  'x, y, z'

loop_
  _atom_site_type_symbol
  _atom_site_label
  _atom_site_symmetry_multiplicity
  _atom_site_fract_x
  _atom_site_fract_y
  _atom_site_fract_z
  _atom_site_occupancy
  Co  Co1       1.0  0.77600  0.75000  0.44800  1.0000
  Co  Co2       1.0  0.22400  0.25000  0.55200  1.0000
  Ga  Ga1       1.0  0.50000  0.00000  0.00000  1.0000
  Ga  Ga2       1.0  0.50000  0.50000  0.00000  1.0000
  Ga  Ga3       1.0  0.92400  0.75000  0.15200  1.0000
  Ga  Ga4       1.0  0.31100  0.55100  0.37700  1.0000
  Ga  Ga5       1.0  0.31100  0.94900  0.37700  1.0000
  Ga  Ga6       1.0  0.68900  0.05130  0.62300  1.0000
  Ga  Ga7       1.0  0.68900  0.44900  0.62300  1.0000
  Ga  Ga8       1.0  0.07580  0.25000  0.84800  1.0000
  Sm  Sm1       1.0  0.88300  0.25000  0.23300  1.0000
  Sm  Sm2       1.0  0.11700  0.75000  0.76700  1.0000
