data_image0
_chemical_formula_structural       Co2Nb2O8
_chemical_formula_sum              "Co2 Nb2 O8"
_cell_length_a       3.79271
_cell_length_b       6.35102
_cell_length_c       6.48808
_cell_angle_alpha    107.009
_cell_angle_beta     90
_cell_angle_gamma    107.373

_space_group_name_H-M_alt    "P 1"
_space_group_IT_number       1

loop_
  _space_group_symop_operation_xyz
  'x, y, z'

loop_
  _atom_site_type_symbol
  _atom_site_label
  _atom_site_symmetry_multiplicity
  _atom_site_fract_x
  _atom_site_fract_y
  _atom_site_fract_z
  _atom_site_occupancy
  Co  Co1       1.0  0.79600  0.59200  0.17100  1.0000
  Co  Co2       1.0  0.20400  0.40800  0.82900  1.0000
  Nb  Nb1       1.0  0.10500  0.20900  0.23900  1.0000
  Nb  Nb2       1.0  0.89500  0.79100  0.76100  1.0000
  O   O1        1.0  0.94200  0.88400  0.13400  1.0000
  O   O2        1.0  0.26400  0.52800  0.14000  1.0000
  O   O3        1.0  0.64400  0.28700  0.20000  1.0000
  O   O4        1.0  0.85900  0.71800  0.47000  1.0000
  O   O5        1.0  0.14100  0.28200  0.53000  1.0000
  O   O6        1.0  0.35600  0.71300  0.80000  1.0000
  O   O7        1.0  0.73600  0.47200  0.86000  1.0000
  O   O8        1.0  0.05810  0.11600  0.86600  1.0000
