data_image0
_chemical_formula_structural       Co2Mo2O8
_chemical_formula_sum              "Co2 Mo2 O8"
_cell_length_a       4.63306
_cell_length_b       5.69125
_cell_length_c       4.90408
_cell_angle_alpha    90
_cell_angle_beta     89.1277
_cell_angle_gamma    90

_space_group_name_H-M_alt    "P 1"
_space_group_IT_number       1

loop_
  _space_group_symop_operation_xyz
  'x, y, z'

loop_
  _atom_site_type_symbol
  _atom_site_label
  _atom_site_symmetry_multiplicity
  _atom_site_fract_x
  _atom_site_fract_y
  _atom_site_fract_z
  _atom_site_occupancy
  Co  Co1       1.0  0.50000  0.66600  0.25000  1.0000
  Co  Co2       1.0  0.50000  0.33400  0.75000  1.0000
  Mo  Mo1       1.0  0.00000  0.18700  0.25000  1.0000
  Mo  Mo2       1.0  0.00000  0.81300  0.75000  1.0000
  O   O1        1.0  0.77900  0.89300  0.06850  1.0000
  O   O2        1.0  0.74000  0.38000  0.09620  1.0000
  O   O3        1.0  0.26000  0.38000  0.40400  1.0000
  O   O4        1.0  0.22100  0.89300  0.43100  1.0000
  O   O5        1.0  0.77900  0.10700  0.56900  1.0000
  O   O6        1.0  0.74000  0.62000  0.59600  1.0000
  O   O7        1.0  0.26000  0.62000  0.90400  1.0000
  O   O8        1.0  0.22100  0.10700  0.93100  1.0000
