data_image0
_chemical_formula_structural       Ce2CoIn8
_chemical_formula_sum              "Ce2 Co1 In8"
_cell_length_a       4.65838
_cell_length_b       4.65838
_cell_length_c       12.5347
_cell_angle_alpha    90
_cell_angle_beta     90
_cell_angle_gamma    90

_space_group_name_H-M_alt    "P 1"
_space_group_IT_number       1

loop_
  _space_group_symop_operation_xyz
  'x, y, z'

loop_
  _atom_site_type_symbol
  _atom_site_label
  _atom_site_symmetry_multiplicity
  _atom_site_fract_x
  _atom_site_fract_y
  _atom_site_fract_z
  _atom_site_occupancy
  Ce  Ce1       1.0  0.00000  0.00000  0.30200  1.0000
  Ce  Ce2       1.0  0.00000  0.00000  0.69800  1.0000
  Co  Co1       1.0  0.00000  0.00000  0.00000  1.0000
  In  In1       1.0  0.50000  0.00000  0.11400  1.0000
  In  In2       1.0  0.00000  0.50000  0.11400  1.0000
  In  In3       1.0  0.50000  0.50000  0.30700  1.0000
  In  In4       1.0  0.50000  0.00000  0.50000  1.0000
  In  In5       1.0  0.00000  0.50000  0.50000  1.0000
  In  In6       1.0  0.50000  0.50000  0.69300  1.0000
  In  In7       1.0  0.50000  0.00000  0.88600  1.0000
  In  In8       1.0  0.00000  0.50000  0.88600  1.0000
