data_image0
_chemical_formula_structural       As4Co4S4
_chemical_formula_sum              "As4 Co4 S4"
_cell_length_a       5.55904
_cell_length_b       5.59306
_cell_length_c       5.59148
_cell_angle_alpha    90
_cell_angle_beta     92.4229
_cell_angle_gamma    90

_space_group_name_H-M_alt    "P 1"
_space_group_IT_number       1

loop_
  _space_group_symop_operation_xyz
  'x, y, z'

loop_
  _atom_site_type_symbol
  _atom_site_label
  _atom_site_symmetry_multiplicity
  _atom_site_fract_x
  _atom_site_fract_y
  _atom_site_fract_z
  _atom_site_occupancy
  As  As1       1.0  0.37700  0.37600  0.37300  1.0000
  As  As2       1.0  0.62300  0.87600  0.12700  1.0000
  As  As3       1.0  0.62300  0.62400  0.62700  1.0000
  As  As4       1.0  0.37700  0.12400  0.87300  1.0000
  Co  Co1       1.0  0.00000  0.00000  0.00000  1.0000
  Co  Co2       1.0  0.00000  0.50000  0.50000  1.0000
  Co  Co3       1.0  0.50000  0.50000  0.00000  1.0000
  Co  Co4       1.0  0.50000  0.00000  0.50000  1.0000
  S   S1        1.0  0.87400  0.11900  0.61400  1.0000
  S   S2        1.0  0.12600  0.61900  0.88600  1.0000
  S   S3        1.0  0.12600  0.88100  0.38600  1.0000
  S   S4        1.0  0.87400  0.38100  0.11400  1.0000
