data_image0
_chemical_formula_structural       Cs2Cu2Se6Zr2
_chemical_formula_sum              "Cs2 Cu2 Se6 Zr2"
_cell_length_a       3.93027
_cell_length_b       8.30191
_cell_length_c       10.2997
_cell_angle_alpha    90
_cell_angle_beta     90
_cell_angle_gamma    76.3076

_space_group_name_H-M_alt    "P 1"
_space_group_IT_number       1

loop_
  _space_group_symop_operation_xyz
  'x, y, z'

loop_
  _atom_site_type_symbol
  _atom_site_label
  _atom_site_symmetry_multiplicity
  _atom_site_fract_x
  _atom_site_fract_y
  _atom_site_fract_z
  _atom_site_occupancy
  Cs  Cs1       1.0  0.74500  0.51000  0.25000  1.0000
  Cs  Cs2       1.0  0.25500  0.49000  0.75000  1.0000
  Cu  Cu1       1.0  0.46600  0.06750  0.25000  1.0000
  Cu  Cu2       1.0  0.53400  0.93200  0.75000  1.0000
  Se  Se1       1.0  0.38600  0.22700  0.05070  1.0000
  Se  Se2       1.0  0.05830  0.88300  0.25000  1.0000
  Se  Se3       1.0  0.38600  0.22700  0.44900  1.0000
  Se  Se4       1.0  0.61400  0.77300  0.55100  1.0000
  Se  Se5       1.0  0.94200  0.11700  0.75000  1.0000
  Se  Se6       1.0  0.61400  0.77300  0.94900  1.0000
  Zr  Zr1       1.0  0.00000  0.00000  0.00000  1.0000
  Zr  Zr2       1.0  0.00000  0.00000  0.50000  1.0000
