data_image0
_chemical_formula_structural       Co8Si4
_chemical_formula_sum              "Co8 Si4"
_cell_length_a       4.87141
_cell_length_b       7.0297
_cell_length_c       3.70454
_cell_angle_alpha    90
_cell_angle_beta     90
_cell_angle_gamma    90

_space_group_name_H-M_alt    "P 1"
_space_group_IT_number       1

loop_
  _space_group_symop_operation_xyz
  'x, y, z'

loop_
  _atom_site_type_symbol
  _atom_site_label
  _atom_site_symmetry_multiplicity
  _atom_site_fract_x
  _atom_site_fract_y
  _atom_site_fract_z
  _atom_site_occupancy
  Co  Co1       1.0  0.03750  0.21800  0.25000  1.0000
  Co  Co2       1.0  0.53800  0.28200  0.25000  1.0000
  Co  Co3       1.0  0.17400  0.56500  0.25000  1.0000
  Co  Co4       1.0  0.67400  0.93500  0.25000  1.0000
  Co  Co5       1.0  0.32600  0.06510  0.75000  1.0000
  Co  Co6       1.0  0.82600  0.43500  0.75000  1.0000
  Co  Co7       1.0  0.46200  0.71800  0.75000  1.0000
  Co  Co8       1.0  0.96200  0.78200  0.75000  1.0000
  Si  Si1       1.0  0.70300  0.60600  0.25000  1.0000
  Si  Si2       1.0  0.20300  0.89400  0.25000  1.0000
  Si  Si3       1.0  0.79700  0.10600  0.75000  1.0000
  Si  Si4       1.0  0.29700  0.39400  0.75000  1.0000
