data_image0
_chemical_formula_structural       Co2La3Sn7
_chemical_formula_sum              "Co2 La3 Sn7"
_cell_length_a       4.62542
_cell_length_b       4.63111
_cell_length_c       14.0908
_cell_angle_alpha    90
_cell_angle_beta     80.5533
_cell_angle_gamma    90

_space_group_name_H-M_alt    "P 1"
_space_group_IT_number       1

loop_
  _space_group_symop_operation_xyz
  'x, y, z'

loop_
  _atom_site_type_symbol
  _atom_site_label
  _atom_site_symmetry_multiplicity
  _atom_site_fract_x
  _atom_site_fract_y
  _atom_site_fract_z
  _atom_site_occupancy
  Co  Co1       1.0  0.37200  0.50000  0.25600  1.0000
  Co  Co2       1.0  0.62800  0.50000  0.74400  1.0000
  La  La1       1.0  0.50000  0.50000  0.00000  1.0000
  La  La2       1.0  0.81500  0.00000  0.36900  1.0000
  La  La3       1.0  0.18500  0.00000  0.63100  1.0000
  Sn  Sn1       1.0  0.00000  0.00000  0.00000  1.0000
  Sn  Sn2       1.0  0.41000  0.00000  0.18100  1.0000
  Sn  Sn3       1.0  0.90900  0.50000  0.18100  1.0000
  Sn  Sn4       1.0  0.28200  0.50000  0.43600  1.0000
  Sn  Sn5       1.0  0.71800  0.50000  0.56400  1.0000
  Sn  Sn6       1.0  0.09070  0.50000  0.81900  1.0000
  Sn  Sn7       1.0  0.59000  0.00000  0.81900  1.0000
