data_image0
_chemical_formula_structural       Co2Cs2S6Yb2
_chemical_formula_sum              "Co2 Cs2 S6 Yb2"
_cell_length_a       3.93724
_cell_length_b       7.97558
_cell_length_c       10.7598
_cell_angle_alpha    90
_cell_angle_beta     90
_cell_angle_gamma    75.7099

_space_group_name_H-M_alt    "P 1"
_space_group_IT_number       1

loop_
  _space_group_symop_operation_xyz
  'x, y, z'

loop_
  _atom_site_type_symbol
  _atom_site_label
  _atom_site_symmetry_multiplicity
  _atom_site_fract_x
  _atom_site_fract_y
  _atom_site_fract_z
  _atom_site_occupancy
  Co  Co1       1.0  0.54100  0.91800  0.25000  1.0000
  Co  Co2       1.0  0.45900  0.08210  0.75000  1.0000
  Cs  Cs1       1.0  0.26600  0.46800  0.25000  1.0000
  Cs  Cs2       1.0  0.73400  0.53200  0.75000  1.0000
  S   S1        1.0  0.61600  0.76800  0.07800  1.0000
  S   S2        1.0  0.95700  0.08660  0.25000  1.0000
  S   S3        1.0  0.61600  0.76800  0.42200  1.0000
  S   S4        1.0  0.38400  0.23200  0.57800  1.0000
  S   S5        1.0  0.04330  0.91300  0.75000  1.0000
  S   S6        1.0  0.38400  0.23200  0.92200  1.0000
  Yb  Yb1       1.0  0.00000  0.00000  0.00000  1.0000
  Yb  Yb2       1.0  0.00000  0.00000  0.50000  1.0000
