data_image0
_chemical_formula_structural       Co4Nb4P4
_chemical_formula_sum              "Co4 Nb4 P4"
_cell_length_a       6.13176
_cell_length_b       3.60272
_cell_length_c       6.955
_cell_angle_alpha    90
_cell_angle_beta     90
_cell_angle_gamma    90

_space_group_name_H-M_alt    "P 1"
_space_group_IT_number       1

loop_
  _space_group_symop_operation_xyz
  'x, y, z'

loop_
  _atom_site_type_symbol
  _atom_site_label
  _atom_site_symmetry_multiplicity
  _atom_site_fract_x
  _atom_site_fract_y
  _atom_site_fract_z
  _atom_site_occupancy
  Co  Co1       1.0  0.35500  0.75000  0.06140  1.0000
  Co  Co2       1.0  0.85500  0.75000  0.43900  1.0000
  Co  Co3       1.0  0.14500  0.25000  0.56100  1.0000
  Co  Co4       1.0  0.64500  0.25000  0.93900  1.0000
  Nb  Nb1       1.0  0.02620  0.25000  0.17300  1.0000
  Nb  Nb2       1.0  0.52600  0.25000  0.32700  1.0000
  Nb  Nb3       1.0  0.47400  0.75000  0.67300  1.0000
  Nb  Nb4       1.0  0.97400  0.75000  0.82700  1.0000
  P   P1        1.0  0.72200  0.75000  0.12000  1.0000
  P   P2        1.0  0.22200  0.75000  0.38000  1.0000
  P   P3        1.0  0.77800  0.25000  0.62000  1.0000
  P   P4        1.0  0.27800  0.25000  0.88000  1.0000
