data_image0
_chemical_formula_structural       Ba2Co2F8
_chemical_formula_sum              "Ba2 Co2 F8"
_cell_length_a       4.17636
_cell_length_b       5.76172
_cell_length_c       7.4234
_cell_angle_alpha    90
_cell_angle_beta     73.6624
_cell_angle_gamma    90

_space_group_name_H-M_alt    "P 1"
_space_group_IT_number       1

loop_
  _space_group_symop_operation_xyz
  'x, y, z'

loop_
  _atom_site_type_symbol
  _atom_site_label
  _atom_site_symmetry_multiplicity
  _atom_site_fract_x
  _atom_site_fract_y
  _atom_site_fract_z
  _atom_site_occupancy
  Ba  Ba1       1.0  0.85900  0.46500  0.28200  1.0000
  Ba  Ba2       1.0  0.14100  0.96500  0.71800  1.0000
  Co  Co1       1.0  0.40800  0.00027  0.18300  1.0000
  Co  Co2       1.0  0.59200  0.50000  0.81700  1.0000
  F   F1        1.0  0.47300  0.31800  0.05440  1.0000
  F   F2        1.0  0.92500  0.00064  0.14900  1.0000
  F   F3        1.0  0.32700  0.72500  0.34600  1.0000
  F   F4        1.0  0.29700  0.20900  0.40500  1.0000
  F   F5        1.0  0.70300  0.70900  0.59500  1.0000
  F   F6        1.0  0.67300  0.22500  0.65400  1.0000
  F   F7        1.0  0.07460  0.50100  0.85100  1.0000
  F   F8        1.0  0.52700  0.81800  0.94600  1.0000
