data_image0
_chemical_formula_structural       Co4Er4Sn4
_chemical_formula_sum              "Co4 Er4 Sn4"
_cell_length_a       7.17227
_cell_length_b       4.53268
_cell_length_c       7.34192
_cell_angle_alpha    90
_cell_angle_beta     90
_cell_angle_gamma    90

_space_group_name_H-M_alt    "P 1"
_space_group_IT_number       1

loop_
  _space_group_symop_operation_xyz
  'x, y, z'

loop_
  _atom_site_type_symbol
  _atom_site_label
  _atom_site_symmetry_multiplicity
  _atom_site_fract_x
  _atom_site_fract_y
  _atom_site_fract_z
  _atom_site_occupancy
  Co  Co1       1.0  0.34500  0.75000  0.06050  1.0000
  Co  Co2       1.0  0.84500  0.75000  0.44000  1.0000
  Co  Co3       1.0  0.15500  0.25000  0.56000  1.0000
  Co  Co4       1.0  0.65500  0.25000  0.94000  1.0000
  Er  Er1       1.0  0.98100  0.25000  0.20500  1.0000
  Er  Er2       1.0  0.48100  0.25000  0.29500  1.0000
  Er  Er3       1.0  0.51900  0.75000  0.70500  1.0000
  Er  Er4       1.0  0.01870  0.75000  0.79500  1.0000
  Sn  Sn1       1.0  0.70700  0.75000  0.10600  1.0000
  Sn  Sn2       1.0  0.20700  0.75000  0.39400  1.0000
  Sn  Sn3       1.0  0.79300  0.25000  0.60600  1.0000
  Sn  Sn4       1.0  0.29300  0.25000  0.89400  1.0000
