data_image0
_chemical_formula_structural       Co2Na3O6Sb
_chemical_formula_sum              "Co2 Na3 O6 Sb1"
_cell_length_a       5.35914
_cell_length_b       5.35914
_cell_length_c       5.61941
_cell_angle_alpha    99.1171
_cell_angle_beta     99.1171
_cell_angle_gamma    120.077

_space_group_name_H-M_alt    "P 1"
_space_group_IT_number       1

loop_
  _space_group_symop_operation_xyz
  'x, y, z'

loop_
  _atom_site_type_symbol
  _atom_site_label
  _atom_site_symmetry_multiplicity
  _atom_site_fract_x
  _atom_site_fract_y
  _atom_site_fract_z
  _atom_site_occupancy
  Co  Co1       1.0  0.66600  0.33400  0.00000  1.0000
  Co  Co2       1.0  0.33400  0.66600  0.00000  1.0000
  Na  Na1       1.0  0.82700  0.17300  0.50000  1.0000
  Na  Na2       1.0  0.50000  0.50000  0.50000  1.0000
  Na  Na3       1.0  0.17300  0.82700  0.50000  1.0000
  O   O1        1.0  0.38500  0.06800  0.20800  1.0000
  O   O2        1.0  0.06800  0.38500  0.20800  1.0000
  O   O3        1.0  0.75300  0.75300  0.20900  1.0000
  O   O4        1.0  0.24700  0.24700  0.79100  1.0000
  O   O5        1.0  0.93200  0.61500  0.79200  1.0000
  O   O6        1.0  0.61500  0.93200  0.79200  1.0000
  Sb  Sb1       1.0  0.00000  0.00000  0.00000  1.0000
