data_image0
_chemical_formula_structural       Cs2Fe4S6
_chemical_formula_sum              "Cs2 Fe4 S6"
_cell_length_a       5.16787
_cell_length_b       7.51778
_cell_length_c       7.51778
_cell_angle_alpha    77.7862
_cell_angle_beta     90
_cell_angle_gamma    90

_space_group_name_H-M_alt    "P 1"
_space_group_IT_number       1

loop_
  _space_group_symop_operation_xyz
  'x, y, z'

loop_
  _atom_site_type_symbol
  _atom_site_label
  _atom_site_symmetry_multiplicity
  _atom_site_fract_x
  _atom_site_fract_y
  _atom_site_fract_z
  _atom_site_occupancy
  Cs  Cs1       1.0  0.75000  0.32800  0.32800  1.0000
  Cs  Cs2       1.0  0.25000  0.67200  0.67200  1.0000
  Fe  Fe1       1.0  0.00000  0.86500  0.13500  1.0000
  Fe  Fe2       1.0  0.50000  0.86500  0.13500  1.0000
  Fe  Fe3       1.0  0.00000  0.13500  0.86500  1.0000
  Fe  Fe4       1.0  0.50000  0.13500  0.86500  1.0000
  S   S1        1.0  0.25000  0.10400  0.10400  1.0000
  S   S2        1.0  0.25000  0.63800  0.16100  1.0000
  S   S3        1.0  0.75000  0.83900  0.36200  1.0000
  S   S4        1.0  0.25000  0.16100  0.63800  1.0000
  S   S5        1.0  0.75000  0.36200  0.83900  1.0000
  S   S6        1.0  0.75000  0.89600  0.89600  1.0000
