data_image0
_chemical_formula_structural       Co2Na5S5
_chemical_formula_sum              "Co2 Na5 S5"
_cell_length_a       5.83591
_cell_length_b       7.17602
_cell_length_c       7.17602
_cell_angle_alpha    99.5172
_cell_angle_beta     113.993
_cell_angle_gamma    66.007

_space_group_name_H-M_alt    "P 1"
_space_group_IT_number       1

loop_
  _space_group_symop_operation_xyz
  'x, y, z'

loop_
  _atom_site_type_symbol
  _atom_site_label
  _atom_site_symmetry_multiplicity
  _atom_site_fract_x
  _atom_site_fract_y
  _atom_site_fract_z
  _atom_site_occupancy
  Co  Co1       1.0  0.24000  0.50000  0.50000  1.0000
  Co  Co2       1.0  0.74000  0.50000  0.50000  1.0000
  Na  Na1       1.0  0.92700  0.00000  0.00000  1.0000
  Na  Na2       1.0  0.14600  0.39200  0.00000  1.0000
  Na  Na3       1.0  0.53800  0.60800  0.00000  1.0000
  Na  Na4       1.0  0.53800  0.00000  0.39200  1.0000
  Na  Na5       1.0  0.14600  0.00000  0.60800  1.0000
  S   S1        1.0  0.45800  0.00000  0.00000  1.0000
  S   S2        1.0  0.30200  0.68700  0.31300  1.0000
  S   S3        1.0  0.98900  0.31300  0.31300  1.0000
  S   S4        1.0  0.67600  0.31300  0.68700  1.0000
  S   S5        1.0  0.98900  0.68700  0.68700  1.0000
