data_image0
_chemical_formula_structural       Co4Eu2Ga6
_chemical_formula_sum              "Co4 Eu2 Ga6"
_cell_length_a       5.24456
_cell_length_b       6.24651
_cell_length_c       6.24651
_cell_angle_alpha    75.8173
_cell_angle_beta     90
_cell_angle_gamma    90

_space_group_name_H-M_alt    "P 1"
_space_group_IT_number       1

loop_
  _space_group_symop_operation_xyz
  'x, y, z'

loop_
  _atom_site_type_symbol
  _atom_site_label
  _atom_site_symmetry_multiplicity
  _atom_site_fract_x
  _atom_site_fract_y
  _atom_site_fract_z
  _atom_site_occupancy
  Co  Co1       1.0  0.00000  0.20300  0.20300  1.0000
  Co  Co2       1.0  0.50000  0.20300  0.20300  1.0000
  Co  Co3       1.0  0.00000  0.79700  0.79700  1.0000
  Co  Co4       1.0  0.50000  0.79700  0.79700  1.0000
  Eu  Eu1       1.0  0.75000  0.65700  0.34300  1.0000
  Eu  Eu2       1.0  0.25000  0.34300  0.65700  1.0000
  Ga  Ga1       1.0  0.25000  0.94800  0.05190  1.0000
  Ga  Ga2       1.0  0.25000  0.52700  0.08400  1.0000
  Ga  Ga3       1.0  0.25000  0.91600  0.47300  1.0000
  Ga  Ga4       1.0  0.75000  0.08400  0.52700  1.0000
  Ga  Ga5       1.0  0.75000  0.47300  0.91600  1.0000
  Ga  Ga6       1.0  0.75000  0.05190  0.94800  1.0000
