data_image0
_chemical_formula_structural       Co2Cs2Se6Yb2
_chemical_formula_sum              "Co2 Cs2 Se6 Yb2"
_cell_length_a       4.06343
_cell_length_b       8.34235
_cell_length_c       11.1888
_cell_angle_alpha    90
_cell_angle_beta     90
_cell_angle_gamma    75.9043

_space_group_name_H-M_alt    "P 1"
_space_group_IT_number       1

loop_
  _space_group_symop_operation_xyz
  'x, y, z'

loop_
  _atom_site_type_symbol
  _atom_site_label
  _atom_site_symmetry_multiplicity
  _atom_site_fract_x
  _atom_site_fract_y
  _atom_site_fract_z
  _atom_site_occupancy
  Co  Co1       1.0  0.54000  0.92000  0.25000  1.0000
  Co  Co2       1.0  0.46000  0.08010  0.75000  1.0000
  Cs  Cs1       1.0  0.26300  0.47400  0.25000  1.0000
  Cs  Cs2       1.0  0.73700  0.52600  0.75000  1.0000
  Se  Se1       1.0  0.61900  0.76300  0.07620  1.0000
  Se  Se2       1.0  0.95300  0.09320  0.25000  1.0000
  Se  Se3       1.0  0.61900  0.76300  0.42400  1.0000
  Se  Se4       1.0  0.38100  0.23700  0.57600  1.0000
  Se  Se5       1.0  0.04660  0.90700  0.75000  1.0000
  Se  Se6       1.0  0.38100  0.23700  0.92400  1.0000
  Yb  Yb1       1.0  0.00000  0.00000  0.00000  1.0000
  Yb  Yb2       1.0  0.00000  0.00000  0.50000  1.0000
