data_image0
_chemical_formula_structural       Al8Co2Nd2
_chemical_formula_sum              "Al8 Co2 Nd2"
_cell_length_a       7.67012
_cell_length_b       4.03103
_cell_length_c       6.87725
_cell_angle_alpha    90
_cell_angle_beta     90
_cell_angle_gamma    90

_space_group_name_H-M_alt    "P 1"
_space_group_IT_number       1

loop_
  _space_group_symop_operation_xyz
  'x, y, z'

loop_
  _atom_site_type_symbol
  _atom_site_label
  _atom_site_symmetry_multiplicity
  _atom_site_fract_x
  _atom_site_fract_y
  _atom_site_fract_z
  _atom_site_occupancy
  Al  Al1       1.0  0.00000  0.00000  0.00000  1.0000
  Al  Al2       1.0  0.50000  0.00000  0.00000  1.0000
  Al  Al3       1.0  0.75000  0.50000  0.04150  1.0000
  Al  Al4       1.0  0.07030  0.50000  0.30100  1.0000
  Al  Al5       1.0  0.43000  0.50000  0.30100  1.0000
  Al  Al6       1.0  0.57000  0.50000  0.69900  1.0000
  Al  Al7       1.0  0.93000  0.50000  0.69900  1.0000
  Al  Al8       1.0  0.25000  0.50000  0.95800  1.0000
  Co  Co1       1.0  0.25000  0.00000  0.18500  1.0000
  Co  Co2       1.0  0.75000  0.00000  0.81500  1.0000
  Nd  Nd1       1.0  0.75000  0.00000  0.38300  1.0000
  Nd  Nd2       1.0  0.25000  0.00000  0.61700  1.0000
