data_image0
_chemical_formula_structural       Al6Co2Er4
_chemical_formula_sum              "Al6 Co2 Er4"
_cell_length_a       5.46566
_cell_length_b       5.46562
_cell_length_c       8.51007
_cell_angle_alpha    90
_cell_angle_beta     90
_cell_angle_gamma    120

_space_group_name_H-M_alt    "P 1"
_space_group_IT_number       1

loop_
  _space_group_symop_operation_xyz
  'x, y, z'

loop_
  _atom_site_type_symbol
  _atom_site_label
  _atom_site_symmetry_multiplicity
  _atom_site_fract_x
  _atom_site_fract_y
  _atom_site_fract_z
  _atom_site_occupancy
  Al  Al1       1.0  0.32400  0.16200  0.25000  1.0000
  Al  Al2       1.0  0.83800  0.16200  0.25000  1.0000
  Al  Al3       1.0  0.83800  0.67600  0.25000  1.0000
  Al  Al4       1.0  0.16200  0.32400  0.75000  1.0000
  Al  Al5       1.0  0.16200  0.83800  0.75000  1.0000
  Al  Al6       1.0  0.67600  0.83800  0.75000  1.0000
  Co  Co1       1.0  0.00000  0.00000  0.00000  1.0000
  Co  Co2       1.0  0.00000  0.00000  0.50000  1.0000
  Er  Er1       1.0  0.33300  0.66700  0.05550  1.0000
  Er  Er2       1.0  0.33300  0.66700  0.44400  1.0000
  Er  Er3       1.0  0.66700  0.33300  0.55600  1.0000
  Er  Er4       1.0  0.66700  0.33300  0.94400  1.0000
