data_image0
_chemical_formula_structural       Co4Ge4Sm4
_chemical_formula_sum              "Co4 Ge4 Sm4"
_cell_length_a       7.17722
_cell_length_b       4.33268
_cell_length_c       7.02255
_cell_angle_alpha    90
_cell_angle_beta     90
_cell_angle_gamma    90

_space_group_name_H-M_alt    "P 1"
_space_group_IT_number       1

loop_
  _space_group_symop_operation_xyz
  'x, y, z'

loop_
  _atom_site_type_symbol
  _atom_site_label
  _atom_site_symmetry_multiplicity
  _atom_site_fract_x
  _atom_site_fract_y
  _atom_site_fract_z
  _atom_site_occupancy
  Co  Co1       1.0  0.14400  0.25000  0.06830  1.0000
  Co  Co2       1.0  0.64400  0.25000  0.43200  1.0000
  Co  Co3       1.0  0.35600  0.75000  0.56800  1.0000
  Co  Co4       1.0  0.85600  0.75000  0.93200  1.0000
  Ge  Ge1       1.0  0.80600  0.25000  0.10500  1.0000
  Ge  Ge2       1.0  0.30600  0.25000  0.39500  1.0000
  Ge  Ge3       1.0  0.69400  0.75000  0.60500  1.0000
  Ge  Ge4       1.0  0.19400  0.75000  0.89500  1.0000
  Sm  Sm1       1.0  0.52200  0.75000  0.18800  1.0000
  Sm  Sm2       1.0  0.02190  0.75000  0.31200  1.0000
  Sm  Sm3       1.0  0.97800  0.25000  0.68800  1.0000
  Sm  Sm4       1.0  0.47800  0.25000  0.81200  1.0000
