data_image0
_chemical_formula_structural       As4Co4Hf4
_chemical_formula_sum              "As4 Co4 Hf4"
_cell_length_a       6.4554
_cell_length_b       3.81921
_cell_length_c       7.25021
_cell_angle_alpha    90
_cell_angle_beta     90
_cell_angle_gamma    90

_space_group_name_H-M_alt    "P 1"
_space_group_IT_number       1

loop_
  _space_group_symop_operation_xyz
  'x, y, z'

loop_
  _atom_site_type_symbol
  _atom_site_label
  _atom_site_symmetry_multiplicity
  _atom_site_fract_x
  _atom_site_fract_y
  _atom_site_fract_z
  _atom_site_occupancy
  As  As1       1.0  0.76900  0.25000  0.11600  1.0000
  As  As2       1.0  0.26900  0.25000  0.38400  1.0000
  As  As3       1.0  0.73100  0.75000  0.61600  1.0000
  As  As4       1.0  0.23100  0.75000  0.88400  1.0000
  Co  Co1       1.0  0.13900  0.25000  0.06390  1.0000
  Co  Co2       1.0  0.63900  0.25000  0.43600  1.0000
  Co  Co3       1.0  0.36100  0.75000  0.56400  1.0000
  Co  Co4       1.0  0.86100  0.75000  0.93600  1.0000
  Hf  Hf1       1.0  0.48000  0.75000  0.18600  1.0000
  Hf  Hf2       1.0  0.98000  0.75000  0.31400  1.0000
  Hf  Hf3       1.0  0.02000  0.25000  0.68600  1.0000
  Hf  Hf4       1.0  0.52000  0.25000  0.81400  1.0000
