data_image0
_chemical_formula_structural       Co6Nb4Si2
_chemical_formula_sum              "Co6 Nb4 Si2"
_cell_length_a       4.84414
_cell_length_b       4.84414
_cell_length_c       7.54688
_cell_angle_alpha    90
_cell_angle_beta     90
_cell_angle_gamma    120

_space_group_name_H-M_alt    "P 1"
_space_group_IT_number       1

loop_
  _space_group_symop_operation_xyz
  'x, y, z'

loop_
  _atom_site_type_symbol
  _atom_site_label
  _atom_site_symmetry_multiplicity
  _atom_site_fract_x
  _atom_site_fract_y
  _atom_site_fract_z
  _atom_site_occupancy
  Co  Co1       1.0  0.33900  0.17000  0.25000  1.0000
  Co  Co2       1.0  0.83000  0.17000  0.25000  1.0000
  Co  Co3       1.0  0.83000  0.66100  0.25000  1.0000
  Co  Co4       1.0  0.17000  0.33900  0.75000  1.0000
  Co  Co5       1.0  0.17000  0.83000  0.75000  1.0000
  Co  Co6       1.0  0.66100  0.83000  0.75000  1.0000
  Nb  Nb1       1.0  0.33300  0.66700  0.05990  1.0000
  Nb  Nb2       1.0  0.33300  0.66700  0.44000  1.0000
  Nb  Nb3       1.0  0.66700  0.33300  0.56000  1.0000
  Nb  Nb4       1.0  0.66700  0.33300  0.94000  1.0000
  Si  Si1       1.0  0.00000  0.00000  0.00000  1.0000
  Si  Si2       1.0  0.00000  0.00000  0.50000  1.0000
