data_image0
_chemical_formula_structural       Co2F7K3
_chemical_formula_sum              "Co2 F7 K3"
_cell_length_a       4.00388
_cell_length_b       4.00388
_cell_length_c       10.8172
_cell_angle_alpha    100.665
_cell_angle_beta     100.665
_cell_angle_gamma    90

_space_group_name_H-M_alt    "P 1"
_space_group_IT_number       1

loop_
  _space_group_symop_operation_xyz
  'x, y, z'

loop_
  _atom_site_type_symbol
  _atom_site_label
  _atom_site_symmetry_multiplicity
  _atom_site_fract_x
  _atom_site_fract_y
  _atom_site_fract_z
  _atom_site_occupancy
  Co  Co1       1.0  0.09730  0.09730  0.19500  1.0000
  Co  Co2       1.0  0.90300  0.90300  0.80500  1.0000
  F   F1        1.0  0.00000  0.00000  0.00000  1.0000
  F   F2        1.0  0.59500  0.09530  0.19100  1.0000
  F   F3        1.0  0.09530  0.59500  0.19100  1.0000
  F   F4        1.0  0.19400  0.19400  0.38800  1.0000
  F   F5        1.0  0.80600  0.80600  0.61200  1.0000
  F   F6        1.0  0.90500  0.40500  0.80900  1.0000
  F   F7        1.0  0.40500  0.90500  0.80900  1.0000
  K   K1        1.0  0.50000  0.50000  0.00000  1.0000
  K   K2        1.0  0.68500  0.68500  0.37100  1.0000
  K   K3        1.0  0.31500  0.31500  0.62900  1.0000
