data_image0
_chemical_formula_structural       Al6Co2Lu4
_chemical_formula_sum              "Al6 Co2 Lu4"
_cell_length_a       5.41153
_cell_length_b       5.41153
_cell_length_c       8.46419
_cell_angle_alpha    90
_cell_angle_beta     90
_cell_angle_gamma    120

_space_group_name_H-M_alt    "P 1"
_space_group_IT_number       1

loop_
  _space_group_symop_operation_xyz
  'x, y, z'

loop_
  _atom_site_type_symbol
  _atom_site_label
  _atom_site_symmetry_multiplicity
  _atom_site_fract_x
  _atom_site_fract_y
  _atom_site_fract_z
  _atom_site_occupancy
  Al  Al1       1.0  0.32500  0.16300  0.25000  1.0000
  Al  Al2       1.0  0.83700  0.16300  0.25000  1.0000
  Al  Al3       1.0  0.83700  0.67500  0.25000  1.0000
  Al  Al4       1.0  0.16300  0.32500  0.75000  1.0000
  Al  Al5       1.0  0.16300  0.83700  0.75000  1.0000
  Al  Al6       1.0  0.67500  0.83700  0.75000  1.0000
  Co  Co1       1.0  0.00000  0.00000  0.00000  1.0000
  Co  Co2       1.0  0.00000  0.00000  0.50000  1.0000
  Lu  Lu1       1.0  0.33300  0.66700  0.05530  1.0000
  Lu  Lu2       1.0  0.33300  0.66700  0.44500  1.0000
  Lu  Lu3       1.0  0.66700  0.33300  0.55500  1.0000
  Lu  Lu4       1.0  0.66700  0.33300  0.94500  1.0000
