data_image0
_chemical_formula_structural       Co4P4Zr4
_chemical_formula_sum              "Co4 P4 Zr4"
_cell_length_a       6.3334
_cell_length_b       3.69292
_cell_length_c       7.1673
_cell_angle_alpha    90
_cell_angle_beta     90
_cell_angle_gamma    90

_space_group_name_H-M_alt    "P 1"
_space_group_IT_number       1

loop_
  _space_group_symop_operation_xyz
  'x, y, z'

loop_
  _atom_site_type_symbol
  _atom_site_label
  _atom_site_symmetry_multiplicity
  _atom_site_fract_x
  _atom_site_fract_y
  _atom_site_fract_z
  _atom_site_occupancy
  Co  Co1       1.0  0.36200  0.75000  0.06030  1.0000
  Co  Co2       1.0  0.86200  0.75000  0.44000  1.0000
  Co  Co3       1.0  0.13800  0.25000  0.56000  1.0000
  Co  Co4       1.0  0.63800  0.25000  0.94000  1.0000
  P   P1        1.0  0.72400  0.75000  0.11300  1.0000
  P   P2        1.0  0.22400  0.75000  0.38700  1.0000
  P   P3        1.0  0.77600  0.25000  0.61300  1.0000
  P   P4        1.0  0.27600  0.25000  0.88700  1.0000
  Zr  Zr1       1.0  0.01950  0.25000  0.18300  1.0000
  Zr  Zr2       1.0  0.51900  0.25000  0.31700  1.0000
  Zr  Zr3       1.0  0.48100  0.75000  0.68300  1.0000
  Zr  Zr4       1.0  0.98100  0.75000  0.81700  1.0000
