data_image0
_chemical_formula_structural       Co2Ga8Th2
_chemical_formula_sum              "Co2 Ga8 Th2"
_cell_length_a       4.16887
_cell_length_b       6.59808
_cell_length_c       8.10524
_cell_angle_alpha    90
_cell_angle_beta     75.0977
_cell_angle_gamma    90

_space_group_name_H-M_alt    "P 1"
_space_group_IT_number       1

loop_
  _space_group_symop_operation_xyz
  'x, y, z'

loop_
  _atom_site_type_symbol
  _atom_site_label
  _atom_site_symmetry_multiplicity
  _atom_site_fract_x
  _atom_site_fract_y
  _atom_site_fract_z
  _atom_site_occupancy
  Co  Co1       1.0  0.27300  0.25000  0.45400  1.0000
  Co  Co2       1.0  0.72700  0.75000  0.54600  1.0000
  Ga  Ga1       1.0  0.00000  0.00000  0.00000  1.0000
  Ga  Ga2       1.0  0.00000  0.50000  0.00000  1.0000
  Ga  Ga3       1.0  0.42300  0.25000  0.15500  1.0000
  Ga  Ga4       1.0  0.81000  0.05530  0.38000  1.0000
  Ga  Ga5       1.0  0.81000  0.44500  0.38000  1.0000
  Ga  Ga6       1.0  0.19000  0.55500  0.62000  1.0000
  Ga  Ga7       1.0  0.19000  0.94500  0.62000  1.0000
  Ga  Ga8       1.0  0.57700  0.75000  0.84500  1.0000
  Th  Th1       1.0  0.38400  0.75000  0.23100  1.0000
  Th  Th2       1.0  0.61600  0.25000  0.76900  1.0000
