data_image0
_chemical_formula_structural       Ce4Co2Sn5
_chemical_formula_sum              "Ce4 Co2 Sn5"
_cell_length_a       4.60764
_cell_length_b       7.4924
_cell_length_c       8.97352
_cell_angle_alpha    96.2311
_cell_angle_beta     75.1236
_cell_angle_gamma    107.908

_space_group_name_H-M_alt    "P 1"
_space_group_IT_number       1

loop_
  _space_group_symop_operation_xyz
  'x, y, z'

loop_
  _atom_site_type_symbol
  _atom_site_label
  _atom_site_symmetry_multiplicity
  _atom_site_fract_x
  _atom_site_fract_y
  _atom_site_fract_z
  _atom_site_occupancy
  Ce  Ce1       1.0  0.66800  0.55200  0.21500  1.0000
  Ce  Ce2       1.0  0.93900  0.09700  0.22000  1.0000
  Ce  Ce3       1.0  0.06140  0.90300  0.78000  1.0000
  Ce  Ce4       1.0  0.33200  0.44800  0.78500  1.0000
  Co  Co1       1.0  0.22600  0.81400  0.36100  1.0000
  Co  Co2       1.0  0.77400  0.18600  0.63900  1.0000
  Sn  Sn1       1.0  0.37200  0.80300  0.05770  1.0000
  Sn  Sn2       1.0  0.34600  0.16900  0.47800  1.0000
  Sn  Sn3       1.0  0.00000  0.50000  0.50000  1.0000
  Sn  Sn4       1.0  0.65400  0.83100  0.52200  1.0000
  Sn  Sn5       1.0  0.62800  0.19700  0.94200  1.0000
