data_image0
_chemical_formula_structural       CoSe4Si2
_chemical_formula_sum              "Co1 Se4 Si2"
_cell_length_a       3.59859
_cell_length_b       6.24552
_cell_length_c       6.85227
_cell_angle_alpha    115.677
_cell_angle_beta     105.223
_cell_angle_gamma    90

_space_group_name_H-M_alt    "P 1"
_space_group_IT_number       1

loop_
  _space_group_symop_operation_xyz
  'x, y, z'

loop_
  _atom_site_type_symbol
  _atom_site_label
  _atom_site_symmetry_multiplicity
  _atom_site_fract_x
  _atom_site_fract_y
  _atom_site_fract_z
  _atom_site_occupancy
  Co  Co1       1.0  0.00000  0.00000  0.00000  1.0000
  Se  Se1       1.0  0.11500  0.43700  0.23000  1.0000
  Se  Se2       1.0  0.62000  0.97500  0.24000  1.0000
  Se  Se3       1.0  0.38000  0.02550  0.76000  1.0000
  Se  Se4       1.0  0.88500  0.56300  0.77000  1.0000
  Si  Si1       1.0  0.73600  0.71400  0.47200  1.0000
  Si  Si2       1.0  0.26400  0.28600  0.52800  1.0000
