data_image0
_chemical_formula_structural       Co4Ge8
_chemical_formula_sum              "Co4 Ge8"
_cell_length_a       6.14153
_cell_length_b       5.66308
_cell_length_c       5.66454
_cell_angle_alpha    90
_cell_angle_beta     90
_cell_angle_gamma    117.455

_space_group_name_H-M_alt    "P 1"
_space_group_IT_number       1

loop_
  _space_group_symop_operation_xyz
  'x, y, z'

loop_
  _atom_site_type_symbol
  _atom_site_label
  _atom_site_symmetry_multiplicity
  _atom_site_fract_x
  _atom_site_fract_y
  _atom_site_fract_z
  _atom_site_occupancy
  Co  Co1       1.0  0.51600  0.75800  0.00000  1.0000
  Co  Co2       1.0  0.98400  0.99200  0.00000  1.0000
  Co  Co3       1.0  0.51600  0.25800  0.50000  1.0000
  Co  Co4       1.0  0.98400  0.49200  0.50000  1.0000
  Ge  Ge1       1.0  0.75000  0.53300  0.15800  1.0000
  Ge  Ge2       1.0  0.25000  0.37600  0.25000  1.0000
  Ge  Ge3       1.0  0.25000  0.87600  0.25000  1.0000
  Ge  Ge4       1.0  0.75000  0.03320  0.34200  1.0000
  Ge  Ge5       1.0  0.75000  0.71700  0.65800  1.0000
  Ge  Ge6       1.0  0.25000  0.37400  0.75000  1.0000
  Ge  Ge7       1.0  0.25000  0.87400  0.75000  1.0000
  Ge  Ge8       1.0  0.75000  0.21700  0.84200  1.0000
