data_image0
_chemical_formula_structural       Co2Cu4O6
_chemical_formula_sum              "Co2 Cu4 O6"
_cell_length_a       9.39119
_cell_length_b       3.97696
_cell_length_c       3.17673
_cell_angle_alpha    90
_cell_angle_beta     90
_cell_angle_gamma    90

_space_group_name_H-M_alt    "P 1"
_space_group_IT_number       1

loop_
  _space_group_symop_operation_xyz
  'x, y, z'

loop_
  _atom_site_type_symbol
  _atom_site_label
  _atom_site_symmetry_multiplicity
  _atom_site_fract_x
  _atom_site_fract_y
  _atom_site_fract_z
  _atom_site_occupancy
  Co  Co1       1.0  0.25000  0.25000  0.33200  1.0000
  Co  Co2       1.0  0.75000  0.75000  0.66800  1.0000
  Cu  Cu1       1.0  0.58200  0.25000  0.19900  1.0000
  Cu  Cu2       1.0  0.91800  0.25000  0.19900  1.0000
  Cu  Cu3       1.0  0.08230  0.75000  0.80100  1.0000
  Cu  Cu4       1.0  0.41800  0.75000  0.80100  1.0000
  O   O1        1.0  0.59300  0.75000  0.13100  1.0000
  O   O2        1.0  0.90700  0.75000  0.13100  1.0000
  O   O3        1.0  0.25000  0.75000  0.45000  1.0000
  O   O4        1.0  0.75000  0.25000  0.55000  1.0000
  O   O5        1.0  0.09300  0.25000  0.86900  1.0000
  O   O6        1.0  0.40700  0.25000  0.86900  1.0000
