data_image0
_chemical_formula_structural       Co8Mn4Nd
_chemical_formula_sum              "Co8 Mn4 Nd1"
_cell_length_a       4.53081
_cell_length_b       6.35203
_cell_length_c       6.35201
_cell_angle_alpha    97.3069
_cell_angle_beta     69.1065
_cell_angle_gamma    110.894

_space_group_name_H-M_alt    "P 1"
_space_group_IT_number       1

loop_
  _space_group_symop_operation_xyz
  'x, y, z'

loop_
  _atom_site_type_symbol
  _atom_site_label
  _atom_site_symmetry_multiplicity
  _atom_site_fract_x
  _atom_site_fract_y
  _atom_site_fract_z
  _atom_site_occupancy
  Co  Co1       1.0  0.26800  0.76800  0.23200  1.0000
  Co  Co2       1.0  0.50000  0.23200  0.23200  1.0000
  Co  Co3       1.0  0.00000  0.36000  0.36000  1.0000
  Co  Co4       1.0  0.64000  0.64000  0.36000  1.0000
  Co  Co5       1.0  0.36000  0.36000  0.64000  1.0000
  Co  Co6       1.0  1.00000  0.64000  0.64000  1.0000
  Co  Co7       1.0  0.50000  0.76800  0.76800  1.0000
  Co  Co8       1.0  0.73200  0.23200  0.76800  1.0000
  Mn  Mn1       1.0  0.00000  0.50000  0.00000  1.0000
  Mn  Mn2       1.0  0.50000  0.50000  0.00000  1.0000
  Mn  Mn3       1.0  0.50000  0.00000  0.50000  1.0000
  Mn  Mn4       1.0  0.00000  0.00000  0.50000  1.0000
  Nd  Nd1       1.0  0.00000  0.00000  0.00000  1.0000
