data_image0
_chemical_formula_structural       Cu11Sb3
_chemical_formula_sum              "Cu11 Sb3"
_cell_length_a       4.3043
_cell_length_b       4.79122
_cell_length_c       9.89136
_cell_angle_alpha    104.016
_cell_angle_beta     90
_cell_angle_gamma    90

_space_group_name_H-M_alt    "P 1"
_space_group_IT_number       1

loop_
  _space_group_symop_operation_xyz
  'x, y, z'

loop_
  _atom_site_type_symbol
  _atom_site_label
  _atom_site_symmetry_multiplicity
  _atom_site_fract_x
  _atom_site_fract_y
  _atom_site_fract_z
  _atom_site_occupancy
  Cu  Cu1       1.0  0.00000  0.80600  0.00000  1.0000
  Cu  Cu2       1.0  0.00000  0.42300  0.14600  1.0000
  Cu  Cu3       1.0  0.50000  0.72800  0.14600  1.0000
  Cu  Cu4       1.0  0.50000  0.34600  0.29500  1.0000
  Cu  Cu5       1.0  0.00000  0.55300  0.42800  1.0000
  Cu  Cu6       1.0  0.50000  0.87100  0.44000  1.0000
  Cu  Cu7       1.0  0.50000  0.43100  0.56000  1.0000
  Cu  Cu8       1.0  0.00000  0.12500  0.57200  1.0000
  Cu  Cu9       1.0  0.50000  0.05100  0.70500  1.0000
  Cu  Cu10      1.0  0.50000  0.58200  0.85400  1.0000
  Cu  Cu11      1.0  0.00000  0.27800  0.85400  1.0000
  Sb  Sb1       1.0  0.50000  0.16400  0.00000  1.0000
  Sb  Sb2       1.0  0.00000  0.98700  0.29200  1.0000
  Sb  Sb3       1.0  0.00000  0.69500  0.70800  1.0000
