data_image0
_chemical_formula_structural       Co4Ga4Gd4
_chemical_formula_sum              "Co4 Ga4 Gd4"
_cell_length_a       7.70095
_cell_length_b       4.14907
_cell_length_c       7.72347
_cell_angle_alpha    90
_cell_angle_beta     90
_cell_angle_gamma    90

_space_group_name_H-M_alt    "P 1"
_space_group_IT_number       1

loop_
  _space_group_symop_operation_xyz
  'x, y, z'

loop_
  _atom_site_type_symbol
  _atom_site_label
  _atom_site_symmetry_multiplicity
  _atom_site_fract_x
  _atom_site_fract_y
  _atom_site_fract_z
  _atom_site_occupancy
  Co  Co1       1.0  0.55300  0.25000  0.07270  1.0000
  Co  Co2       1.0  0.05270  0.25000  0.42700  1.0000
  Co  Co3       1.0  0.94700  0.75000  0.57300  1.0000
  Co  Co4       1.0  0.44700  0.75000  0.92700  1.0000
  Ga  Ga1       1.0  0.50300  0.75000  0.23000  1.0000
  Ga  Ga2       1.0  0.00297  0.75000  0.27000  1.0000
  Ga  Ga3       1.0  0.99700  0.25000  0.73000  1.0000
  Ga  Ga4       1.0  0.49700  0.25000  0.77000  1.0000
  Gd  Gd1       1.0  0.21200  0.25000  0.07430  1.0000
  Gd  Gd2       1.0  0.71200  0.25000  0.42600  1.0000
  Gd  Gd3       1.0  0.28800  0.75000  0.57400  1.0000
  Gd  Gd4       1.0  0.78800  0.75000  0.92600  1.0000
