data_image0
_chemical_formula_structural       Bi4Co2Ti8
_chemical_formula_sum              "Bi4 Co2 Ti8"
_cell_length_a       4.85202
_cell_length_b       7.85036
_cell_length_c       7.85036
_cell_angle_alpha    95.4801
_cell_angle_beta     71.9991
_cell_angle_gamma    108.001

_space_group_name_H-M_alt    "P 1"
_space_group_IT_number       1

loop_
  _space_group_symop_operation_xyz
  'x, y, z'

loop_
  _atom_site_type_symbol
  _atom_site_label
  _atom_site_symmetry_multiplicity
  _atom_site_fract_x
  _atom_site_fract_y
  _atom_site_fract_z
  _atom_site_occupancy
  Bi  Bi1       1.0  0.13900  0.50000  0.22200  1.0000
  Bi  Bi2       1.0  0.36100  0.22200  0.50000  1.0000
  Bi  Bi3       1.0  0.63900  0.77800  0.50000  1.0000
  Bi  Bi4       1.0  0.86100  0.50000  0.77800  1.0000
  Co  Co1       1.0  0.25000  0.00000  0.00000  1.0000
  Co  Co2       1.0  0.75000  0.00000  0.00000  1.0000
  Ti  Ti1       1.0  0.58100  0.27400  0.11200  1.0000
  Ti  Ti2       1.0  0.80700  0.72600  0.11200  1.0000
  Ti  Ti3       1.0  0.30700  0.88800  0.27400  1.0000
  Ti  Ti4       1.0  0.91900  0.11200  0.27400  1.0000
  Ti  Ti5       1.0  0.08060  0.88800  0.72600  1.0000
  Ti  Ti6       1.0  0.69300  0.11200  0.72600  1.0000
  Ti  Ti7       1.0  0.19300  0.27400  0.88800  1.0000
  Ti  Ti8       1.0  0.41900  0.72600  0.88800  1.0000
