data_image0
_chemical_formula_structural       CoS8Ti4
_chemical_formula_sum              "Co1 S8 Ti4"
_cell_length_a       6.54747
_cell_length_b       6.54747
_cell_length_c       6.74357
_cell_angle_alpha    104.641
_cell_angle_beta     105.38
_cell_angle_gamma    117.808

_space_group_name_H-M_alt    "P 1"
_space_group_IT_number       1

loop_
  _space_group_symop_operation_xyz
  'x, y, z'

loop_
  _atom_site_type_symbol
  _atom_site_label
  _atom_site_symmetry_multiplicity
  _atom_site_fract_x
  _atom_site_fract_y
  _atom_site_fract_z
  _atom_site_occupancy
  Co  Co1       1.0  0.00000  0.00000  0.00000  1.0000
  S   S1        1.0  0.21000  0.44700  0.16700  1.0000
  S   S2        1.0  0.71900  0.95700  0.16700  1.0000
  S   S3        1.0  0.28900  0.03830  0.32700  1.0000
  S   S4        1.0  0.78600  0.54800  0.33400  1.0000
  S   S5        1.0  0.21400  0.45200  0.66600  1.0000
  S   S6        1.0  0.71100  0.96200  0.67300  1.0000
  S   S7        1.0  0.28100  0.04300  0.83300  1.0000
  S   S8        1.0  0.79000  0.55300  0.83300  1.0000
  Ti  Ti1       1.0  0.74700  0.25900  0.00517  1.0000
  Ti  Ti2       1.0  0.24200  0.74200  0.50000  1.0000
  Ti  Ti3       1.0  0.75800  0.25800  0.50000  1.0000
  Ti  Ti4       1.0  0.25300  0.74100  0.99500  1.0000
