data_image0
_chemical_formula_structural       Co6Sm3Sn5
_chemical_formula_sum              "Co6 Sm3 Sn5"
_cell_length_a       4.32803
_cell_length_b       8.1984
_cell_length_c       8.1984
_cell_angle_alpha    98.8198
_cell_angle_beta     105.305
_cell_angle_gamma    105.305

_space_group_name_H-M_alt    "P 1"
_space_group_IT_number       1

loop_
  _space_group_symop_operation_xyz
  'x, y, z'

loop_
  _atom_site_type_symbol
  _atom_site_label
  _atom_site_symmetry_multiplicity
  _atom_site_fract_x
  _atom_site_fract_y
  _atom_site_fract_z
  _atom_site_occupancy
  Co  Co1       1.0  0.27400  0.38100  0.16700  1.0000
  Co  Co2       1.0  0.80000  0.30000  0.30000  1.0000
  Co  Co3       1.0  0.27400  0.16700  0.38100  1.0000
  Co  Co4       1.0  0.72600  0.83300  0.61900  1.0000
  Co  Co5       1.0  0.20000  0.70000  0.70000  1.0000
  Co  Co6       1.0  0.72600  0.61900  0.83300  1.0000
  Sm  Sm1       1.0  0.00000  0.00000  0.00000  1.0000
  Sm  Sm2       1.0  0.00000  0.68300  0.31700  1.0000
  Sm  Sm3       1.0  0.00000  0.31700  0.68300  1.0000
  Sn  Sn1       1.0  0.34000  0.66300  0.01640  1.0000
  Sn  Sn2       1.0  0.66000  0.98400  0.33700  1.0000
  Sn  Sn3       1.0  0.50000  0.50000  0.50000  1.0000
  Sn  Sn4       1.0  0.34000  0.01640  0.66300  1.0000
  Sn  Sn5       1.0  0.66000  0.33700  0.98400  1.0000
