data_image0
_chemical_formula_structural       Co2Na6O6
_chemical_formula_sum              "Co2 Na6 O6"
_cell_length_a       5.68464
_cell_length_b       5.84968
_cell_length_c       6.31768
_cell_angle_alpha    64.3184
_cell_angle_beta     89.3657
_cell_angle_gamma    85.4172

_space_group_name_H-M_alt    "P 1"
_space_group_IT_number       1

loop_
  _space_group_symop_operation_xyz
  'x, y, z'

loop_
  _atom_site_type_symbol
  _atom_site_label
  _atom_site_symmetry_multiplicity
  _atom_site_fract_x
  _atom_site_fract_y
  _atom_site_fract_z
  _atom_site_occupancy
  Co  Co1       1.0  0.35900  0.19300  0.30900  1.0000
  Co  Co2       1.0  0.64100  0.80700  0.69100  1.0000
  Na  Na1       1.0  0.85700  0.23500  0.02180  1.0000
  Na  Na2       1.0  0.56400  0.74200  0.25600  1.0000
  Na  Na3       1.0  0.06100  0.76900  0.44400  1.0000
  Na  Na4       1.0  0.93900  0.23100  0.55600  1.0000
  Na  Na5       1.0  0.43600  0.25800  0.74400  1.0000
  Na  Na6       1.0  0.14300  0.76500  0.97800  1.0000
  O   O1        1.0  0.24500  0.09760  0.09630  1.0000
  O   O2        1.0  0.25600  0.47300  0.34500  1.0000
  O   O3        1.0  0.69500  0.07820  0.37400  1.0000
  O   O4        1.0  0.30500  0.92200  0.62600  1.0000
  O   O5        1.0  0.74400  0.52700  0.65500  1.0000
  O   O6        1.0  0.75500  0.90200  0.90400  1.0000
