data_image0
_chemical_formula_structural       CoO8Re2
_chemical_formula_sum              "Co1 O8 Re2"
_cell_length_a       5.71512
_cell_length_b       5.69102
_cell_length_c       5.94585
_cell_angle_alpha    89.9201
_cell_angle_beta     89.9963
_cell_angle_gamma    120.102

_space_group_name_H-M_alt    "P 1"
_space_group_IT_number       1

loop_
  _space_group_symop_operation_xyz
  'x, y, z'

loop_
  _atom_site_type_symbol
  _atom_site_label
  _atom_site_symmetry_multiplicity
  _atom_site_fract_x
  _atom_site_fract_y
  _atom_site_fract_z
  _atom_site_occupancy
  Co  Co1       1.0  0.00000  0.00000  0.00000  1.0000
  O   O1        1.0  0.19600  0.86200  0.19600  1.0000
  O   O2        1.0  0.66600  0.80700  0.19600  1.0000
  O   O3        1.0  0.13800  0.33200  0.19700  1.0000
  O   O4        1.0  0.66700  0.33400  0.41400  1.0000
  O   O5        1.0  0.33300  0.66600  0.58600  1.0000
  O   O6        1.0  0.86200  0.66800  0.80300  1.0000
  O   O7        1.0  0.33400  0.19300  0.80400  1.0000
  O   O8        1.0  0.80400  0.13800  0.80400  1.0000
  Re  Re1       1.0  0.33300  0.66700  0.29400  1.0000
  Re  Re2       1.0  0.66700  0.33300  0.70600  1.0000
