data_image0
_chemical_formula_structural       Co4Ni2S8
_chemical_formula_sum              "Co4 Ni2 S8"
_cell_length_a       6.59314
_cell_length_b       6.59314
_cell_length_c       6.59314
_cell_angle_alpha    120
_cell_angle_beta     90
_cell_angle_gamma    120

_space_group_name_H-M_alt    "P 1"
_space_group_IT_number       1

loop_
  _space_group_symop_operation_xyz
  'x, y, z'

loop_
  _atom_site_type_symbol
  _atom_site_label
  _atom_site_symmetry_multiplicity
  _atom_site_fract_x
  _atom_site_fract_y
  _atom_site_fract_z
  _atom_site_occupancy
  Co  Co1       1.0  0.50000  0.00000  0.00000  1.0000
  Co  Co2       1.0  0.50000  0.00000  0.50000  1.0000
  Co  Co3       1.0  0.00000  0.50000  0.50000  1.0000
  Co  Co4       1.0  0.50000  0.50000  0.50000  1.0000
  Ni  Ni1       1.0  0.87500  0.75000  0.12500  1.0000
  Ni  Ni2       1.0  0.12500  0.25000  0.87500  1.0000
  S   S1        1.0  0.74100  0.01850  0.25900  1.0000
  S   S2        1.0  0.27800  0.01850  0.25900  1.0000
  S   S3        1.0  0.74100  0.48100  0.25900  1.0000
  S   S4        1.0  0.25900  0.51900  0.27800  1.0000
  S   S5        1.0  0.74100  0.48100  0.72200  1.0000
  S   S6        1.0  0.25900  0.98100  0.74100  1.0000
  S   S7        1.0  0.72200  0.98100  0.74100  1.0000
  S   S8        1.0  0.25900  0.51900  0.74100  1.0000
