data_image0
_chemical_formula_structural       Ca2Co4Ga6
_chemical_formula_sum              "Ca2 Co4 Ga6"
_cell_length_a       5.26608
_cell_length_b       6.20296
_cell_length_c       6.20296
_cell_angle_alpha    76.9329
_cell_angle_beta     90
_cell_angle_gamma    90

_space_group_name_H-M_alt    "P 1"
_space_group_IT_number       1

loop_
  _space_group_symop_operation_xyz
  'x, y, z'

loop_
  _atom_site_type_symbol
  _atom_site_label
  _atom_site_symmetry_multiplicity
  _atom_site_fract_x
  _atom_site_fract_y
  _atom_site_fract_z
  _atom_site_occupancy
  Ca  Ca1       1.0  0.75000  0.65500  0.34500  1.0000
  Ca  Ca2       1.0  0.25000  0.34500  0.65500  1.0000
  Co  Co1       1.0  0.00000  0.20600  0.20600  1.0000
  Co  Co2       1.0  0.50000  0.20600  0.20600  1.0000
  Co  Co3       1.0  0.00000  0.79400  0.79400  1.0000
  Co  Co4       1.0  0.50000  0.79400  0.79400  1.0000
  Ga  Ga1       1.0  0.25000  0.95400  0.04650  1.0000
  Ga  Ga2       1.0  0.25000  0.52900  0.08380  1.0000
  Ga  Ga3       1.0  0.25000  0.91600  0.47100  1.0000
  Ga  Ga4       1.0  0.75000  0.08380  0.52900  1.0000
  Ga  Ga5       1.0  0.75000  0.47100  0.91600  1.0000
  Ga  Ga6       1.0  0.75000  0.04650  0.95400  1.0000
