data_image0
_chemical_formula_structural       B6Co2Dy5
_chemical_formula_sum              "B6 Co2 Dy5"
_cell_length_a       5.39861
_cell_length_b       5.39861
_cell_length_c       8.33735
_cell_angle_alpha    108.89
_cell_angle_beta     71.1095
_cell_angle_gamma    120

_space_group_name_H-M_alt    "P 1"
_space_group_IT_number       1

loop_
  _space_group_symop_operation_xyz
  'x, y, z'

loop_
  _atom_site_type_symbol
  _atom_site_label
  _atom_site_symmetry_multiplicity
  _atom_site_fract_x
  _atom_site_fract_y
  _atom_site_fract_z
  _atom_site_occupancy
  B   B1        1.0  0.16900  0.16900  0.50000  1.0000
  B   B2        1.0  0.50000  0.16900  0.50000  1.0000
  B   B3        1.0  0.16900  0.50000  0.50000  1.0000
  B   B4        1.0  0.83100  0.50000  0.50000  1.0000
  B   B5        1.0  0.50000  0.83100  0.50000  1.0000
  B   B6        1.0  0.83100  0.83100  0.50000  1.0000
  Co  Co1       1.0  0.88000  0.12000  0.36000  1.0000
  Co  Co2       1.0  0.12000  0.88000  0.64000  1.0000
  Dy  Dy1       1.0  0.00000  0.00000  0.00000  1.0000
  Dy  Dy2       1.0  0.25200  0.74800  0.24500  1.0000
  Dy  Dy3       1.0  0.58400  0.41600  0.24800  1.0000
  Dy  Dy4       1.0  0.41600  0.58400  0.75200  1.0000
  Dy  Dy5       1.0  0.74800  0.25200  0.75500  1.0000
