data_image0
_chemical_formula_structural       B6Co2Pr5
_chemical_formula_sum              "B6 Co2 Pr5"
_cell_length_a       5.48718
_cell_length_b       5.48718
_cell_length_c       8.90789
_cell_angle_alpha    107.938
_cell_angle_beta     72.0615
_cell_angle_gamma    120

_space_group_name_H-M_alt    "P 1"
_space_group_IT_number       1

loop_
  _space_group_symop_operation_xyz
  'x, y, z'

loop_
  _atom_site_type_symbol
  _atom_site_label
  _atom_site_symmetry_multiplicity
  _atom_site_fract_x
  _atom_site_fract_y
  _atom_site_fract_z
  _atom_site_occupancy
  B   B1        1.0  0.16700  0.16700  0.50000  1.0000
  B   B2        1.0  0.16700  0.50000  0.50000  1.0000
  B   B3        1.0  0.50000  0.16700  0.50000  1.0000
  B   B4        1.0  0.50000  0.83300  0.50000  1.0000
  B   B5        1.0  0.83300  0.50000  0.50000  1.0000
  B   B6        1.0  0.83300  0.83300  0.50000  1.0000
  Co  Co1       1.0  0.87600  0.12400  0.37200  1.0000
  Co  Co2       1.0  0.12400  0.87600  0.62800  1.0000
  Pr  Pr1       1.0  0.00000  0.00000  0.00000  1.0000
  Pr  Pr2       1.0  0.25100  0.74900  0.24800  1.0000
  Pr  Pr3       1.0  0.58300  0.41700  0.25100  1.0000
  Pr  Pr4       1.0  0.41700  0.58300  0.74900  1.0000
  Pr  Pr5       1.0  0.74900  0.25100  0.75200  1.0000
