data_image0
_chemical_formula_structural       Bi8Br4Ru2
_chemical_formula_sum              "Bi8 Br4 Ru2"
_cell_length_a       6.75821
_cell_length_b       8.72308
_cell_length_c       8.93236
_cell_angle_alpha    92.4373
_cell_angle_beta     67.7716
_cell_angle_gamma    112.791

_space_group_name_H-M_alt    "P 1"
_space_group_IT_number       1

loop_
  _space_group_symop_operation_xyz
  'x, y, z'

loop_
  _atom_site_type_symbol
  _atom_site_label
  _atom_site_symmetry_multiplicity
  _atom_site_fract_x
  _atom_site_fract_y
  _atom_site_fract_z
  _atom_site_occupancy
  Bi  Bi1       1.0  0.10600  0.28200  0.06980  1.0000
  Bi  Bi2       1.0  0.30900  0.75200  0.13500  1.0000
  Bi  Bi3       1.0  0.44200  0.10800  0.22500  1.0000
  Bi  Bi4       1.0  0.80400  0.89200  0.28400  1.0000
  Bi  Bi5       1.0  0.19600  0.10800  0.71600  1.0000
  Bi  Bi6       1.0  0.55800  0.89200  0.77500  1.0000
  Bi  Bi7       1.0  0.69100  0.24800  0.86500  1.0000
  Bi  Bi8       1.0  0.89400  0.71800  0.93000  1.0000
  Br  Br1       1.0  0.62800  0.52400  0.26700  1.0000
  Br  Br2       1.0  0.89400  0.22400  0.43600  1.0000
  Br  Br3       1.0  0.10600  0.77600  0.56400  1.0000
  Br  Br4       1.0  0.37200  0.47600  0.73300  1.0000
  Ru  Ru1       1.0  0.21000  0.00000  0.00000  1.0000
  Ru  Ru2       1.0  0.79000  0.00000  0.00000  1.0000
