data_image0
_chemical_formula_structural       Co6Nb7
_chemical_formula_sum              "Co6 Nb7"
_cell_length_a       4.97112
_cell_length_b       4.97112
_cell_length_c       9.1795
_cell_angle_alpha    74.2897
_cell_angle_beta     90
_cell_angle_gamma    120

_space_group_name_H-M_alt    "P 1"
_space_group_IT_number       1

loop_
  _space_group_symop_operation_xyz
  'x, y, z'

loop_
  _atom_site_type_symbol
  _atom_site_label
  _atom_site_symmetry_multiplicity
  _atom_site_fract_x
  _atom_site_fract_y
  _atom_site_fract_z
  _atom_site_occupancy
  Co  Co1       1.0  0.58000  0.67200  0.23600  1.0000
  Co  Co2       1.0  0.09220  0.18400  0.23600  1.0000
  Co  Co3       1.0  0.09220  0.67200  0.23600  1.0000
  Co  Co4       1.0  0.90800  0.32800  0.76400  1.0000
  Co  Co5       1.0  0.90800  0.81600  0.76400  1.0000
  Co  Co6       1.0  0.42000  0.32800  0.76400  1.0000
  Nb  Nb1       1.0  0.00000  0.00000  0.00000  1.0000
  Nb  Nb2       1.0  0.65300  0.30700  0.04010  1.0000
  Nb  Nb3       1.0  0.55000  0.10000  0.35000  1.0000
  Nb  Nb4       1.0  0.83400  0.66800  0.49800  1.0000
  Nb  Nb5       1.0  0.16600  0.33200  0.50200  1.0000
  Nb  Nb6       1.0  0.45000  0.90000  0.65000  1.0000
  Nb  Nb7       1.0  0.34700  0.69300  0.96000  1.0000
