data_image0
_chemical_formula_structural       CoZn13
_chemical_formula_sum              "Co1 Zn13"
_cell_length_a       5.03267
_cell_length_b       6.56503
_cell_length_c       6.56503
_cell_angle_alpha    110.436
_cell_angle_beta     98.9305
_cell_angle_gamma    81.0695

_space_group_name_H-M_alt    "P 1"
_space_group_IT_number       1

loop_
  _space_group_symop_operation_xyz
  'x, y, z'

loop_
  _atom_site_type_symbol
  _atom_site_label
  _atom_site_symmetry_multiplicity
  _atom_site_fract_x
  _atom_site_fract_y
  _atom_site_fract_z
  _atom_site_occupancy
  Co  Co1       1.0  0.50000  0.00000  0.00000  1.0000
  Zn  Zn1       1.0  0.00000  0.00000  0.00000  1.0000
  Zn  Zn2       1.0  0.19900  0.35500  0.00200  1.0000
  Zn  Zn3       1.0  0.36600  0.78100  0.21900  1.0000
  Zn  Zn4       1.0  0.67900  0.37500  0.22000  1.0000
  Zn  Zn5       1.0  0.80100  0.00200  0.35500  1.0000
  Zn  Zn6       1.0  0.32100  0.22000  0.37500  1.0000
  Zn  Zn7       1.0  0.07240  0.61200  0.38800  1.0000
  Zn  Zn8       1.0  0.92800  0.38800  0.61200  1.0000
  Zn  Zn9       1.0  0.67900  0.78000  0.62500  1.0000
  Zn  Zn10      1.0  0.19900  0.99800  0.64500  1.0000
  Zn  Zn11      1.0  0.32100  0.62500  0.78000  1.0000
  Zn  Zn12      1.0  0.63400  0.21900  0.78100  1.0000
  Zn  Zn13      1.0  0.80100  0.64500  0.99800  1.0000
