data_image0
_chemical_formula_structural       Cl8Na4Ti2
_chemical_formula_sum              "Cl8 Na4 Ti2"
_cell_length_a       6.94309
_cell_length_b       12.1209
_cell_length_c       3.72311
_cell_angle_alpha    90
_cell_angle_beta     90
_cell_angle_gamma    90

_space_group_name_H-M_alt    "P 1"
_space_group_IT_number       1

loop_
  _space_group_symop_operation_xyz
  'x, y, z'

loop_
  _atom_site_type_symbol
  _atom_site_label
  _atom_site_symmetry_multiplicity
  _atom_site_fract_x
  _atom_site_fract_y
  _atom_site_fract_z
  _atom_site_occupancy
  Cl  Cl1       1.0  0.25900  0.04270  0.00000  1.0000
  Cl  Cl2       1.0  0.75900  0.45700  0.00000  1.0000
  Cl  Cl3       1.0  0.24100  0.54300  0.00000  1.0000
  Cl  Cl4       1.0  0.74100  0.95700  0.00000  1.0000
  Cl  Cl5       1.0  0.62200  0.19600  0.50000  1.0000
  Cl  Cl6       1.0  0.12200  0.30400  0.50000  1.0000
  Cl  Cl7       1.0  0.87800  0.69600  0.50000  1.0000
  Cl  Cl8       1.0  0.37800  0.80400  0.50000  1.0000
  Na  Na1       1.0  0.91700  0.18100  0.00000  1.0000
  Na  Na2       1.0  0.41700  0.31900  0.00000  1.0000
  Na  Na3       1.0  0.58300  0.68100  0.00000  1.0000
  Na  Na4       1.0  0.08320  0.81900  0.00000  1.0000
  Ti  Ti1       1.0  0.50000  0.00000  0.50000  1.0000
  Ti  Ti2       1.0  0.00000  0.50000  0.50000  1.0000
