data_image0
_chemical_formula_structural       B6Co3Y4
_chemical_formula_sum              "B6 Co3 Y4"
_cell_length_a       5.31676
_cell_length_b       5.31675
_cell_length_c       7.93794
_cell_angle_alpha    70.4338
_cell_angle_beta     109.566
_cell_angle_gamma    120

_space_group_name_H-M_alt    "P 1"
_space_group_IT_number       1

loop_
  _space_group_symop_operation_xyz
  'x, y, z'

loop_
  _atom_site_type_symbol
  _atom_site_label
  _atom_site_symmetry_multiplicity
  _atom_site_fract_x
  _atom_site_fract_y
  _atom_site_fract_z
  _atom_site_occupancy
  B   B1        1.0  0.50000  0.16800  0.50000  1.0000
  B   B2        1.0  0.16800  0.16800  0.50000  1.0000
  B   B3        1.0  0.16800  0.50000  0.50000  1.0000
  B   B4        1.0  0.83200  0.50000  0.50000  1.0000
  B   B5        1.0  0.50000  0.83200  0.50000  1.0000
  B   B6        1.0  0.83200  0.83200  0.50000  1.0000
  Co  Co1       1.0  0.00000  0.00000  0.00000  1.0000
  Co  Co2       1.0  0.11300  0.88700  0.33800  1.0000
  Co  Co3       1.0  0.88700  0.11300  0.66200  1.0000
  Y   Y1        1.0  0.41100  0.58900  0.23300  1.0000
  Y   Y2        1.0  0.74500  0.25500  0.23400  1.0000
  Y   Y3        1.0  0.25500  0.74500  0.76600  1.0000
  Y   Y4        1.0  0.58900  0.41100  0.76700  1.0000
