data_image0
_chemical_formula_structural       Co8Mn4Sm
_chemical_formula_sum              "Co8 Mn4 Sm1"
_cell_length_a       4.52916
_cell_length_b       6.32303
_cell_length_c       6.32303
_cell_angle_alpha    97.3696
_cell_angle_beta     69.0135
_cell_angle_gamma    110.986

_space_group_name_H-M_alt    "P 1"
_space_group_IT_number       1

loop_
  _space_group_symop_operation_xyz
  'x, y, z'

loop_
  _atom_site_type_symbol
  _atom_site_label
  _atom_site_symmetry_multiplicity
  _atom_site_fract_x
  _atom_site_fract_y
  _atom_site_fract_z
  _atom_site_occupancy
  Co  Co1       1.0  0.27100  0.77100  0.22900  1.0000
  Co  Co2       1.0  0.50000  0.22900  0.22900  1.0000
  Co  Co3       1.0  0.64100  0.64100  0.35900  1.0000
  Co  Co4       1.0  0.00000  0.35900  0.35900  1.0000
  Co  Co5       1.0  0.35900  0.35900  0.64100  1.0000
  Co  Co6       1.0  0.00000  0.64100  0.64100  1.0000
  Co  Co7       1.0  0.72900  0.22900  0.77100  1.0000
  Co  Co8       1.0  0.50000  0.77100  0.77100  1.0000
  Mn  Mn1       1.0  0.00000  0.50000  0.00000  1.0000
  Mn  Mn2       1.0  0.50000  0.50000  0.00000  1.0000
  Mn  Mn3       1.0  0.50000  0.00000  0.50000  1.0000
  Mn  Mn4       1.0  0.00000  0.00000  0.50000  1.0000
  Sm  Sm1       1.0  0.00000  0.00000  0.00000  1.0000
