data_image0
_chemical_formula_structural       Co6DyGe6
_chemical_formula_sum              "Co6 Dy1 Ge6"
_cell_length_a       5.09385
_cell_length_b       5.09385
_cell_length_c       7.84284
_cell_angle_alpha    90
_cell_angle_beta     90
_cell_angle_gamma    120.003

_space_group_name_H-M_alt    "P 1"
_space_group_IT_number       1

loop_
  _space_group_symop_operation_xyz
  'x, y, z'

loop_
  _atom_site_type_symbol
  _atom_site_label
  _atom_site_symmetry_multiplicity
  _atom_site_fract_x
  _atom_site_fract_y
  _atom_site_fract_z
  _atom_site_occupancy
  Co  Co1       1.0  0.50000  0.00000  0.25100  1.0000
  Co  Co2       1.0  0.00000  0.50000  0.25100  1.0000
  Co  Co3       1.0  0.50000  0.50000  0.25100  1.0000
  Co  Co4       1.0  0.50000  0.50000  0.74900  1.0000
  Co  Co5       1.0  0.50000  0.00000  0.74900  1.0000
  Co  Co6       1.0  0.00000  0.50000  0.74900  1.0000
  Dy  Dy1       1.0  0.00000  0.00000  0.00000  1.0000
  Ge  Ge1       1.0  0.66700  0.33300  0.00000  1.0000
  Ge  Ge2       1.0  0.33300  0.66700  0.00000  1.0000
  Ge  Ge3       1.0  0.00000  0.00000  0.34500  1.0000
  Ge  Ge4       1.0  0.66700  0.33300  0.50000  1.0000
  Ge  Ge5       1.0  0.33300  0.66700  0.50000  1.0000
  Ge  Ge6       1.0  0.00000  0.00000  0.65500  1.0000
