data_image0
_chemical_formula_structural       CoGdSi3
_chemical_formula_sum              "Co1 Gd1 Si3"
_cell_length_a       3.65277
_cell_length_b       3.65277
_cell_length_c       7.31063
_cell_angle_alpha    104.467
_cell_angle_beta     104.467
_cell_angle_gamma    90

_space_group_name_H-M_alt    "P 1"
_space_group_IT_number       1

loop_
  _space_group_symop_operation_xyz
  'x, y, z'

loop_
  _atom_site_type_symbol
  _atom_site_label
  _atom_site_symmetry_multiplicity
  _atom_site_fract_x
  _atom_site_fract_y
  _atom_site_fract_z
  _atom_site_occupancy
  Co  Co1       1.0  0.91300  0.91300  0.82700  1.0000
  Gd  Gd1       1.0  0.64300  0.64300  0.28500  1.0000
  Si  Si1       1.0  0.80900  0.30900  0.61800  1.0000
  Si  Si2       1.0  0.30900  0.80900  0.61800  1.0000
  Si  Si3       1.0  0.44200  0.44200  0.88500  1.0000
