data_image0
_chemical_formula_structural       Co4Ge7U3
_chemical_formula_sum              "Co4 Ge7 U3"
_cell_length_a       4.13199
_cell_length_b       4.13199
_cell_length_c       13.9257
_cell_angle_alpha    98.5318
_cell_angle_beta     98.5318
_cell_angle_gamma    90

_space_group_name_H-M_alt    "P 1"
_space_group_IT_number       1

loop_
  _space_group_symop_operation_xyz
  'x, y, z'

loop_
  _atom_site_type_symbol
  _atom_site_label
  _atom_site_symmetry_multiplicity
  _atom_site_fract_x
  _atom_site_fract_y
  _atom_site_fract_z
  _atom_site_occupancy
  Co  Co1       1.0  0.11700  0.11700  0.23500  1.0000
  Co  Co2       1.0  0.75000  0.25000  0.50000  1.0000
  Co  Co3       1.0  0.25000  0.75000  0.50000  1.0000
  Co  Co4       1.0  0.88300  0.88300  0.76500  1.0000
  Ge  Ge1       1.0  0.50000  0.50000  0.00000  1.0000
  Ge  Ge2       1.0  0.58100  0.08070  0.16100  1.0000
  Ge  Ge3       1.0  0.08070  0.58100  0.16100  1.0000
  Ge  Ge4       1.0  0.20300  0.20300  0.40600  1.0000
  Ge  Ge5       1.0  0.79700  0.79700  0.59400  1.0000
  Ge  Ge6       1.0  0.91900  0.41900  0.83900  1.0000
  Ge  Ge7       1.0  0.41900  0.91900  0.83900  1.0000
  U   U1        1.0  0.00000  0.00000  0.00000  1.0000
  U   U2        1.0  0.67300  0.67300  0.34600  1.0000
  U   U3        1.0  0.32700  0.32700  0.65400  1.0000
