data_image0
_chemical_formula_structural       CsTe8Ti5
_chemical_formula_sum              "Cs1 Te8 Ti5"
_cell_length_a       3.91413
_cell_length_b       9.90758
_cell_length_c       10.4221
_cell_angle_alpha    83.4982
_cell_angle_beta     100.823
_cell_angle_gamma    101.393

_space_group_name_H-M_alt    "P 1"
_space_group_IT_number       1

loop_
  _space_group_symop_operation_xyz
  'x, y, z'

loop_
  _atom_site_type_symbol
  _atom_site_label
  _atom_site_symmetry_multiplicity
  _atom_site_fract_x
  _atom_site_fract_y
  _atom_site_fract_z
  _atom_site_occupancy
  Cs  Cs1       1.0  0.00000  0.00000  0.00000  1.0000
  Te  Te1       1.0  0.69800  0.32700  0.06830  1.0000
  Te  Te2       1.0  0.96400  0.66600  0.26300  1.0000
  Te  Te3       1.0  0.66000  0.99700  0.32400  1.0000
  Te  Te4       1.0  0.36200  0.32500  0.39800  1.0000
  Te  Te5       1.0  0.63800  0.67500  0.60200  1.0000
  Te  Te6       1.0  0.34000  0.00305  0.67600  1.0000
  Te  Te7       1.0  0.03570  0.33400  0.73700  1.0000
  Te  Te8       1.0  0.30200  0.67300  0.93200  1.0000
  Ti  Ti1       1.0  0.32800  0.49600  0.16100  1.0000
  Ti  Ti2       1.0  0.15600  0.84600  0.46600  1.0000
  Ti  Ti3       1.0  0.00000  0.50000  0.50000  1.0000
  Ti  Ti4       1.0  0.84400  0.15400  0.53400  1.0000
  Ti  Ti5       1.0  0.67200  0.50400  0.83900  1.0000
