data_image0
_chemical_formula_structural       Ni6S8
_chemical_formula_sum              "Ni6 S8"
_cell_length_a       6.67097
_cell_length_b       6.67097
_cell_length_c       6.67097
_cell_angle_alpha    120
_cell_angle_beta     90
_cell_angle_gamma    120

_space_group_name_H-M_alt    "P 1"
_space_group_IT_number       1

loop_
  _space_group_symop_operation_xyz
  'x, y, z'

loop_
  _atom_site_type_symbol
  _atom_site_label
  _atom_site_symmetry_multiplicity
  _atom_site_fract_x
  _atom_site_fract_y
  _atom_site_fract_z
  _atom_site_occupancy
  Ni  Ni1       1.0  0.00000  0.00000  0.00000  1.0000
  Ni  Ni2       1.0  0.37500  0.75000  0.12500  1.0000
  Ni  Ni3       1.0  0.75000  0.50000  0.25000  1.0000
  Ni  Ni4       1.0  0.37500  0.25000  0.62500  1.0000
  Ni  Ni5       1.0  0.87500  0.25000  0.62500  1.0000
  Ni  Ni6       1.0  0.37500  0.75000  0.62500  1.0000
  S   S1        1.0  0.61700  0.23300  0.38300  1.0000
  S   S2        1.0  0.15000  0.76700  0.38300  1.0000
  S   S3        1.0  0.61700  0.76700  0.38300  1.0000
  S   S4        1.0  0.13300  0.26700  0.40000  1.0000
  S   S5        1.0  0.61700  0.23300  0.85000  1.0000
  S   S6        1.0  0.13300  0.26700  0.86700  1.0000
  S   S7        1.0  0.13300  0.73300  0.86700  1.0000
  S   S8        1.0  0.60000  0.73300  0.86700  1.0000
