data_image0
_chemical_formula_structural       C4CoHgN4S4
_chemical_formula_sum              "C4 Co1 Hg1 N4 S4"
_cell_length_a       4.37647
_cell_length_b       8.13589
_cell_length_c       8.13589
_cell_angle_alpha    94.1484
_cell_angle_beta     74.3976
_cell_angle_gamma    105.602

_space_group_name_H-M_alt    "P 1"
_space_group_IT_number       1

loop_
  _space_group_symop_operation_xyz
  'x, y, z'

loop_
  _atom_site_type_symbol
  _atom_site_label
  _atom_site_symmetry_multiplicity
  _atom_site_fract_x
  _atom_site_fract_y
  _atom_site_fract_z
  _atom_site_occupancy
  C   C1        1.0  0.96600  0.35600  0.19500  1.0000
  C   C2        1.0  0.83800  0.80500  0.35600  1.0000
  C   C3        1.0  0.38900  0.19500  0.64400  1.0000
  C   C4        1.0  0.80600  0.64400  0.80500  1.0000
  Co  Co1       1.0  0.25000  0.50000  0.50000  1.0000
  Hg  Hg1       1.0  0.00000  0.00000  0.00000  1.0000
  N   N1        1.0  0.06650  0.41000  0.31500  1.0000
  N   N2        1.0  0.61900  0.68500  0.41000  1.0000
  N   N3        1.0  0.34400  0.31500  0.59000  1.0000
  N   N4        1.0  0.97100  0.59000  0.68500  1.0000
  S   S1        1.0  0.82500  0.28500  0.03020  1.0000
  S   S2        1.0  0.14500  0.97000  0.28500  1.0000
  S   S3        1.0  0.46000  0.03020  0.71500  1.0000
  S   S4        1.0  0.57000  0.71500  0.97000  1.0000
