data_image0
_chemical_formula_structural       B4Co2O8
_chemical_formula_sum              "B4 Co2 O8"
_cell_length_a       4.4249
_cell_length_b       5.43446
_cell_length_c       5.43446
_cell_angle_alpha    61.8342
_cell_angle_beta     105.773
_cell_angle_gamma    105.773

_space_group_name_H-M_alt    "P 1"
_space_group_IT_number       1

loop_
  _space_group_symop_operation_xyz
  'x, y, z'

loop_
  _atom_site_type_symbol
  _atom_site_label
  _atom_site_symmetry_multiplicity
  _atom_site_fract_x
  _atom_site_fract_y
  _atom_site_fract_z
  _atom_site_occupancy
  B   B1        1.0  0.37200  0.29300  0.07770  1.0000
  B   B2        1.0  0.87200  0.07770  0.29300  1.0000
  B   B3        1.0  0.12800  0.92200  0.70700  1.0000
  B   B4        1.0  0.62800  0.70700  0.92200  1.0000
  Co  Co1       1.0  0.25000  0.65200  0.34800  1.0000
  Co  Co2       1.0  0.75000  0.34800  0.65200  1.0000
  O   O1        1.0  0.02950  0.22700  0.04860  1.0000
  O   O2        1.0  0.52200  0.50700  0.20400  1.0000
  O   O3        1.0  0.52900  0.04860  0.22700  1.0000
  O   O4        1.0  0.97800  0.79600  0.49300  1.0000
  O   O5        1.0  0.02190  0.20400  0.50700  1.0000
  O   O6        1.0  0.47100  0.95100  0.77300  1.0000
  O   O7        1.0  0.47800  0.49300  0.79600  1.0000
  O   O8        1.0  0.97100  0.77300  0.95100  1.0000
