data_image0
_chemical_formula_structural       Al2Ce2Co2
_chemical_formula_sum              "Al2 Ce2 Co2"
_cell_length_a       4.3398
_cell_length_b       5.14633
_cell_length_c       6.11848
_cell_angle_alpha    103.237
_cell_angle_beta     110.772
_cell_angle_gamma    90

_space_group_name_H-M_alt    "P 1"
_space_group_IT_number       1

loop_
  _space_group_symop_operation_xyz
  'x, y, z'

loop_
  _atom_site_type_symbol
  _atom_site_label
  _atom_site_symmetry_multiplicity
  _atom_site_fract_x
  _atom_site_fract_y
  _atom_site_fract_z
  _atom_site_occupancy
  Al  Al1       1.0  0.59800  0.81800  0.19600  1.0000
  Al  Al2       1.0  0.40200  0.18200  0.80400  1.0000
  Ce  Ce1       1.0  0.12400  0.32000  0.24800  1.0000
  Ce  Ce2       1.0  0.87600  0.68000  0.75200  1.0000
  Co  Co1       1.0  0.20100  0.87000  0.40100  1.0000
  Co  Co2       1.0  0.79900  0.13000  0.59900  1.0000
