data_image0
_chemical_formula_structural       BaCo2O8P2
_chemical_formula_sum              "Ba1 Co2 O8 P2"
_cell_length_a       4.83705
_cell_length_b       4.83713
_cell_length_c       8.18226
_cell_angle_alpha    72.8102
_cell_angle_beta     107.19
_cell_angle_gamma    120.002

_space_group_name_H-M_alt    "P 1"
_space_group_IT_number       1

loop_
  _space_group_symop_operation_xyz
  'x, y, z'

loop_
  _atom_site_type_symbol
  _atom_site_label
  _atom_site_symmetry_multiplicity
  _atom_site_fract_x
  _atom_site_fract_y
  _atom_site_fract_z
  _atom_site_occupancy
  Ba  Ba1       1.0  0.00000  0.00000  0.00000  1.0000
  Co  Co1       1.0  0.83000  0.17000  0.48900  1.0000
  Co  Co2       1.0  0.17000  0.83000  0.51100  1.0000
  O   O1        1.0  0.35900  0.64100  0.07640  1.0000
  O   O2        1.0  0.43500  0.24100  0.33900  1.0000
  O   O3        1.0  0.75900  0.85500  0.33900  1.0000
  O   O4        1.0  0.14500  0.56500  0.33900  1.0000
  O   O5        1.0  0.85500  0.43500  0.66100  1.0000
  O   O6        1.0  0.24100  0.14500  0.66100  1.0000
  O   O7        1.0  0.56500  0.75900  0.66100  1.0000
  O   O8        1.0  0.64100  0.35900  0.92400  1.0000
  P   P1        1.0  0.42500  0.57500  0.27400  1.0000
  P   P2        1.0  0.57500  0.42500  0.72600  1.0000
