data_image0
_chemical_formula_structural       CoLi2O8W2
_chemical_formula_sum              "Co1 Li2 O8 W2"
_cell_length_a       4.90543
_cell_length_b       5.64954
_cell_length_c       5.86589
_cell_angle_alpha    69.7048
_cell_angle_beta     91.395
_cell_angle_gamma    116.392

_space_group_name_H-M_alt    "P 1"
_space_group_IT_number       1

loop_
  _space_group_symop_operation_xyz
  'x, y, z'

loop_
  _atom_site_type_symbol
  _atom_site_label
  _atom_site_symmetry_multiplicity
  _atom_site_fract_x
  _atom_site_fract_y
  _atom_site_fract_z
  _atom_site_occupancy
  Co  Co1       1.0  0.50000  0.00000  0.00000  1.0000
  Li  Li1       1.0  0.03940  0.06630  0.25900  1.0000
  Li  Li2       1.0  0.96100  0.93400  0.74100  1.0000
  O   O1        1.0  0.72400  0.75900  0.07390  1.0000
  O   O2        1.0  0.76300  0.24700  0.18900  1.0000
  O   O3        1.0  0.17500  0.72500  0.33100  1.0000
  O   O4        1.0  0.31400  0.27200  0.46000  1.0000
  O   O5        1.0  0.68600  0.72800  0.54000  1.0000
  O   O6        1.0  0.82500  0.27500  0.66900  1.0000
  O   O7        1.0  0.23700  0.75300  0.81100  1.0000
  O   O8        1.0  0.27600  0.24100  0.92600  1.0000
  W   W1        1.0  0.72900  0.46600  0.33300  1.0000
  W   W2        1.0  0.27100  0.53400  0.66700  1.0000
