data_image0
_chemical_formula_structural       CoF6Pt
_chemical_formula_sum              "Co1 F6 Pt1"
_cell_length_a       4.78722
_cell_length_b       4.78735
_cell_length_c       5.28063
_cell_angle_alpha    63.0481
_cell_angle_beta     116.951
_cell_angle_gamma    119.999

_space_group_name_H-M_alt    "P 1"
_space_group_IT_number       1

loop_
  _space_group_symop_operation_xyz
  'x, y, z'

loop_
  _atom_site_type_symbol
  _atom_site_label
  _atom_site_symmetry_multiplicity
  _atom_site_fract_x
  _atom_site_fract_y
  _atom_site_fract_z
  _atom_site_occupancy
  Co  Co1       1.0  0.50000  0.50000  0.50000  1.0000
  F   F1        1.0  0.42700  0.92300  0.25000  1.0000
  F   F2        1.0  0.74600  0.57300  0.25000  1.0000
  F   F3        1.0  0.07720  0.25400  0.25000  1.0000
  F   F4        1.0  0.92300  0.74600  0.75000  1.0000
  F   F5        1.0  0.25400  0.42700  0.75000  1.0000
  F   F6        1.0  0.57300  0.07720  0.75000  1.0000
  Pt  Pt1       1.0  0.00000  0.00000  0.00000  1.0000
