data_image0
_chemical_formula_structural       Co4Ga4Sm4
_chemical_formula_sum              "Co4 Ga4 Sm4"
_cell_length_a       7.73753
_cell_length_b       4.18236
_cell_length_c       7.79541
_cell_angle_alpha    90
_cell_angle_beta     90
_cell_angle_gamma    90

_space_group_name_H-M_alt    "P 1"
_space_group_IT_number       1

loop_
  _space_group_symop_operation_xyz
  'x, y, z'

loop_
  _atom_site_type_symbol
  _atom_site_label
  _atom_site_symmetry_multiplicity
  _atom_site_fract_x
  _atom_site_fract_y
  _atom_site_fract_z
  _atom_site_occupancy
  Co  Co1       1.0  0.55200  0.25000  0.07370  1.0000
  Co  Co2       1.0  0.05160  0.25000  0.42600  1.0000
  Co  Co3       1.0  0.94800  0.75000  0.57400  1.0000
  Co  Co4       1.0  0.44800  0.75000  0.92600  1.0000
  Ga  Ga1       1.0  0.50300  0.75000  0.22700  1.0000
  Ga  Ga2       1.0  0.00252  0.75000  0.27300  1.0000
  Ga  Ga3       1.0  0.99700  0.25000  0.72700  1.0000
  Ga  Ga4       1.0  0.49700  0.25000  0.77300  1.0000
  Sm  Sm1       1.0  0.21100  0.25000  0.07420  1.0000
  Sm  Sm2       1.0  0.71100  0.25000  0.42600  1.0000
  Sm  Sm3       1.0  0.28900  0.75000  0.57400  1.0000
  Sm  Sm4       1.0  0.78900  0.75000  0.92600  1.0000
