data_image0
_chemical_formula_structural       B6Co3Sm4
_chemical_formula_sum              "B6 Co3 Sm4"
_cell_length_a       5.32708
_cell_length_b       5.32709
_cell_length_c       8.10745
_cell_angle_alpha    70.8204
_cell_angle_beta     109.18
_cell_angle_gamma    120

_space_group_name_H-M_alt    "P 1"
_space_group_IT_number       1

loop_
  _space_group_symop_operation_xyz
  'x, y, z'

loop_
  _atom_site_type_symbol
  _atom_site_label
  _atom_site_symmetry_multiplicity
  _atom_site_fract_x
  _atom_site_fract_y
  _atom_site_fract_z
  _atom_site_occupancy
  B   B1        1.0  0.50000  0.16700  0.50000  1.0000
  B   B2        1.0  0.16700  0.16700  0.50000  1.0000
  B   B3        1.0  0.83300  0.50000  0.50000  1.0000
  B   B4        1.0  0.16700  0.50000  0.50000  1.0000
  B   B5        1.0  0.50000  0.83300  0.50000  1.0000
  B   B6        1.0  0.83300  0.83300  0.50000  1.0000
  Co  Co1       1.0  0.00000  0.00000  0.00000  1.0000
  Co  Co2       1.0  0.11400  0.88600  0.34200  1.0000
  Co  Co3       1.0  0.88600  0.11400  0.65800  1.0000
  Sm  Sm1       1.0  0.74400  0.25600  0.23200  1.0000
  Sm  Sm2       1.0  0.41100  0.58900  0.23200  1.0000
  Sm  Sm3       1.0  0.58900  0.41100  0.76800  1.0000
  Sm  Sm4       1.0  0.25600  0.74400  0.76800  1.0000
