data_image0
_chemical_formula_structural       Co7Nb6
_chemical_formula_sum              "Co7 Nb6"
_cell_length_a       4.85928
_cell_length_b       4.85928
_cell_length_c       9.1184
_cell_angle_alpha    105.453
_cell_angle_beta     74.5466
_cell_angle_gamma    120

_space_group_name_H-M_alt    "P 1"
_space_group_IT_number       1

loop_
  _space_group_symop_operation_xyz
  'x, y, z'

loop_
  _atom_site_type_symbol
  _atom_site_label
  _atom_site_symmetry_multiplicity
  _atom_site_fract_x
  _atom_site_fract_y
  _atom_site_fract_z
  _atom_site_occupancy
  Co  Co1       1.0  0.00000  0.00000  0.00000  1.0000
  Co  Co2       1.0  0.08990  0.40600  0.22700  1.0000
  Co  Co3       1.0  0.08990  0.91000  0.22700  1.0000
  Co  Co4       1.0  0.59400  0.91000  0.22700  1.0000
  Co  Co5       1.0  0.40600  0.08990  0.77300  1.0000
  Co  Co6       1.0  0.91000  0.08990  0.77300  1.0000
  Co  Co7       1.0  0.91000  0.59400  0.77300  1.0000
  Nb  Nb1       1.0  0.65600  0.34400  0.03160  1.0000
  Nb  Nb2       1.0  0.55100  0.44900  0.34700  1.0000
  Nb  Nb3       1.0  0.83500  0.16500  0.49500  1.0000
  Nb  Nb4       1.0  0.16500  0.83500  0.50500  1.0000
  Nb  Nb5       1.0  0.44900  0.55100  0.65300  1.0000
  Nb  Nb6       1.0  0.34400  0.65600  0.96800  1.0000
