data_image0
_chemical_formula_structural       B6Co2Mo6
_chemical_formula_sum              "B6 Co2 Mo6"
_cell_length_a       3.16672
_cell_length_b       4.52329
_cell_length_c       10.7833
_cell_angle_alpha    90
_cell_angle_beta     90
_cell_angle_gamma    69.5098

_space_group_name_H-M_alt    "P 1"
_space_group_IT_number       1

loop_
  _space_group_symop_operation_xyz
  'x, y, z'

loop_
  _atom_site_type_symbol
  _atom_site_label
  _atom_site_symmetry_multiplicity
  _atom_site_fract_x
  _atom_site_fract_y
  _atom_site_fract_z
  _atom_site_occupancy
  B   B1        1.0  0.91400  0.17300  0.10300  1.0000
  B   B2        1.0  0.79400  0.41200  0.25000  1.0000
  B   B3        1.0  0.91400  0.17300  0.39700  1.0000
  B   B4        1.0  0.08630  0.82700  0.60300  1.0000
  B   B5        1.0  0.20600  0.58800  0.75000  1.0000
  B   B6        1.0  0.08630  0.82700  0.89700  1.0000
  Co  Co1       1.0  0.50000  0.00000  0.00000  1.0000
  Co  Co2       1.0  0.50000  0.00000  0.50000  1.0000
  Mo  Mo1       1.0  0.21200  0.57600  0.10700  1.0000
  Mo  Mo2       1.0  0.49900  0.00177  0.25000  1.0000
  Mo  Mo3       1.0  0.21200  0.57600  0.39300  1.0000
  Mo  Mo4       1.0  0.78800  0.42400  0.60700  1.0000
  Mo  Mo5       1.0  0.50100  0.99800  0.75000  1.0000
  Mo  Mo6       1.0  0.78800  0.42400  0.89300  1.0000
