data_image0
_chemical_formula_structural       Al4I4La6
_chemical_formula_sum              "Al4 I4 La6"
_cell_length_a       4.35358
_cell_length_b       10.1835
_cell_length_c       11.3487
_cell_angle_alpha    104.684
_cell_angle_beta     101.058
_cell_angle_gamma    102.343

_space_group_name_H-M_alt    "P 1"
_space_group_IT_number       1

loop_
  _space_group_symop_operation_xyz
  'x, y, z'

loop_
  _atom_site_type_symbol
  _atom_site_label
  _atom_site_symmetry_multiplicity
  _atom_site_fract_x
  _atom_site_fract_y
  _atom_site_fract_z
  _atom_site_occupancy
  Al  Al1       1.0  0.07410  0.73300  0.41500  1.0000
  Al  Al2       1.0  0.54000  0.61300  0.46600  1.0000
  Al  Al3       1.0  0.46000  0.38700  0.53400  1.0000
  Al  Al4       1.0  0.92600  0.26700  0.58500  1.0000
  I   I1        1.0  0.20000  0.34200  0.05910  1.0000
  I   I2        1.0  0.59400  0.01700  0.17100  1.0000
  I   I3        1.0  0.40600  0.98300  0.82900  1.0000
  I   I4        1.0  0.80000  0.65800  0.94100  1.0000
  La  La1       1.0  0.44300  0.68800  0.19800  1.0000
  La  La2       1.0  0.84400  0.37800  0.30900  1.0000
  La  La3       1.0  0.22300  0.05310  0.39200  1.0000
  La  La4       1.0  0.77700  0.94700  0.60800  1.0000
  La  La5       1.0  0.15600  0.62200  0.69100  1.0000
  La  La6       1.0  0.55700  0.31200  0.80200  1.0000
