data_image0
_chemical_formula_structural       Co2Er4Si4
_chemical_formula_sum              "Co2 Er4 Si4"
_cell_length_a       4.11815
_cell_length_b       5.54308
_cell_length_c       8.92276
_cell_angle_alpha    97.0606
_cell_angle_beta     103.342
_cell_angle_gamma    68.1938

_space_group_name_H-M_alt    "P 1"
_space_group_IT_number       1

loop_
  _space_group_symop_operation_xyz
  'x, y, z'

loop_
  _atom_site_type_symbol
  _atom_site_label
  _atom_site_symmetry_multiplicity
  _atom_site_fract_x
  _atom_site_fract_y
  _atom_site_fract_z
  _atom_site_occupancy
  Co  Co1       1.0  0.72700  0.92000  0.37300  1.0000
  Co  Co2       1.0  0.27300  0.07990  0.62700  1.0000
  Er  Er1       1.0  0.18700  0.73400  0.10800  1.0000
  Er  Er2       1.0  0.00141  0.32600  0.32900  1.0000
  Er  Er3       1.0  0.99900  0.67400  0.67100  1.0000
  Er  Er4       1.0  0.81300  0.26600  0.89200  1.0000
  Si  Si1       1.0  0.49200  0.14000  0.12400  1.0000
  Si  Si2       1.0  0.35100  0.73200  0.43500  1.0000
  Si  Si3       1.0  0.64900  0.26800  0.56500  1.0000
  Si  Si4       1.0  0.50800  0.86000  0.87600  1.0000
