data_image0
_chemical_formula_structural       CoLa2MnO6
_chemical_formula_sum              "Co1 La2 Mn1 O6"
_cell_length_a       5.45596
_cell_length_b       5.45596
_cell_length_c       5.45596
_cell_angle_alpha    60.8916
_cell_angle_beta     60.8917
_cell_angle_gamma    60.8917

_space_group_name_H-M_alt    "P 1"
_space_group_IT_number       1

loop_
  _space_group_symop_operation_xyz
  'x, y, z'

loop_
  _atom_site_type_symbol
  _atom_site_label
  _atom_site_symmetry_multiplicity
  _atom_site_fract_x
  _atom_site_fract_y
  _atom_site_fract_z
  _atom_site_occupancy
  Co  Co1       1.0  0.00000  0.00000  0.00000  1.0000
  La  La1       1.0  0.25100  0.25100  0.25100  1.0000
  La  La2       1.0  0.74900  0.74900  0.74900  1.0000
  Mn  Mn1       1.0  0.50000  0.50000  0.50000  1.0000
  O   O1        1.0  0.32200  0.74200  0.19100  1.0000
  O   O2        1.0  0.80900  0.67800  0.25800  1.0000
  O   O3        1.0  0.74200  0.19100  0.32200  1.0000
  O   O4        1.0  0.25800  0.80900  0.67800  1.0000
  O   O5        1.0  0.19100  0.32200  0.74200  1.0000
  O   O6        1.0  0.67800  0.25800  0.80900  1.0000
