data_image0
_chemical_formula_structural       Si6Ti10
_chemical_formula_sum              "Si6 Ti10"
_cell_length_a       7.46448
_cell_length_b       7.46448
_cell_length_c       5.10461
_cell_angle_alpha    90
_cell_angle_beta     90
_cell_angle_gamma    119.988

_space_group_name_H-M_alt    "P 1"
_space_group_IT_number       1

loop_
  _space_group_symop_operation_xyz
  'x, y, z'

loop_
  _atom_site_type_symbol
  _atom_site_label
  _atom_site_symmetry_multiplicity
  _atom_site_fract_x
  _atom_site_fract_y
  _atom_site_fract_z
  _atom_site_occupancy
  Si  Si1       1.0  0.60800  0.00000  0.25000  1.0000
  Si  Si2       1.0  0.39200  0.39200  0.25000  1.0000
  Si  Si3       1.0  0.00000  0.60800  0.25000  1.0000
  Si  Si4       1.0  0.39200  0.00000  0.75000  1.0000
  Si  Si5       1.0  0.00000  0.39200  0.75000  1.0000
  Si  Si6       1.0  0.60800  0.60800  0.75000  1.0000
  Ti  Ti1       1.0  0.66700  0.33300  0.00000  1.0000
  Ti  Ti2       1.0  0.33300  0.66700  0.00000  1.0000
  Ti  Ti3       1.0  0.25000  0.00000  0.25000  1.0000
  Ti  Ti4       1.0  0.00000  0.25000  0.25000  1.0000
  Ti  Ti5       1.0  0.75000  0.75000  0.25000  1.0000
  Ti  Ti6       1.0  0.66700  0.33300  0.50000  1.0000
  Ti  Ti7       1.0  0.33300  0.66700  0.50000  1.0000
  Ti  Ti8       1.0  0.75000  0.00000  0.75000  1.0000
  Ti  Ti9       1.0  0.00000  0.75000  0.75000  1.0000
  Ti  Ti10      1.0  0.25000  0.25000  0.75000  1.0000
