data_image0
_chemical_formula_structural       Co2Ge2U
_chemical_formula_sum              "Co2 Ge2 U1"
_cell_length_a       4.01682
_cell_length_b       4.01682
_cell_length_c       5.66998
_cell_angle_alpha    110.746
_cell_angle_beta     110.746
_cell_angle_gamma    90

_space_group_name_H-M_alt    "P 1"
_space_group_IT_number       1

loop_
  _space_group_symop_operation_xyz
  'x, y, z'

loop_
  _atom_site_type_symbol
  _atom_site_label
  _atom_site_symmetry_multiplicity
  _atom_site_fract_x
  _atom_site_fract_y
  _atom_site_fract_z
  _atom_site_occupancy
  Co  Co1       1.0  0.75000  0.25000  0.50000  1.0000
  Co  Co2       1.0  0.25000  0.75000  0.50000  1.0000
  Ge  Ge1       1.0  0.62800  0.62800  0.25600  1.0000
  Ge  Ge2       1.0  0.37200  0.37200  0.74400  1.0000
  U   U1        1.0  0.00000  0.00000  0.00000  1.0000
