data_image0
_chemical_formula_structural       Co6La4
_chemical_formula_sum              "Co6 La4"
_cell_length_a       4.78596
_cell_length_b       5.64056
_cell_length_c       7.76657
_cell_angle_alpha    90
_cell_angle_beta     90
_cell_angle_gamma    64.8971

_space_group_name_H-M_alt    "P 1"
_space_group_IT_number       1

loop_
  _space_group_symop_operation_xyz
  'x, y, z'

loop_
  _atom_site_type_symbol
  _atom_site_label
  _atom_site_symmetry_multiplicity
  _atom_site_fract_x
  _atom_site_fract_y
  _atom_site_fract_z
  _atom_site_occupancy
  Co  Co1       1.0  0.00000  0.00000  0.00000  1.0000
  Co  Co2       1.0  0.33800  0.82300  0.25000  1.0000
  Co  Co3       1.0  0.83800  0.82300  0.25000  1.0000
  Co  Co4       1.0  0.50000  0.00000  0.50000  1.0000
  Co  Co5       1.0  0.16200  0.17700  0.75000  1.0000
  Co  Co6       1.0  0.66200  0.17700  0.75000  1.0000
  La  La1       1.0  0.34900  0.30200  0.08920  1.0000
  La  La2       1.0  0.84900  0.30200  0.41100  1.0000
  La  La3       1.0  0.15100  0.69800  0.58900  1.0000
  La  La4       1.0  0.65100  0.69800  0.91100  1.0000
