data_image0
_chemical_formula_structural       Co6Ga2Gd6
_chemical_formula_sum              "Co6 Ga2 Gd6"
_cell_length_a       4.13217
_cell_length_b       5.41863
_cell_length_c       12.9029
_cell_angle_alpha    90
_cell_angle_beta     90
_cell_angle_gamma    67.5862

_space_group_name_H-M_alt    "P 1"
_space_group_IT_number       1

loop_
  _space_group_symop_operation_xyz
  'x, y, z'

loop_
  _atom_site_type_symbol
  _atom_site_label
  _atom_site_symmetry_multiplicity
  _atom_site_fract_x
  _atom_site_fract_y
  _atom_site_fract_z
  _atom_site_occupancy
  Co  Co1       1.0  0.91600  0.16800  0.09550  1.0000
  Co  Co2       1.0  0.79800  0.40500  0.25000  1.0000
  Co  Co3       1.0  0.91600  0.16800  0.40500  1.0000
  Co  Co4       1.0  0.08410  0.83200  0.59500  1.0000
  Co  Co5       1.0  0.20200  0.59500  0.75000  1.0000
  Co  Co6       1.0  0.08410  0.83200  0.90500  1.0000
  Ga  Ga1       1.0  0.50000  0.00000  0.00000  1.0000
  Ga  Ga2       1.0  0.50000  0.00000  0.50000  1.0000
  Gd  Gd1       1.0  0.20600  0.58900  0.10300  1.0000
  Gd  Gd2       1.0  0.49500  0.00938  0.25000  1.0000
  Gd  Gd3       1.0  0.20600  0.58900  0.39700  1.0000
  Gd  Gd4       1.0  0.79400  0.41100  0.60300  1.0000
  Gd  Gd5       1.0  0.50500  0.99100  0.75000  1.0000
  Gd  Gd6       1.0  0.79400  0.41100  0.89700  1.0000
