data_image0
_chemical_formula_structural       Co2O8Se2
_chemical_formula_sum              "Co2 O8 Se2"
_cell_length_a       4.86531
_cell_length_b       4.86531
_cell_length_c       6.48465
_cell_angle_alpha    90
_cell_angle_beta     90
_cell_angle_gamma    111.89

_space_group_name_H-M_alt    "P 1"
_space_group_IT_number       1

loop_
  _space_group_symop_operation_xyz
  'x, y, z'

loop_
  _atom_site_type_symbol
  _atom_site_label
  _atom_site_symmetry_multiplicity
  _atom_site_fract_x
  _atom_site_fract_y
  _atom_site_fract_z
  _atom_site_occupancy
  Co  Co1       1.0  0.00000  0.00000  0.00000  1.0000
  Co  Co2       1.0  0.00000  0.00000  0.50000  1.0000
  O   O1        1.0  0.24700  0.75300  0.03140  1.0000
  O   O2        1.0  0.22800  0.27100  0.25000  1.0000
  O   O3        1.0  0.72900  0.77200  0.25000  1.0000
  O   O4        1.0  0.24700  0.75300  0.46900  1.0000
  O   O5        1.0  0.75300  0.24700  0.53100  1.0000
  O   O6        1.0  0.27100  0.22800  0.75000  1.0000
  O   O7        1.0  0.77200  0.72900  0.75000  1.0000
  O   O8        1.0  0.75300  0.24700  0.96900  1.0000
  Se  Se1       1.0  0.35400  0.64600  0.25000  1.0000
  Se  Se2       1.0  0.64600  0.35400  0.75000  1.0000
