data_image0
_chemical_formula_structural       Co6Dy3Sn5
_chemical_formula_sum              "Co6 Dy3 Sn5"
_cell_length_a       4.31251
_cell_length_b       8.10547
_cell_length_c       8.10547
_cell_angle_alpha    98.9339
_cell_angle_beta     105.428
_cell_angle_gamma    105.428

_space_group_name_H-M_alt    "P 1"
_space_group_IT_number       1

loop_
  _space_group_symop_operation_xyz
  'x, y, z'

loop_
  _atom_site_type_symbol
  _atom_site_label
  _atom_site_symmetry_multiplicity
  _atom_site_fract_x
  _atom_site_fract_y
  _atom_site_fract_z
  _atom_site_occupancy
  Co  Co1       1.0  0.27300  0.38100  0.16600  1.0000
  Co  Co2       1.0  0.80400  0.30400  0.30400  1.0000
  Co  Co3       1.0  0.27300  0.16600  0.38100  1.0000
  Co  Co4       1.0  0.72700  0.83400  0.61900  1.0000
  Co  Co5       1.0  0.19600  0.69600  0.69600  1.0000
  Co  Co6       1.0  0.72700  0.61900  0.83400  1.0000
  Dy  Dy1       1.0  0.00000  0.00000  0.00000  1.0000
  Dy  Dy2       1.0  0.00000  0.68200  0.31800  1.0000
  Dy  Dy3       1.0  0.00000  0.31800  0.68200  1.0000
  Sn  Sn1       1.0  0.34100  0.66400  0.01790  1.0000
  Sn  Sn2       1.0  0.65900  0.98200  0.33600  1.0000
  Sn  Sn3       1.0  0.50000  0.50000  0.50000  1.0000
  Sn  Sn4       1.0  0.34100  0.01790  0.66400  1.0000
  Sn  Sn5       1.0  0.65900  0.33600  0.98200  1.0000
