data_image0
_chemical_formula_structural       Co2Ge4Ho4
_chemical_formula_sum              "Co2 Ge4 Ho4"
_cell_length_a       4.17916
_cell_length_b       5.59882
_cell_length_c       9.25774
_cell_angle_alpha    92.0201
_cell_angle_beta     103.045
_cell_angle_gamma    68.0858

_space_group_name_H-M_alt    "P 1"
_space_group_IT_number       1

loop_
  _space_group_symop_operation_xyz
  'x, y, z'

loop_
  _atom_site_type_symbol
  _atom_site_label
  _atom_site_symmetry_multiplicity
  _atom_site_fract_x
  _atom_site_fract_y
  _atom_site_fract_z
  _atom_site_occupancy
  Co  Co1       1.0  0.62400  0.09910  0.34700  1.0000
  Co  Co2       1.0  0.37600  0.90100  0.65300  1.0000
  Ge  Ge1       1.0  0.63900  0.84400  0.12300  1.0000
  Ge  Ge2       1.0  0.09430  0.24900  0.43800  1.0000
  Ge  Ge3       1.0  0.90600  0.75100  0.56200  1.0000
  Ge  Ge4       1.0  0.36100  0.15600  0.87700  1.0000
  Ho  Ho1       1.0  0.92900  0.25800  0.11500  1.0000
  Ho  Ho2       1.0  0.32800  0.67600  0.33300  1.0000
  Ho  Ho3       1.0  0.67200  0.32400  0.66700  1.0000
  Ho  Ho4       1.0  0.07140  0.74200  0.88500  1.0000
