data_image0
_chemical_formula_structural       Co2H8Th2
_chemical_formula_sum              "Co2 H8 Th2"
_cell_length_a       3.85783
_cell_length_b       4.70522
_cell_length_c       6.17446
_cell_angle_alpha    90
_cell_angle_beta     71.7959
_cell_angle_gamma    90

_space_group_name_H-M_alt    "P 1"
_space_group_IT_number       1

loop_
  _space_group_symop_operation_xyz
  'x, y, z'

loop_
  _atom_site_type_symbol
  _atom_site_label
  _atom_site_symmetry_multiplicity
  _atom_site_fract_x
  _atom_site_fract_y
  _atom_site_fract_z
  _atom_site_occupancy
  Co  Co1       1.0  0.40300  0.75000  0.19400  1.0000
  Co  Co2       1.0  0.59700  0.25000  0.80600  1.0000
  H   H1        1.0  0.50000  0.00000  0.00000  1.0000
  H   H2        1.0  0.50000  0.50000  0.00000  1.0000
  H   H3        1.0  0.91300  0.75000  0.17400  1.0000
  H   H4        1.0  0.30600  0.00268  0.38800  1.0000
  H   H5        1.0  0.30600  0.49700  0.38800  1.0000
  H   H6        1.0  0.69400  0.50300  0.61200  1.0000
  H   H7        1.0  0.69400  0.99700  0.61200  1.0000
  H   H8        1.0  0.08700  0.25000  0.82600  1.0000
  Th  Th1       1.0  0.86900  0.25000  0.26200  1.0000
  Th  Th2       1.0  0.13100  0.75000  0.73800  1.0000
