data_image0
_chemical_formula_structural       Co2Er6Si6
_chemical_formula_sum              "Co2 Er6 Si6"
_cell_length_a       4.13647
_cell_length_b       5.57517
_cell_length_c       12.6356
_cell_angle_alpha    95.1336
_cell_angle_beta     99.4208
_cell_angle_gamma    68.2244

_space_group_name_H-M_alt    "P 1"
_space_group_IT_number       1

loop_
  _space_group_symop_operation_xyz
  'x, y, z'

loop_
  _atom_site_type_symbol
  _atom_site_label
  _atom_site_symmetry_multiplicity
  _atom_site_fract_x
  _atom_site_fract_y
  _atom_site_fract_z
  _atom_site_occupancy
  Co  Co1       1.0  0.24700  0.92200  0.41700  1.0000
  Co  Co2       1.0  0.75300  0.07770  0.58300  1.0000
  Er  Er1       1.0  0.39900  0.28300  0.08020  1.0000
  Er  Er2       1.0  0.74700  0.73500  0.22900  1.0000
  Er  Er3       1.0  0.52600  0.32800  0.37900  1.0000
  Er  Er4       1.0  0.47400  0.67200  0.62100  1.0000
  Er  Er5       1.0  0.25300  0.26500  0.77100  1.0000
  Er  Er6       1.0  0.60100  0.71700  0.92000  1.0000
  Si  Si1       1.0  0.11500  0.84500  0.07580  1.0000
  Si  Si2       1.0  0.05140  0.13800  0.24100  1.0000
  Si  Si3       1.0  0.86100  0.73400  0.45600  1.0000
  Si  Si4       1.0  0.13900  0.26600  0.54400  1.0000
  Si  Si5       1.0  0.94900  0.86200  0.75900  1.0000
  Si  Si6       1.0  0.88500  0.15500  0.92400  1.0000
