data_image0
_chemical_formula_structural       Co4P12
_chemical_formula_sum              "Co4 P12"
_cell_length_a       6.66917
_cell_length_b       6.66917
_cell_length_c       6.66917
_cell_angle_alpha    109.471
_cell_angle_beta     109.471
_cell_angle_gamma    109.471

_space_group_name_H-M_alt    "P 1"
_space_group_IT_number       1

loop_
  _space_group_symop_operation_xyz
  'x, y, z'

loop_
  _atom_site_type_symbol
  _atom_site_label
  _atom_site_symmetry_multiplicity
  _atom_site_fract_x
  _atom_site_fract_y
  _atom_site_fract_z
  _atom_site_occupancy
  Co  Co1       1.0  0.50000  0.00000  0.00000  1.0000
  Co  Co2       1.0  0.00000  0.50000  0.00000  1.0000
  Co  Co3       1.0  0.00000  0.00000  0.50000  1.0000
  Co  Co4       1.0  0.50000  0.50000  0.50000  1.0000
  P   P1        1.0  0.34800  0.49400  0.14600  1.0000
  P   P2        1.0  0.65200  0.79800  0.14600  1.0000
  P   P3        1.0  0.85400  0.34800  0.20200  1.0000
  P   P4        1.0  0.20200  0.85400  0.34800  1.0000
  P   P5        1.0  0.49400  0.14600  0.34800  1.0000
  P   P6        1.0  0.14600  0.34800  0.49400  1.0000
  P   P7        1.0  0.85400  0.65200  0.50600  1.0000
  P   P8        1.0  0.50600  0.85400  0.65200  1.0000
  P   P9        1.0  0.79800  0.14600  0.65200  1.0000
  P   P10       1.0  0.14600  0.65200  0.79800  1.0000
  P   P11       1.0  0.34800  0.20200  0.85400  1.0000
  P   P12       1.0  0.65200  0.50600  0.85400  1.0000
