data_image0
_chemical_formula_structural       Co3Cs3F9
_chemical_formula_sum              "Co3 Cs3 F9"
_cell_length_a       6.03405
_cell_length_b       6.03405
_cell_length_c       8.04877
_cell_angle_alpha    67.9854
_cell_angle_beta     112.015
_cell_angle_gamma    120

_space_group_name_H-M_alt    "P 1"
_space_group_IT_number       1

loop_
  _space_group_symop_operation_xyz
  'x, y, z'

loop_
  _atom_site_type_symbol
  _atom_site_label
  _atom_site_symmetry_multiplicity
  _atom_site_fract_x
  _atom_site_fract_y
  _atom_site_fract_z
  _atom_site_occupancy
  Co  Co1       1.0  0.38100  0.61900  0.14200  1.0000
  Co  Co2       1.0  0.50000  0.50000  0.50000  1.0000
  Co  Co3       1.0  0.61900  0.38100  0.85800  1.0000
  Cs  Cs1       1.0  0.00000  0.00000  0.00000  1.0000
  Cs  Cs2       1.0  0.78500  0.21500  0.35500  1.0000
  Cs  Cs3       1.0  0.21500  0.78500  0.64500  1.0000
  F   F1        1.0  0.50000  0.00000  0.00000  1.0000
  F   F2        1.0  0.50000  0.50000  0.00000  1.0000
  F   F3        1.0  0.00000  0.50000  0.00000  1.0000
  F   F4        1.0  0.29000  0.25500  0.32400  1.0000
  F   F5        1.0  0.29000  0.71000  0.32400  1.0000
  F   F6        1.0  0.74500  0.71000  0.32400  1.0000
  F   F7        1.0  0.71000  0.29000  0.67600  1.0000
  F   F8        1.0  0.25500  0.29000  0.67600  1.0000
  F   F9        1.0  0.71000  0.74500  0.67600  1.0000
