data_image0
_chemical_formula_structural       Co4Sc6Si6
_chemical_formula_sum              "Co4 Sc6 Si6"
_cell_length_a       3.92553
_cell_length_b       5.32091
_cell_length_c       12.7874
_cell_angle_alpha    90
_cell_angle_beta     90
_cell_angle_gamma    68.3536

_space_group_name_H-M_alt    "P 1"
_space_group_IT_number       1

loop_
  _space_group_symop_operation_xyz
  'x, y, z'

loop_
  _atom_site_type_symbol
  _atom_site_label
  _atom_site_symmetry_multiplicity
  _atom_site_fract_x
  _atom_site_fract_y
  _atom_site_fract_z
  _atom_site_occupancy
  Co  Co1       1.0  0.71500  0.57000  0.08360  1.0000
  Co  Co2       1.0  0.71500  0.57000  0.41600  1.0000
  Co  Co3       1.0  0.28500  0.43000  0.58400  1.0000
  Co  Co4       1.0  0.28500  0.43000  0.91600  1.0000
  Sc  Sc1       1.0  0.42000  0.15900  0.11300  1.0000
  Sc  Sc2       1.0  0.14200  0.71500  0.25000  1.0000
  Sc  Sc3       1.0  0.42000  0.15900  0.38700  1.0000
  Sc  Sc4       1.0  0.58000  0.84100  0.61300  1.0000
  Sc  Sc5       1.0  0.85800  0.28500  0.75000  1.0000
  Sc  Sc6       1.0  0.58000  0.84100  0.88700  1.0000
  Si  Si1       1.0  0.11400  0.77300  0.04080  1.0000
  Si  Si2       1.0  0.83700  0.32700  0.25000  1.0000
  Si  Si3       1.0  0.11400  0.77300  0.45900  1.0000
  Si  Si4       1.0  0.88600  0.22700  0.54100  1.0000
  Si  Si5       1.0  0.16300  0.67300  0.75000  1.0000
  Si  Si6       1.0  0.88600  0.22700  0.95900  1.0000
