data_image0
_chemical_formula_structural       C4Co2Nd2
_chemical_formula_sum              "C4 Co2 Nd2"
_cell_length_a       3.79173
_cell_length_b       3.79173
_cell_length_c       7.39076
_cell_angle_alpha    98.2132
_cell_angle_beta     98.2132
_cell_angle_gamma    90.0621

_space_group_name_H-M_alt    "P 1"
_space_group_IT_number       1

loop_
  _space_group_symop_operation_xyz
  'x, y, z'

loop_
  _atom_site_type_symbol
  _atom_site_label
  _atom_site_symmetry_multiplicity
  _atom_site_fract_x
  _atom_site_fract_y
  _atom_site_fract_z
  _atom_site_occupancy
  C   C1        1.0  0.59500  0.44200  0.07550  1.0000
  C   C2        1.0  0.85300  0.49000  0.22900  1.0000
  C   C3        1.0  0.44200  0.59500  0.57600  1.0000
  C   C4        1.0  0.49000  0.85300  0.72900  1.0000
  Co  Co1       1.0  0.37300  0.51200  0.30800  1.0000
  Co  Co2       1.0  0.51200  0.37300  0.80800  1.0000
  Nd  Nd1       1.0  0.07260  0.92700  0.00113  1.0000
  Nd  Nd2       1.0  0.92700  0.07260  0.50100  1.0000
