data_image0
_chemical_formula_structural       Co2Ge4Sm4
_chemical_formula_sum              "Co2 Ge4 Sm4"
_cell_length_a       4.26844
_cell_length_b       5.79908
_cell_length_c       9.36828
_cell_angle_alpha    92.5116
_cell_angle_beta     103.168
_cell_angle_gamma    68.406

_space_group_name_H-M_alt    "P 1"
_space_group_IT_number       1

loop_
  _space_group_symop_operation_xyz
  'x, y, z'

loop_
  _atom_site_type_symbol
  _atom_site_label
  _atom_site_symmetry_multiplicity
  _atom_site_fract_x
  _atom_site_fract_y
  _atom_site_fract_z
  _atom_site_occupancy
  Co  Co1       1.0  0.64000  0.08420  0.36500  1.0000
  Co  Co2       1.0  0.36000  0.91600  0.63500  1.0000
  Ge  Ge1       1.0  0.63500  0.85600  0.12600  1.0000
  Ge  Ge2       1.0  0.09110  0.25100  0.43300  1.0000
  Ge  Ge3       1.0  0.90900  0.74900  0.56700  1.0000
  Ge  Ge4       1.0  0.36500  0.14400  0.87400  1.0000
  Sm  Sm1       1.0  0.92300  0.26400  0.11000  1.0000
  Sm  Sm2       1.0  0.32800  0.67600  0.33200  1.0000
  Sm  Sm3       1.0  0.67200  0.32400  0.66800  1.0000
  Sm  Sm4       1.0  0.07700  0.73600  0.89000  1.0000
