data_image0
_chemical_formula_structural       Ge6Hf10
_chemical_formula_sum              "Ge6 Hf10"
_cell_length_a       7.98168
_cell_length_b       7.98167
_cell_length_c       5.55133
_cell_angle_alpha    90
_cell_angle_beta     90
_cell_angle_gamma    120

_space_group_name_H-M_alt    "P 1"
_space_group_IT_number       1

loop_
  _space_group_symop_operation_xyz
  'x, y, z'

loop_
  _atom_site_type_symbol
  _atom_site_label
  _atom_site_symmetry_multiplicity
  _atom_site_fract_x
  _atom_site_fract_y
  _atom_site_fract_z
  _atom_site_occupancy
  Ge  Ge1       1.0  0.61000  0.00000  0.25000  1.0000
  Ge  Ge2       1.0  0.00000  0.61000  0.25000  1.0000
  Ge  Ge3       1.0  0.39000  0.39000  0.25000  1.0000
  Ge  Ge4       1.0  0.39000  0.00000  0.75000  1.0000
  Ge  Ge5       1.0  0.00000  0.39000  0.75000  1.0000
  Ge  Ge6       1.0  0.61000  0.61000  0.75000  1.0000
  Hf  Hf1       1.0  0.66700  0.33300  0.00000  1.0000
  Hf  Hf2       1.0  0.33300  0.66700  0.00000  1.0000
  Hf  Hf3       1.0  0.25200  0.00000  0.25000  1.0000
  Hf  Hf4       1.0  0.00000  0.25200  0.25000  1.0000
  Hf  Hf5       1.0  0.74800  0.74800  0.25000  1.0000
  Hf  Hf6       1.0  0.66700  0.33300  0.50000  1.0000
  Hf  Hf7       1.0  0.33300  0.66700  0.50000  1.0000
  Hf  Hf8       1.0  0.74800  0.00000  0.75000  1.0000
  Hf  Hf9       1.0  0.00000  0.74800  0.75000  1.0000
  Hf  Hf10      1.0  0.25200  0.25200  0.75000  1.0000
