data_image0
_chemical_formula_structural       Co2Ge4Tm4
_chemical_formula_sum              "Co2 Ge4 Tm4"
_cell_length_a       4.15814
_cell_length_b       5.53938
_cell_length_c       9.19534
_cell_angle_alpha    91.9017
_cell_angle_beta     103.068
_cell_angle_gamma    67.9556

_space_group_name_H-M_alt    "P 1"
_space_group_IT_number       1

loop_
  _space_group_symop_operation_xyz
  'x, y, z'

loop_
  _atom_site_type_symbol
  _atom_site_label
  _atom_site_symmetry_multiplicity
  _atom_site_fract_x
  _atom_site_fract_y
  _atom_site_fract_z
  _atom_site_occupancy
  Co  Co1       1.0  0.62000  0.10500  0.34500  1.0000
  Co  Co2       1.0  0.38000  0.89500  0.65500  1.0000
  Ge  Ge1       1.0  0.63900  0.84400  0.12200  1.0000
  Ge  Ge2       1.0  0.09480  0.24900  0.43900  1.0000
  Ge  Ge3       1.0  0.90500  0.75100  0.56100  1.0000
  Ge  Ge4       1.0  0.36100  0.15600  0.87800  1.0000
  Tm  Tm1       1.0  0.92800  0.26000  0.11600  1.0000
  Tm  Tm2       1.0  0.32700  0.67800  0.33300  1.0000
  Tm  Tm3       1.0  0.67300  0.32200  0.66700  1.0000
  Tm  Tm4       1.0  0.07220  0.74000  0.88400  1.0000
