data_image0
_chemical_formula_structural       Co2Gd4Ge4
_chemical_formula_sum              "Co2 Gd4 Ge4"
_cell_length_a       4.21524
_cell_length_b       5.7105
_cell_length_c       9.30593
_cell_angle_alpha    92.3132
_cell_angle_beta     103.09
_cell_angle_gamma    68.3412

_space_group_name_H-M_alt    "P 1"
_space_group_IT_number       1

loop_
  _space_group_symop_operation_xyz
  'x, y, z'

loop_
  _atom_site_type_symbol
  _atom_site_label
  _atom_site_symmetry_multiplicity
  _atom_site_fract_x
  _atom_site_fract_y
  _atom_site_fract_z
  _atom_site_occupancy
  Co  Co1       1.0  0.63300  0.08980  0.35600  1.0000
  Co  Co2       1.0  0.36700  0.91000  0.64400  1.0000
  Gd  Gd1       1.0  0.92700  0.25900  0.11300  1.0000
  Gd  Gd2       1.0  0.32800  0.67600  0.33300  1.0000
  Gd  Gd3       1.0  0.67200  0.32400  0.66700  1.0000
  Gd  Gd4       1.0  0.07300  0.74100  0.88700  1.0000
  Ge  Ge1       1.0  0.63800  0.84800  0.12500  1.0000
  Ge  Ge2       1.0  0.09260  0.25000  0.43500  1.0000
  Ge  Ge3       1.0  0.90700  0.75000  0.56500  1.0000
  Ge  Ge4       1.0  0.36200  0.15200  0.87500  1.0000
