data_image0
_chemical_formula_structural       As2BaCo2O8
_chemical_formula_sum              "As2 Ba1 Co2 O8"
_cell_length_a       5.00954
_cell_length_b       5.00954
_cell_length_c       8.2708
_cell_angle_alpha    72.3719
_cell_angle_beta     107.629
_cell_angle_gamma    120

_space_group_name_H-M_alt    "P 1"
_space_group_IT_number       1

loop_
  _space_group_symop_operation_xyz
  'x, y, z'

loop_
  _atom_site_type_symbol
  _atom_site_label
  _atom_site_symmetry_multiplicity
  _atom_site_fract_x
  _atom_site_fract_y
  _atom_site_fract_z
  _atom_site_occupancy
  As  As1       1.0  0.42400  0.57600  0.27300  1.0000
  As  As2       1.0  0.57600  0.42400  0.72700  1.0000
  Ba  Ba1       1.0  0.00000  0.00000  0.00000  1.0000
  Co  Co1       1.0  0.83000  0.17000  0.49000  1.0000
  Co  Co2       1.0  0.17000  0.83000  0.51000  1.0000
  O   O1        1.0  0.35200  0.64800  0.05590  1.0000
  O   O2        1.0  0.43500  0.21600  0.34200  1.0000
  O   O3        1.0  0.78400  0.87700  0.34200  1.0000
  O   O4        1.0  0.12300  0.56500  0.34200  1.0000
  O   O5        1.0  0.87700  0.43500  0.65800  1.0000
  O   O6        1.0  0.21600  0.12300  0.65800  1.0000
  O   O7        1.0  0.56500  0.78400  0.65800  1.0000
  O   O8        1.0  0.64800  0.35200  0.94400  1.0000
