data_image0
_chemical_formula_structural       Co4Nb4Te8
_chemical_formula_sum              "Co4 Nb4 Te8"
_cell_length_a       8.27462
_cell_length_b       8.27462
_cell_length_c       6.31262
_cell_angle_alpha    90
_cell_angle_beta     90
_cell_angle_gamma    56.2647

_space_group_name_H-M_alt    "P 1"
_space_group_IT_number       1

loop_
  _space_group_symop_operation_xyz
  'x, y, z'

loop_
  _atom_site_type_symbol
  _atom_site_label
  _atom_site_symmetry_multiplicity
  _atom_site_fract_x
  _atom_site_fract_y
  _atom_site_fract_z
  _atom_site_occupancy
  Co  Co1       1.0  0.44000  0.44000  0.14400  1.0000
  Co  Co2       1.0  0.05950  0.05950  0.64400  1.0000
  Co  Co3       1.0  0.56000  0.56000  0.85600  1.0000
  Co  Co4       1.0  0.94000  0.94000  0.35600  1.0000
  Nb  Nb1       1.0  0.79300  0.20700  0.00000  1.0000
  Nb  Nb2       1.0  0.70700  0.29300  0.50000  1.0000
  Nb  Nb3       1.0  0.20700  0.79300  0.00000  1.0000
  Nb  Nb4       1.0  0.29300  0.70700  0.50000  1.0000
  Te  Te1       1.0  0.58800  0.08830  0.25000  1.0000
  Te  Te2       1.0  0.91200  0.41200  0.75000  1.0000
  Te  Te3       1.0  0.41200  0.91200  0.75000  1.0000
  Te  Te4       1.0  0.08830  0.58800  0.25000  1.0000
  Te  Te5       1.0  0.11300  0.11300  0.25600  1.0000
  Te  Te6       1.0  0.38700  0.38700  0.75600  1.0000
  Te  Te7       1.0  0.88700  0.88700  0.74400  1.0000
  Te  Te8       1.0  0.61300  0.61300  0.24400  1.0000
