data_image0
_chemical_formula_structural       Bi8I4Ru2
_chemical_formula_sum              "Bi8 I4 Ru2"
_cell_length_a       6.80241
_cell_length_b       9.10142
_cell_length_c       9.10142
_cell_angle_alpha    98.0277
_cell_angle_beta     68.056
_cell_angle_gamma    111.944

_space_group_name_H-M_alt    "P 1"
_space_group_IT_number       1

loop_
  _space_group_symop_operation_xyz
  'x, y, z'

loop_
  _atom_site_type_symbol
  _atom_site_label
  _atom_site_symmetry_multiplicity
  _atom_site_fract_x
  _atom_site_fract_y
  _atom_site_fract_z
  _atom_site_occupancy
  Bi  Bi1       1.0  0.59200  0.27000  0.08690  1.0000
  Bi  Bi2       1.0  0.83200  0.76700  0.10200  1.0000
  Bi  Bi3       1.0  0.93400  0.10200  0.23300  1.0000
  Bi  Bi4       1.0  0.32200  0.91300  0.27000  1.0000
  Bi  Bi5       1.0  0.67800  0.08690  0.73000  1.0000
  Bi  Bi6       1.0  0.06560  0.89800  0.76700  1.0000
  Bi  Bi7       1.0  0.16800  0.23300  0.89800  1.0000
  Bi  Bi8       1.0  0.40800  0.73000  0.91300  1.0000
  I   I1        1.0  0.14400  0.53600  0.24700  1.0000
  I   I2        1.0  0.39100  0.24700  0.46400  1.0000
  I   I3        1.0  0.60900  0.75300  0.53600  1.0000
  I   I4        1.0  0.85600  0.46400  0.75300  1.0000
  Ru  Ru1       1.0  0.29000  0.00000  0.00000  1.0000
  Ru  Ru2       1.0  0.71000  0.00000  0.00000  1.0000
