data_image0
_chemical_formula_structural       Mo6S8U
_chemical_formula_sum              "Mo6 S8 U1"
_cell_length_a       6.45301
_cell_length_b       6.45301
_cell_length_c       6.45301
_cell_angle_alpha    88.7649
_cell_angle_beta     88.7649
_cell_angle_gamma    88.7649

_space_group_name_H-M_alt    "P 1"
_space_group_IT_number       1

loop_
  _space_group_symop_operation_xyz
  'x, y, z'

loop_
  _atom_site_type_symbol
  _atom_site_label
  _atom_site_symmetry_multiplicity
  _atom_site_fract_x
  _atom_site_fract_y
  _atom_site_fract_z
  _atom_site_occupancy
  Mo  Mo1       1.0  0.42100  0.56300  0.22200  1.0000
  Mo  Mo2       1.0  0.56300  0.22200  0.42100  1.0000
  Mo  Mo3       1.0  0.77800  0.57900  0.43700  1.0000
  Mo  Mo4       1.0  0.22200  0.42100  0.56300  1.0000
  Mo  Mo5       1.0  0.43700  0.77800  0.57900  1.0000
  Mo  Mo6       1.0  0.57900  0.43700  0.77800  1.0000
  S   S1        1.0  0.75800  0.36700  0.12700  1.0000
  S   S2        1.0  0.23900  0.23900  0.23900  1.0000
  S   S3        1.0  0.63300  0.87300  0.24200  1.0000
  S   S4        1.0  0.12700  0.75800  0.36700  1.0000
  S   S5        1.0  0.87300  0.24200  0.63300  1.0000
  S   S6        1.0  0.36700  0.12700  0.75800  1.0000
  S   S7        1.0  0.76100  0.76100  0.76100  1.0000
  S   S8        1.0  0.24200  0.63300  0.87300  1.0000
  U   U1        1.0  0.00000  0.00000  0.00000  1.0000
