data_image0
_chemical_formula_structural       Cu2P4U2
_chemical_formula_sum              "Cu2 P4 U2"
_cell_length_a       3.76341
_cell_length_b       3.76341
_cell_length_c       9.66423
_cell_angle_alpha    101.228
_cell_angle_beta     101.228
_cell_angle_gamma    90

_space_group_name_H-M_alt    "P 1"
_space_group_IT_number       1

loop_
  _space_group_symop_operation_xyz
  'x, y, z'

loop_
  _atom_site_type_symbol
  _atom_site_label
  _atom_site_symmetry_multiplicity
  _atom_site_fract_x
  _atom_site_fract_y
  _atom_site_fract_z
  _atom_site_occupancy
  Cu  Cu1       1.0  0.75000  0.25000  0.50000  1.0000
  Cu  Cu2       1.0  0.25000  0.75000  0.50000  1.0000
  P   P1        1.0  0.50000  0.00000  0.00000  1.0000
  P   P2        1.0  0.00000  0.50000  0.00000  1.0000
  P   P3        1.0  0.66800  0.66800  0.33600  1.0000
  P   P4        1.0  0.33200  0.33200  0.66400  1.0000
  U   U1        1.0  0.10900  0.10900  0.21800  1.0000
  U   U2        1.0  0.89100  0.89100  0.78200  1.0000
