data_image0
_chemical_formula_structural       Al2Co6U4
_chemical_formula_sum              "Al2 Co6 U4"
_cell_length_a       5.12281
_cell_length_b       5.12285
_cell_length_c       7.60717
_cell_angle_alpha    90
_cell_angle_beta     90
_cell_angle_gamma    120

_space_group_name_H-M_alt    "P 1"
_space_group_IT_number       1

loop_
  _space_group_symop_operation_xyz
  'x, y, z'

loop_
  _atom_site_type_symbol
  _atom_site_label
  _atom_site_symmetry_multiplicity
  _atom_site_fract_x
  _atom_site_fract_y
  _atom_site_fract_z
  _atom_site_occupancy
  Al  Al1       1.0  0.00000  0.00000  0.00000  1.0000
  Al  Al2       1.0  0.00000  0.00000  0.50000  1.0000
  Co  Co1       1.0  0.34000  0.17000  0.25000  1.0000
  Co  Co2       1.0  0.83000  0.17000  0.25000  1.0000
  Co  Co3       1.0  0.83000  0.66000  0.25000  1.0000
  Co  Co4       1.0  0.17000  0.34000  0.75000  1.0000
  Co  Co5       1.0  0.17000  0.83000  0.75000  1.0000
  Co  Co6       1.0  0.66000  0.83000  0.75000  1.0000
  U   U1        1.0  0.33300  0.66700  0.07070  1.0000
  U   U2        1.0  0.33300  0.66700  0.42900  1.0000
  U   U3        1.0  0.66700  0.33300  0.57100  1.0000
  U   U4        1.0  0.66700  0.33300  0.92900  1.0000
