data_image0
_chemical_formula_structural       Co6Ga2Tb6
_chemical_formula_sum              "Co6 Ga2 Tb6"
_cell_length_a       4.09121
_cell_length_b       5.40687
_cell_length_c       12.8996
_cell_angle_alpha    90
_cell_angle_beta     90
_cell_angle_gamma    67.7694

_space_group_name_H-M_alt    "P 1"
_space_group_IT_number       1

loop_
  _space_group_symop_operation_xyz
  'x, y, z'

loop_
  _atom_site_type_symbol
  _atom_site_label
  _atom_site_symmetry_multiplicity
  _atom_site_fract_x
  _atom_site_fract_y
  _atom_site_fract_z
  _atom_site_occupancy
  Co  Co1       1.0  0.91700  0.16600  0.09410  1.0000
  Co  Co2       1.0  0.79400  0.41200  0.25000  1.0000
  Co  Co3       1.0  0.91700  0.16600  0.40600  1.0000
  Co  Co4       1.0  0.08320  0.83400  0.59400  1.0000
  Co  Co5       1.0  0.20600  0.58800  0.75000  1.0000
  Co  Co6       1.0  0.08320  0.83400  0.90600  1.0000
  Ga  Ga1       1.0  0.50000  0.00000  0.00000  1.0000
  Ga  Ga2       1.0  0.50000  0.00000  0.50000  1.0000
  Tb  Tb1       1.0  0.20600  0.58700  0.10400  1.0000
  Tb  Tb2       1.0  0.49400  0.01260  0.25000  1.0000
  Tb  Tb3       1.0  0.20600  0.58700  0.39600  1.0000
  Tb  Tb4       1.0  0.79400  0.41300  0.60400  1.0000
  Tb  Tb5       1.0  0.50600  0.98700  0.75000  1.0000
  Tb  Tb6       1.0  0.79400  0.41300  0.89600  1.0000
