data_image0
_chemical_formula_structural       Co2Er4Ge4
_chemical_formula_sum              "Co2 Er4 Ge4"
_cell_length_a       4.17403
_cell_length_b       5.57719
_cell_length_c       9.1943
_cell_angle_alpha    92.1717
_cell_angle_beta     103.12
_cell_angle_gamma    68.0248

_space_group_name_H-M_alt    "P 1"
_space_group_IT_number       1

loop_
  _space_group_symop_operation_xyz
  'x, y, z'

loop_
  _atom_site_type_symbol
  _atom_site_label
  _atom_site_symmetry_multiplicity
  _atom_site_fract_x
  _atom_site_fract_y
  _atom_site_fract_z
  _atom_site_occupancy
  Co  Co1       1.0  0.62800  0.09550  0.35200  1.0000
  Co  Co2       1.0  0.37200  0.90500  0.64800  1.0000
  Er  Er1       1.0  0.92700  0.26000  0.11300  1.0000
  Er  Er2       1.0  0.32700  0.67900  0.33300  1.0000
  Er  Er3       1.0  0.67300  0.32100  0.66700  1.0000
  Er  Er4       1.0  0.07310  0.74000  0.88700  1.0000
  Ge  Ge1       1.0  0.63900  0.84500  0.12400  1.0000
  Ge  Ge2       1.0  0.08940  0.25700  0.43500  1.0000
  Ge  Ge3       1.0  0.91100  0.74300  0.56500  1.0000
  Ge  Ge4       1.0  0.36100  0.15500  0.87600  1.0000
