data_image0
_chemical_formula_structural       Ag3C6CoN6
_chemical_formula_sum              "Ag3 C6 Co1 N6"
_cell_length_a       6.84305
_cell_length_b       6.84306
_cell_length_c       7.24243
_cell_angle_alpha    90
_cell_angle_beta     90
_cell_angle_gamma    120

_space_group_name_H-M_alt    "P 1"
_space_group_IT_number       1

loop_
  _space_group_symop_operation_xyz
  'x, y, z'

loop_
  _atom_site_type_symbol
  _atom_site_label
  _atom_site_symmetry_multiplicity
  _atom_site_fract_x
  _atom_site_fract_y
  _atom_site_fract_z
  _atom_site_occupancy
  Ag  Ag1       1.0  0.50000  0.00000  0.50000  1.0000
  Ag  Ag2       1.0  0.00000  0.50000  0.50000  1.0000
  Ag  Ag3       1.0  0.50000  0.50000  0.50000  1.0000
  C   C1        1.0  0.21800  0.00000  0.15300  1.0000
  C   C2        1.0  0.00000  0.21800  0.15300  1.0000
  C   C3        1.0  0.78200  0.78200  0.15300  1.0000
  C   C4        1.0  0.78200  0.00000  0.84700  1.0000
  C   C5        1.0  0.21800  0.21800  0.84700  1.0000
  C   C6        1.0  0.00000  0.78200  0.84700  1.0000
  Co  Co1       1.0  0.00000  0.00000  0.00000  1.0000
  N   N1        1.0  0.34500  0.00000  0.26100  1.0000
  N   N2        1.0  0.00000  0.34500  0.26100  1.0000
  N   N3        1.0  0.65500  0.65500  0.26100  1.0000
  N   N4        1.0  0.65500  0.00000  0.73900  1.0000
  N   N5        1.0  0.34500  0.34500  0.73900  1.0000
  N   N6        1.0  0.00000  0.65500  0.73900  1.0000
