data_image0
_chemical_formula_structural       Bi2CoY6
_chemical_formula_sum              "Bi2 Co1 Y6"
_cell_length_a       8.39737
_cell_length_b       8.39737
_cell_length_c       4.10781
_cell_angle_alpha    90
_cell_angle_beta     90
_cell_angle_gamma    119.993

_space_group_name_H-M_alt    "P 1"
_space_group_IT_number       1

loop_
  _space_group_symop_operation_xyz
  'x, y, z'

loop_
  _atom_site_type_symbol
  _atom_site_label
  _atom_site_symmetry_multiplicity
  _atom_site_fract_x
  _atom_site_fract_y
  _atom_site_fract_z
  _atom_site_occupancy
  Bi  Bi1       1.0  0.66700  0.33300  0.00000  1.0000
  Bi  Bi2       1.0  0.33300  0.66700  0.00000  1.0000
  Co  Co1       1.0  0.00000  0.00000  0.50000  1.0000
  Y   Y1        1.0  0.23200  0.00000  0.00000  1.0000
  Y   Y2        1.0  0.00000  0.23200  0.00000  1.0000
  Y   Y3        1.0  0.76800  0.76800  0.00000  1.0000
  Y   Y4        1.0  0.60500  0.00000  0.50000  1.0000
  Y   Y5        1.0  0.39500  0.39500  0.50000  1.0000
  Y   Y6        1.0  0.00000  0.60500  0.50000  1.0000
