data_image0
_chemical_formula_structural       Co2Dy4Ge4
_chemical_formula_sum              "Co2 Dy4 Ge4"
_cell_length_a       4.19913
_cell_length_b       5.6373
_cell_length_c       9.24973
_cell_angle_alpha    92.2668
_cell_angle_beta     103.12
_cell_angle_gamma    68.1337

_space_group_name_H-M_alt    "P 1"
_space_group_IT_number       1

loop_
  _space_group_symop_operation_xyz
  'x, y, z'

loop_
  _atom_site_type_symbol
  _atom_site_label
  _atom_site_symmetry_multiplicity
  _atom_site_fract_x
  _atom_site_fract_y
  _atom_site_fract_z
  _atom_site_occupancy
  Co  Co1       1.0  0.63300  0.09130  0.35600  1.0000
  Co  Co2       1.0  0.36700  0.90900  0.64400  1.0000
  Dy  Dy1       1.0  0.92700  0.25900  0.11200  1.0000
  Dy  Dy2       1.0  0.32800  0.67800  0.33300  1.0000
  Dy  Dy3       1.0  0.67200  0.32200  0.66700  1.0000
  Dy  Dy4       1.0  0.07330  0.74100  0.88800  1.0000
  Ge  Ge1       1.0  0.63900  0.84600  0.12500  1.0000
  Ge  Ge2       1.0  0.08890  0.25600  0.43400  1.0000
  Ge  Ge3       1.0  0.91100  0.74400  0.56600  1.0000
  Ge  Ge4       1.0  0.36100  0.15400  0.87500  1.0000
