data_image0
_chemical_formula_structural       C6CoH3N6
_chemical_formula_sum              "C6 Co1 H3 N6"
_cell_length_a       6.35476
_cell_length_b       6.35476
_cell_length_c       5.61763
_cell_angle_alpha    90
_cell_angle_beta     90
_cell_angle_gamma    120

_space_group_name_H-M_alt    "P 1"
_space_group_IT_number       1

loop_
  _space_group_symop_operation_xyz
  'x, y, z'

loop_
  _atom_site_type_symbol
  _atom_site_label
  _atom_site_symmetry_multiplicity
  _atom_site_fract_x
  _atom_site_fract_y
  _atom_site_fract_z
  _atom_site_occupancy
  C   C1        1.0  0.23700  0.00000  0.19300  1.0000
  C   C2        1.0  0.00000  0.23700  0.19300  1.0000
  C   C3        1.0  0.76300  0.76300  0.19300  1.0000
  C   C4        1.0  0.76300  0.00000  0.80700  1.0000
  C   C5        1.0  0.23700  0.23700  0.80700  1.0000
  C   C6        1.0  0.00000  0.76300  0.80700  1.0000
  Co  Co1       1.0  0.00000  0.00000  0.00000  1.0000
  H   H1        1.0  0.50000  0.00000  0.50000  1.0000
  H   H2        1.0  0.00000  0.50000  0.50000  1.0000
  H   H3        1.0  0.50000  0.50000  0.50000  1.0000
  N   N1        1.0  0.38200  0.00000  0.32000  1.0000
  N   N2        1.0  0.00000  0.38200  0.32000  1.0000
  N   N3        1.0  0.61800  0.61800  0.32000  1.0000
  N   N4        1.0  0.61800  0.00000  0.68000  1.0000
  N   N5        1.0  0.38200  0.38200  0.68000  1.0000
  N   N6        1.0  0.00000  0.61800  0.68000  1.0000
