data_image0
_chemical_formula_structural       Eu10Pt4
_chemical_formula_sum              "Eu10 Pt4"
_cell_length_a       6.75942
_cell_length_b       7.7351
_cell_length_c       8.89382
_cell_angle_alpha    96.7498
_cell_angle_beta     112.334
_cell_angle_gamma    90

_space_group_name_H-M_alt    "P 1"
_space_group_IT_number       1

loop_
  _space_group_symop_operation_xyz
  'x, y, z'

loop_
  _atom_site_type_symbol
  _atom_site_label
  _atom_site_symmetry_multiplicity
  _atom_site_fract_x
  _atom_site_fract_y
  _atom_site_fract_z
  _atom_site_occupancy
  Eu  Eu1       1.0  0.57700  0.25000  0.00000  1.0000
  Eu  Eu2       1.0  0.42300  0.75000  0.00000  1.0000
  Eu  Eu3       1.0  0.97900  0.91700  0.17900  1.0000
  Eu  Eu4       1.0  0.20000  0.41700  0.17900  1.0000
  Eu  Eu5       1.0  0.79800  0.32000  0.43300  1.0000
  Eu  Eu6       1.0  0.63500  0.82000  0.43300  1.0000
  Eu  Eu7       1.0  0.36500  0.18000  0.56700  1.0000
  Eu  Eu8       1.0  0.20200  0.68000  0.56700  1.0000
  Eu  Eu9       1.0  0.80000  0.58300  0.82100  1.0000
  Eu  Eu10      1.0  0.02130  0.08270  0.82100  1.0000
  Pt  Pt1       1.0  0.82100  0.58100  0.22100  1.0000
  Pt  Pt2       1.0  0.40000  0.08110  0.22100  1.0000
  Pt  Pt3       1.0  0.60000  0.91900  0.77900  1.0000
  Pt  Pt4       1.0  0.17900  0.41900  0.77900  1.0000
