data_image0
_chemical_formula_structural       Er10Ru4
_chemical_formula_sum              "Er10 Ru4"
_cell_length_a       6.253
_cell_length_b       7.2432
_cell_length_c       8.36524
_cell_angle_alpha    96.8625
_cell_angle_beta     111.947
_cell_angle_gamma    90

_space_group_name_H-M_alt    "P 1"
_space_group_IT_number       1

loop_
  _space_group_symop_operation_xyz
  'x, y, z'

loop_
  _atom_site_type_symbol
  _atom_site_label
  _atom_site_symmetry_multiplicity
  _atom_site_fract_x
  _atom_site_fract_y
  _atom_site_fract_z
  _atom_site_occupancy
  Er  Er1       1.0  0.58300  0.25000  0.00000  1.0000
  Er  Er2       1.0  0.41700  0.75000  0.00000  1.0000
  Er  Er3       1.0  0.20900  0.41600  0.18600  1.0000
  Er  Er4       1.0  0.97700  0.91600  0.18600  1.0000
  Er  Er5       1.0  0.79500  0.31500  0.43500  1.0000
  Er  Er6       1.0  0.64100  0.81500  0.43500  1.0000
  Er  Er7       1.0  0.35900  0.18500  0.56500  1.0000
  Er  Er8       1.0  0.20500  0.68500  0.56500  1.0000
  Er  Er9       1.0  0.02310  0.08450  0.81400  1.0000
  Er  Er10      1.0  0.79100  0.58400  0.81400  1.0000
  Ru  Ru1       1.0  0.39800  0.07630  0.22000  1.0000
  Ru  Ru2       1.0  0.82200  0.57600  0.22000  1.0000
  Ru  Ru3       1.0  0.60200  0.92400  0.78000  1.0000
  Ru  Ru4       1.0  0.17800  0.42400  0.78000  1.0000
