data_image0
_chemical_formula_structural       B6Co3La4
_chemical_formula_sum              "B6 Co3 La4"
_cell_length_a       5.36177
_cell_length_b       5.36177
_cell_length_c       8.31219
_cell_angle_alpha    108.816
_cell_angle_beta     71.1843
_cell_angle_gamma    120

_space_group_name_H-M_alt    "P 1"
_space_group_IT_number       1

loop_
  _space_group_symop_operation_xyz
  'x, y, z'

loop_
  _atom_site_type_symbol
  _atom_site_label
  _atom_site_symmetry_multiplicity
  _atom_site_fract_x
  _atom_site_fract_y
  _atom_site_fract_z
  _atom_site_occupancy
  B   B1        1.0  0.16700  0.16700  0.50000  1.0000
  B   B2        1.0  0.50000  0.16700  0.50000  1.0000
  B   B3        1.0  0.16700  0.50000  0.50000  1.0000
  B   B4        1.0  0.83300  0.50000  0.50000  1.0000
  B   B5        1.0  0.50000  0.83300  0.50000  1.0000
  B   B6        1.0  0.83300  0.83300  0.50000  1.0000
  Co  Co1       1.0  0.00000  0.00000  0.00000  1.0000
  Co  Co2       1.0  0.88500  0.11500  0.34600  1.0000
  Co  Co3       1.0  0.11500  0.88500  0.65400  1.0000
  La  La1       1.0  0.59100  0.40900  0.22600  1.0000
  La  La2       1.0  0.25800  0.74200  0.22700  1.0000
  La  La3       1.0  0.74200  0.25800  0.77300  1.0000
  La  La4       1.0  0.40900  0.59100  0.77400  1.0000
