data_image0
_chemical_formula_structural       Cu4S8Sb4
_chemical_formula_sum              "Cu4 S8 Sb4"
_cell_length_a       6.09194
_cell_length_b       3.80351
_cell_length_c       14.4187
_cell_angle_alpha    90
_cell_angle_beta     90
_cell_angle_gamma    90

_space_group_name_H-M_alt    "P 1"
_space_group_IT_number       1

loop_
  _space_group_symop_operation_xyz
  'x, y, z'

loop_
  _atom_site_type_symbol
  _atom_site_label
  _atom_site_symmetry_multiplicity
  _atom_site_fract_x
  _atom_site_fract_y
  _atom_site_fract_z
  _atom_site_occupancy
  Cu  Cu1       1.0  0.74800  0.75000  0.17400  1.0000
  Cu  Cu2       1.0  0.24800  0.75000  0.32600  1.0000
  Cu  Cu3       1.0  0.75200  0.25000  0.67400  1.0000
  Cu  Cu4       1.0  0.25200  0.25000  0.82600  1.0000
  S   S1        1.0  0.62600  0.25000  0.09730  1.0000
  S   S2        1.0  0.12500  0.75000  0.17700  1.0000
  S   S3        1.0  0.62500  0.75000  0.32300  1.0000
  S   S4        1.0  0.12600  0.25000  0.40300  1.0000
  S   S5        1.0  0.87400  0.75000  0.59700  1.0000
  S   S6        1.0  0.37500  0.25000  0.67700  1.0000
  S   S7        1.0  0.87500  0.25000  0.82300  1.0000
  S   S8        1.0  0.37400  0.75000  0.90300  1.0000
  Sb  Sb1       1.0  0.22900  0.25000  0.06100  1.0000
  Sb  Sb2       1.0  0.72900  0.25000  0.43900  1.0000
  Sb  Sb3       1.0  0.27100  0.75000  0.56100  1.0000
  Sb  Sb4       1.0  0.77100  0.75000  0.93900  1.0000
