data_image0
_chemical_formula_structural       Co2Ge4Lu4
_chemical_formula_sum              "Co2 Ge4 Lu4"
_cell_length_a       4.14801
_cell_length_b       5.51135
_cell_length_c       9.0882
_cell_angle_alpha    92.1596
_cell_angle_beta     103.192
_cell_angle_gamma    67.8944

_space_group_name_H-M_alt    "P 1"
_space_group_IT_number       1

loop_
  _space_group_symop_operation_xyz
  'x, y, z'

loop_
  _atom_site_type_symbol
  _atom_site_label
  _atom_site_symmetry_multiplicity
  _atom_site_fract_x
  _atom_site_fract_y
  _atom_site_fract_z
  _atom_site_occupancy
  Co  Co1       1.0  0.62900  0.09510  0.35300  1.0000
  Co  Co2       1.0  0.37100  0.90500  0.64700  1.0000
  Ge  Ge1       1.0  0.64100  0.84200  0.12400  1.0000
  Ge  Ge2       1.0  0.08640  0.26200  0.43400  1.0000
  Ge  Ge3       1.0  0.91400  0.73800  0.56600  1.0000
  Ge  Ge4       1.0  0.35900  0.15800  0.87600  1.0000
  Lu  Lu1       1.0  0.92700  0.25900  0.11300  1.0000
  Lu  Lu2       1.0  0.32700  0.68000  0.33300  1.0000
  Lu  Lu3       1.0  0.67300  0.32000  0.66700  1.0000
  Lu  Lu4       1.0  0.07330  0.74100  0.88700  1.0000
