data_image0
_chemical_formula_structural       BaMo6S8
_chemical_formula_sum              "Ba1 Mo6 S8"
_cell_length_a       6.63965
_cell_length_b       6.69596
_cell_length_c       6.74101
_cell_angle_alpha    88.8508
_cell_angle_beta     88.7787
_cell_angle_gamma    88.0953

_space_group_name_H-M_alt    "P 1"
_space_group_IT_number       1

loop_
  _space_group_symop_operation_xyz
  'x, y, z'

loop_
  _atom_site_type_symbol
  _atom_site_label
  _atom_site_symmetry_multiplicity
  _atom_site_fract_x
  _atom_site_fract_y
  _atom_site_fract_z
  _atom_site_occupancy
  Ba  Ba1       1.0  0.00000  0.00000  0.00000  1.0000
  Mo  Mo1       1.0  0.56600  0.41700  0.23200  1.0000
  Mo  Mo2       1.0  0.23900  0.56400  0.42000  1.0000
  Mo  Mo3       1.0  0.58300  0.76700  0.43500  1.0000
  Mo  Mo4       1.0  0.41700  0.23300  0.56500  1.0000
  Mo  Mo5       1.0  0.76100  0.43600  0.58000  1.0000
  Mo  Mo6       1.0  0.43400  0.58300  0.76800  1.0000
  S   S1        1.0  0.39200  0.73400  0.12600  1.0000
  S   S2        1.0  0.25700  0.24700  0.25300  1.0000
  S   S3        1.0  0.87500  0.60800  0.26300  1.0000
  S   S4        1.0  0.73500  0.12300  0.38700  1.0000
  S   S5        1.0  0.26500  0.87700  0.61300  1.0000
  S   S6        1.0  0.12500  0.39200  0.73700  1.0000
  S   S7        1.0  0.74300  0.75300  0.74700  1.0000
  S   S8        1.0  0.60800  0.26600  0.87400  1.0000
