data_image0
_chemical_formula_structural       Co2Ge4Nd4
_chemical_formula_sum              "Co2 Ge4 Nd4"
_cell_length_a       4.29714
_cell_length_b       5.90859
_cell_length_c       9.43222
_cell_angle_alpha    92.4763
_cell_angle_beta     103.167
_cell_angle_gamma    68.6764

_space_group_name_H-M_alt    "P 1"
_space_group_IT_number       1

loop_
  _space_group_symop_operation_xyz
  'x, y, z'

loop_
  _atom_site_type_symbol
  _atom_site_label
  _atom_site_symmetry_multiplicity
  _atom_site_fract_x
  _atom_site_fract_y
  _atom_site_fract_z
  _atom_site_occupancy
  Co  Co1       1.0  0.64500  0.07910  0.36900  1.0000
  Co  Co2       1.0  0.35500  0.92100  0.63100  1.0000
  Ge  Ge1       1.0  0.63400  0.86200  0.12900  1.0000
  Ge  Ge2       1.0  0.09650  0.24000  0.43300  1.0000
  Ge  Ge3       1.0  0.90300  0.76000  0.56700  1.0000
  Ge  Ge4       1.0  0.36600  0.13800  0.87100  1.0000
  Nd  Nd1       1.0  0.92000  0.26700  0.10700  1.0000
  Nd  Nd2       1.0  0.33100  0.67000  0.33200  1.0000
  Nd  Nd3       1.0  0.66900  0.33000  0.66800  1.0000
  Nd  Nd4       1.0  0.07990  0.73300  0.89300  1.0000
