data_image0
_chemical_formula_structural       C4CoHgN4Se4
_chemical_formula_sum              "C4 Co1 Hg1 N4 Se4"
_cell_length_a       4.61608
_cell_length_b       8.27102
_cell_length_c       8.27102
_cell_angle_alpha    94.4661
_cell_angle_beta     73.7964
_cell_angle_gamma    106.204

_space_group_name_H-M_alt    "P 1"
_space_group_IT_number       1

loop_
  _space_group_symop_operation_xyz
  'x, y, z'

loop_
  _atom_site_type_symbol
  _atom_site_label
  _atom_site_symmetry_multiplicity
  _atom_site_fract_x
  _atom_site_fract_y
  _atom_site_fract_z
  _atom_site_occupancy
  C   C1        1.0  0.83200  0.64000  0.20600  1.0000
  C   C2        1.0  0.80800  0.20600  0.36000  1.0000
  C   C3        1.0  0.96200  0.79400  0.64000  1.0000
  C   C4        1.0  0.39800  0.36000  0.79400  1.0000
  Co  Co1       1.0  0.25000  0.50000  0.50000  1.0000
  Hg  Hg1       1.0  0.00000  0.00000  0.00000  1.0000
  N   N1        1.0  0.61400  0.58500  0.32000  1.0000
  N   N2        1.0  0.97200  0.32000  0.41500  1.0000
  N   N3        1.0  0.06610  0.68000  0.58500  1.0000
  N   N4        1.0  0.34900  0.41500  0.68000  1.0000
  Se  Se1       1.0  0.16800  0.71800  0.03140  1.0000
  Se  Se2       1.0  0.55000  0.03140  0.28200  1.0000
  Se  Se3       1.0  0.80100  0.96900  0.71800  1.0000
  Se  Se4       1.0  0.48200  0.28200  0.96900  1.0000
