data_image0
_chemical_formula_structural       H4I4O4Pb4
_chemical_formula_sum              "H4 I4 O4 Pb4"
_cell_length_a       7.83011
_cell_length_b       4.19199
_cell_length_c       10.5092
_cell_angle_alpha    90
_cell_angle_beta     90
_cell_angle_gamma    90

_space_group_name_H-M_alt    "P 1"
_space_group_IT_number       1

loop_
  _space_group_symop_operation_xyz
  'x, y, z'

loop_
  _atom_site_type_symbol
  _atom_site_label
  _atom_site_symmetry_multiplicity
  _atom_site_fract_x
  _atom_site_fract_y
  _atom_site_fract_z
  _atom_site_occupancy
  H   H1        1.0  0.80900  0.25000  0.11100  1.0000
  H   H2        1.0  0.30900  0.25000  0.38900  1.0000
  H   H3        1.0  0.69100  0.75000  0.61100  1.0000
  H   H4        1.0  0.19100  0.75000  0.88900  1.0000
  I   I1        1.0  0.54700  0.75000  0.17800  1.0000
  I   I2        1.0  0.04750  0.75000  0.32200  1.0000
  I   I3        1.0  0.95300  0.25000  0.67800  1.0000
  I   I4        1.0  0.45300  0.25000  0.82200  1.0000
  O   O1        1.0  0.88200  0.25000  0.03510  1.0000
  O   O2        1.0  0.38200  0.25000  0.46500  1.0000
  O   O3        1.0  0.61800  0.75000  0.53500  1.0000
  O   O4        1.0  0.11800  0.75000  0.96500  1.0000
  Pb  Pb1       1.0  0.18500  0.25000  0.08200  1.0000
  Pb  Pb2       1.0  0.68500  0.25000  0.41800  1.0000
  Pb  Pb3       1.0  0.31500  0.75000  0.58200  1.0000
  Pb  Pb4       1.0  0.81500  0.75000  0.91800  1.0000
