data_image0
_chemical_formula_structural       CoLa2O4
_chemical_formula_sum              "Co1 La2 O4"
_cell_length_a       3.87403
_cell_length_b       3.87403
_cell_length_c       6.88857
_cell_angle_alpha    106.3
_cell_angle_beta     106.3
_cell_angle_gamma    90.1064

_space_group_name_H-M_alt    "P 1"
_space_group_IT_number       1

loop_
  _space_group_symop_operation_xyz
  'x, y, z'

loop_
  _atom_site_type_symbol
  _atom_site_label
  _atom_site_symmetry_multiplicity
  _atom_site_fract_x
  _atom_site_fract_y
  _atom_site_fract_z
  _atom_site_occupancy
  Co  Co1       1.0  0.00000  0.00000  0.00000  1.0000
  La  La1       1.0  0.63800  0.63800  0.27600  1.0000
  La  La2       1.0  0.36200  0.36200  0.72400  1.0000
  O   O1        1.0  0.50000  0.00000  0.00000  1.0000
  O   O2        1.0  0.00000  0.50000  0.00000  1.0000
  O   O3        1.0  0.18100  0.18100  0.36200  1.0000
  O   O4        1.0  0.81900  0.81900  0.63800  1.0000
