data_image0
_chemical_formula_structural       Co2Ge4Sm3
_chemical_formula_sum              "Co2 Ge4 Sm3"
_cell_length_a       4.18215
_cell_length_b       5.84795
_cell_length_c       8.14005
_cell_angle_alpha    106.201
_cell_angle_beta     90
_cell_angle_gamma    110.951

_space_group_name_H-M_alt    "P 1"
_space_group_IT_number       1

loop_
  _space_group_symop_operation_xyz
  'x, y, z'

loop_
  _atom_site_type_symbol
  _atom_site_label
  _atom_site_symmetry_multiplicity
  _atom_site_fract_x
  _atom_site_fract_y
  _atom_site_fract_z
  _atom_site_occupancy
  Co  Co1       1.0  0.69600  0.39200  0.37400  1.0000
  Co  Co2       1.0  0.30400  0.60800  0.62600  1.0000
  Ge  Ge1       1.0  0.71200  0.42500  0.08340  1.0000
  Ge  Ge2       1.0  0.10400  0.20800  0.39900  1.0000
  Ge  Ge3       1.0  0.89600  0.79200  0.60100  1.0000
  Ge  Ge4       1.0  0.28800  0.57500  0.91700  1.0000
  Sm  Sm1       1.0  0.00000  0.00000  0.00000  1.0000
  Sm  Sm2       1.0  0.38100  0.76300  0.30700  1.0000
  Sm  Sm3       1.0  0.61900  0.23700  0.69300  1.0000
