data_image0
_chemical_formula_structural       Cl4Co4O6Te2
_chemical_formula_sum              "Cl4 Co4 O6 Te2"
_cell_length_a       5.049
_cell_length_b       6.71113
_cell_length_c       8.17468
_cell_angle_alpha    90
_cell_angle_beta     105.966
_cell_angle_gamma    90

_space_group_name_H-M_alt    "P 1"
_space_group_IT_number       1

loop_
  _space_group_symop_operation_xyz
  'x, y, z'

loop_
  _atom_site_type_symbol
  _atom_site_label
  _atom_site_symmetry_multiplicity
  _atom_site_fract_x
  _atom_site_fract_y
  _atom_site_fract_z
  _atom_site_occupancy
  Cl  Cl1       1.0  0.25900  0.25000  0.21200  1.0000
  Cl  Cl2       1.0  0.15800  0.75000  0.49000  1.0000
  Cl  Cl3       1.0  0.84200  0.25000  0.51000  1.0000
  Cl  Cl4       1.0  0.74100  0.75000  0.78800  1.0000
  Co  Co1       1.0  0.00000  0.00000  0.00000  1.0000
  Co  Co2       1.0  0.00000  0.50000  0.00000  1.0000
  Co  Co3       1.0  0.75300  0.25000  0.21400  1.0000
  Co  Co4       1.0  0.24700  0.75000  0.78600  1.0000
  O   O1        1.0  0.25400  0.75000  0.07260  1.0000
  O   O2        1.0  0.76100  0.53900  0.16200  1.0000
  O   O3        1.0  0.76100  0.96100  0.16200  1.0000
  O   O4        1.0  0.23900  0.03870  0.83800  1.0000
  O   O5        1.0  0.23900  0.46100  0.83800  1.0000
  O   O6        1.0  0.74600  0.25000  0.92700  1.0000
  Te  Te1       1.0  0.60100  0.75000  0.25600  1.0000
  Te  Te2       1.0  0.39900  0.25000  0.74400  1.0000
