data_image0
_chemical_formula_structural       Cl4Ge6La6
_chemical_formula_sum              "Cl4 Ge6 La6"
_cell_length_a       4.3128
_cell_length_b       9.32085
_cell_length_c       10.8143
_cell_angle_alpha    98.015
_cell_angle_beta     90
_cell_angle_gamma    103.377

_space_group_name_H-M_alt    "P 1"
_space_group_IT_number       1

loop_
  _space_group_symop_operation_xyz
  'x, y, z'

loop_
  _atom_site_type_symbol
  _atom_site_label
  _atom_site_symmetry_multiplicity
  _atom_site_fract_x
  _atom_site_fract_y
  _atom_site_fract_z
  _atom_site_occupancy
  Cl  Cl1       1.0  0.29900  0.59800  0.12700  1.0000
  Cl  Cl2       1.0  0.77400  0.54700  0.39300  1.0000
  Cl  Cl3       1.0  0.22600  0.45300  0.60700  1.0000
  Cl  Cl4       1.0  0.70100  0.40200  0.87300  1.0000
  Ge  Ge1       1.0  0.07030  0.14100  0.04390  1.0000
  Ge  Ge2       1.0  0.09620  0.19200  0.28200  1.0000
  Ge  Ge3       1.0  0.97600  0.95100  0.38300  1.0000
  Ge  Ge4       1.0  0.02430  0.04870  0.61700  1.0000
  Ge  Ge5       1.0  0.90400  0.80800  0.71800  1.0000
  Ge  Ge6       1.0  0.93000  0.85900  0.95600  1.0000
  La  La1       1.0  0.68400  0.36800  0.14800  1.0000
  La  La2       1.0  0.46800  0.93600  0.16900  1.0000
  La  La3       1.0  0.61700  0.23400  0.49100  1.0000
  La  La4       1.0  0.38300  0.76600  0.50900  1.0000
  La  La5       1.0  0.53200  0.06440  0.83100  1.0000
  La  La6       1.0  0.31600  0.63200  0.85200  1.0000
