data_image0
_chemical_formula_structural       Co4Yb12
_chemical_formula_sum              "Co4 Yb12"
_cell_length_a       7.39348
_cell_length_b       9.28188
_cell_length_c       6.25856
_cell_angle_alpha    90
_cell_angle_beta     90
_cell_angle_gamma    90

_space_group_name_H-M_alt    "P 1"
_space_group_IT_number       1

loop_
  _space_group_symop_operation_xyz
  'x, y, z'

loop_
  _atom_site_type_symbol
  _atom_site_label
  _atom_site_symmetry_multiplicity
  _atom_site_fract_x
  _atom_site_fract_y
  _atom_site_fract_z
  _atom_site_occupancy
  Co  Co1       1.0  0.87900  0.25000  0.04480  1.0000
  Co  Co2       1.0  0.37900  0.25000  0.45500  1.0000
  Co  Co3       1.0  0.62100  0.75000  0.54500  1.0000
  Co  Co4       1.0  0.12100  0.75000  0.95500  1.0000
  Yb  Yb1       1.0  0.45700  0.75000  0.14000  1.0000
  Yb  Yb2       1.0  0.16900  0.06820  0.16000  1.0000
  Yb  Yb3       1.0  0.16900  0.43200  0.16000  1.0000
  Yb  Yb4       1.0  0.66900  0.06820  0.34000  1.0000
  Yb  Yb5       1.0  0.66900  0.43200  0.34000  1.0000
  Yb  Yb6       1.0  0.95700  0.75000  0.36000  1.0000
  Yb  Yb7       1.0  0.04320  0.25000  0.64000  1.0000
  Yb  Yb8       1.0  0.33100  0.56800  0.66000  1.0000
  Yb  Yb9       1.0  0.33100  0.93200  0.66000  1.0000
  Yb  Yb10      1.0  0.83100  0.56800  0.84000  1.0000
  Yb  Yb11      1.0  0.83100  0.93200  0.84000  1.0000
  Yb  Yb12      1.0  0.54300  0.25000  0.86000  1.0000
