data_image0
_chemical_formula_structural       B4Co10P2
_chemical_formula_sum              "B4 Co10 P2"
_cell_length_a       5.28231
_cell_length_b       5.28231
_cell_length_c       6.43667
_cell_angle_alpha    114.226
_cell_angle_beta     114.226
_cell_angle_gamma    90

_space_group_name_H-M_alt    "P 1"
_space_group_IT_number       1

loop_
  _space_group_symop_operation_xyz
  'x, y, z'

loop_
  _atom_site_type_symbol
  _atom_site_label
  _atom_site_symmetry_multiplicity
  _atom_site_fract_x
  _atom_site_fract_y
  _atom_site_fract_z
  _atom_site_occupancy
  B   B1        1.0  0.37700  0.12300  0.00000  1.0000
  B   B2        1.0  0.87700  0.37700  0.00000  1.0000
  B   B3        1.0  0.12300  0.62300  0.00000  1.0000
  B   B4        1.0  0.62300  0.87700  0.00000  1.0000
  Co  Co1       1.0  0.00000  0.00000  0.00000  1.0000
  Co  Co2       1.0  0.50000  0.50000  0.00000  1.0000
  Co  Co3       1.0  0.81100  0.31100  0.28200  1.0000
  Co  Co4       1.0  0.31100  0.47100  0.28200  1.0000
  Co  Co5       1.0  0.97100  0.81100  0.28200  1.0000
  Co  Co6       1.0  0.47100  0.97100  0.28200  1.0000
  Co  Co7       1.0  0.52900  0.02890  0.71800  1.0000
  Co  Co8       1.0  0.02890  0.18900  0.71800  1.0000
  Co  Co9       1.0  0.68900  0.52900  0.71800  1.0000
  Co  Co10      1.0  0.18900  0.68900  0.71800  1.0000
  P   P1        1.0  0.25000  0.25000  0.50000  1.0000
  P   P2        1.0  0.75000  0.75000  0.50000  1.0000
