data_image0
_chemical_formula_structural       CoF11NaZr2
_chemical_formula_sum              "Co1 F11 Na1 Zr2"
_cell_length_a       5.57079
_cell_length_b       5.57079
_cell_length_c       7.69233
_cell_angle_alpha    111.206
_cell_angle_beta     68.7944
_cell_angle_gamma    107.36

_space_group_name_H-M_alt    "P 1"
_space_group_IT_number       1

loop_
  _space_group_symop_operation_xyz
  'x, y, z'

loop_
  _atom_site_type_symbol
  _atom_site_label
  _atom_site_symmetry_multiplicity
  _atom_site_fract_x
  _atom_site_fract_y
  _atom_site_fract_z
  _atom_site_occupancy
  Co  Co1       1.0  0.00000  0.00000  0.50000  1.0000
  F   F1        1.0  0.32400  0.32400  0.00000  1.0000
  F   F2        1.0  0.67600  0.67600  0.00000  1.0000
  F   F3        1.0  0.74000  0.26000  0.09740  1.0000
  F   F4        1.0  0.17500  0.22200  0.31300  1.0000
  F   F5        1.0  0.77800  0.82500  0.31300  1.0000
  F   F6        1.0  0.24400  0.75600  0.34400  1.0000
  F   F7        1.0  0.50000  0.50000  0.50000  1.0000
  F   F8        1.0  0.75600  0.24400  0.65600  1.0000
  F   F9        1.0  0.22200  0.17500  0.68700  1.0000
  F   F10       1.0  0.82500  0.77800  0.68700  1.0000
  F   F11       1.0  0.26000  0.74000  0.90300  1.0000
  Na  Na1       1.0  0.00000  0.00000  0.00000  1.0000
  Zr  Zr1       1.0  0.49500  0.50500  0.23400  1.0000
  Zr  Zr2       1.0  0.50500  0.49500  0.76600  1.0000
