data_image0
_chemical_formula_structural       Co2Na7O6Rb
_chemical_formula_sum              "Co2 Na7 O6 Rb1"
_cell_length_a       4.35912
_cell_length_b       5.80348
_cell_length_c       10.6492
_cell_angle_alpha    91.5209
_cell_angle_beta     90
_cell_angle_gamma    112.059

_space_group_name_H-M_alt    "P 1"
_space_group_IT_number       1

loop_
  _space_group_symop_operation_xyz
  'x, y, z'

loop_
  _atom_site_type_symbol
  _atom_site_label
  _atom_site_symmetry_multiplicity
  _atom_site_fract_x
  _atom_site_fract_y
  _atom_site_fract_z
  _atom_site_occupancy
  Co  Co1       1.0  0.58200  0.16500  0.23900  1.0000
  Co  Co2       1.0  0.41800  0.83500  0.76100  1.0000
  Na  Na1       1.0  0.27200  0.54400  0.10500  1.0000
  Na  Na2       1.0  0.85500  0.71000  0.27900  1.0000
  Na  Na3       1.0  0.23300  0.46500  0.40500  1.0000
  Na  Na4       1.0  0.50000  0.00000  0.50000  1.0000
  Na  Na5       1.0  0.76700  0.53500  0.59500  1.0000
  Na  Na6       1.0  0.14500  0.29000  0.72100  1.0000
  Na  Na7       1.0  0.72800  0.45600  0.89500  1.0000
  O   O1        1.0  0.68500  0.36900  0.10500  1.0000
  O   O2        1.0  0.41500  0.83100  0.27100  1.0000
  O   O3        1.0  0.67700  0.35400  0.39500  1.0000
  O   O4        1.0  0.32300  0.64600  0.60500  1.0000
  O   O5        1.0  0.58500  0.16900  0.72900  1.0000
  O   O6        1.0  0.31500  0.63100  0.89500  1.0000
  Rb  Rb1       1.0  0.00000  0.00000  0.00000  1.0000
