data_image0
_chemical_formula_structural       Co9H6Y3
_chemical_formula_sum              "Co9 H6 Y3"
_cell_length_a       4.92197
_cell_length_b       4.92197
_cell_length_c       9.43436
_cell_angle_alpha    74.8793
_cell_angle_beta     105.121
_cell_angle_gamma    120

_space_group_name_H-M_alt    "P 1"
_space_group_IT_number       1

loop_
  _space_group_symop_operation_xyz
  'x, y, z'

loop_
  _atom_site_type_symbol
  _atom_site_label
  _atom_site_symmetry_multiplicity
  _atom_site_fract_x
  _atom_site_fract_y
  _atom_site_fract_z
  _atom_site_occupancy
  Co  Co1       1.0  0.66800  0.33200  0.00349  1.0000
  Co  Co2       1.0  0.07340  0.42900  0.21600  1.0000
  Co  Co3       1.0  0.57100  0.42900  0.21600  1.0000
  Co  Co4       1.0  0.57100  0.92700  0.21600  1.0000
  Co  Co5       1.0  0.50000  0.50000  0.50000  1.0000
  Co  Co6       1.0  0.42900  0.07340  0.78400  1.0000
  Co  Co7       1.0  0.42900  0.57100  0.78400  1.0000
  Co  Co8       1.0  0.92700  0.57100  0.78400  1.0000
  Co  Co9       1.0  0.33200  0.66800  0.99700  1.0000
  H   H1        1.0  0.13800  0.36700  0.40400  1.0000
  H   H2        1.0  0.63300  0.36700  0.40400  1.0000
  H   H3        1.0  0.63300  0.86200  0.40400  1.0000
  H   H4        1.0  0.36700  0.13800  0.59600  1.0000
  H   H5        1.0  0.36700  0.63300  0.59600  1.0000
  H   H6        1.0  0.86200  0.63300  0.59600  1.0000
  Y   Y1        1.0  0.00000  0.00000  0.00000  1.0000
  Y   Y2        1.0  0.12800  0.87200  0.38500  1.0000
  Y   Y3        1.0  0.87200  0.12800  0.61500  1.0000
