data_image0
_chemical_formula_structural       C4Co2H4N8
_chemical_formula_sum              "C4 Co2 H4 N8"
_cell_length_a       6.49162
_cell_length_b       8.61815
_cell_length_c       3.10829
_cell_angle_alpha    90
_cell_angle_beta     90
_cell_angle_gamma    90

_space_group_name_H-M_alt    "P 1"
_space_group_IT_number       1

loop_
  _space_group_symop_operation_xyz
  'x, y, z'

loop_
  _atom_site_type_symbol
  _atom_site_label
  _atom_site_symmetry_multiplicity
  _atom_site_fract_x
  _atom_site_fract_y
  _atom_site_fract_z
  _atom_site_occupancy
  C   C1        1.0  0.83500  0.34400  0.00000  1.0000
  C   C2        1.0  0.16500  0.65600  0.00000  1.0000
  C   C3        1.0  0.33500  0.15600  0.50000  1.0000
  C   C4        1.0  0.66500  0.84400  0.50000  1.0000
  Co  Co1       1.0  0.00000  0.00000  0.00000  1.0000
  Co  Co2       1.0  0.50000  0.50000  0.50000  1.0000
  H   H1        1.0  0.18800  0.42900  0.00000  1.0000
  H   H2        1.0  0.81200  0.57100  0.00000  1.0000
  H   H3        1.0  0.68800  0.07070  0.50000  1.0000
  H   H4        1.0  0.31200  0.92900  0.50000  1.0000
  N   N1        1.0  0.92200  0.22300  0.00000  1.0000
  N   N2        1.0  0.72700  0.47000  0.00000  1.0000
  N   N3        1.0  0.27300  0.53000  0.00000  1.0000
  N   N4        1.0  0.07820  0.77700  0.00000  1.0000
  N   N5        1.0  0.22700  0.02960  0.50000  1.0000
  N   N6        1.0  0.42200  0.27700  0.50000  1.0000
  N   N7        1.0  0.57800  0.72300  0.50000  1.0000
  N   N8        1.0  0.77300  0.97000  0.50000  1.0000
