data_image0
_chemical_formula_structural       Mo2O11Ta2
_chemical_formula_sum              "Mo2 O11 Ta2"
_cell_length_a       5.65508
_cell_length_b       5.65508
_cell_length_c       8.87725
_cell_angle_alpha    108.573
_cell_angle_beta     108.573
_cell_angle_gamma    60

_space_group_name_H-M_alt    "P 1"
_space_group_IT_number       1

loop_
  _space_group_symop_operation_xyz
  'x, y, z'

loop_
  _atom_site_type_symbol
  _atom_site_label
  _atom_site_symmetry_multiplicity
  _atom_site_fract_x
  _atom_site_fract_y
  _atom_site_fract_z
  _atom_site_occupancy
  Mo  Mo1       1.0  0.11700  0.11700  0.35100  1.0000
  Mo  Mo2       1.0  0.88300  0.88300  0.64900  1.0000
  O   O1        1.0  0.50000  0.00000  0.00000  1.0000
  O   O2        1.0  0.00000  0.50000  0.00000  1.0000
  O   O3        1.0  0.50000  0.50000  0.00000  1.0000
  O   O4        1.0  0.74700  0.26500  0.27700  1.0000
  O   O5        1.0  0.26500  0.26500  0.27700  1.0000
  O   O6        1.0  0.26500  0.74700  0.27700  1.0000
  O   O7        1.0  0.81300  0.81300  0.44000  1.0000
  O   O8        1.0  0.18700  0.18700  0.56000  1.0000
  O   O9        1.0  0.73500  0.25300  0.72300  1.0000
  O   O10       1.0  0.73500  0.73500  0.72300  1.0000
  O   O11       1.0  0.25300  0.73500  0.72300  1.0000
  Ta  Ta1       1.0  0.37400  0.37400  0.12100  1.0000
  Ta  Ta2       1.0  0.62600  0.62600  0.87900  1.0000
