data_image0
_chemical_formula_structural       C4Co4Fe8
_chemical_formula_sum              "C4 Co4 Fe8"
_cell_length_a       4.99278
_cell_length_b       6.65909
_cell_length_c       4.50246
_cell_angle_alpha    90
_cell_angle_beta     90
_cell_angle_gamma    90

_space_group_name_H-M_alt    "P 1"
_space_group_IT_number       1

loop_
  _space_group_symop_operation_xyz
  'x, y, z'

loop_
  _atom_site_type_symbol
  _atom_site_label
  _atom_site_symmetry_multiplicity
  _atom_site_fract_x
  _atom_site_fract_y
  _atom_site_fract_z
  _atom_site_occupancy
  C   C1        1.0  0.37500  0.25000  0.04860  1.0000
  C   C2        1.0  0.87500  0.25000  0.45100  1.0000
  C   C3        1.0  0.12500  0.75000  0.54900  1.0000
  C   C4        1.0  0.62500  0.75000  0.95100  1.0000
  Co  Co1       1.0  0.96400  0.75000  0.15700  1.0000
  Co  Co2       1.0  0.46400  0.75000  0.34300  1.0000
  Co  Co3       1.0  0.53600  0.25000  0.65700  1.0000
  Co  Co4       1.0  0.03600  0.25000  0.84300  1.0000
  Fe  Fe1       1.0  0.67900  0.06910  0.16800  1.0000
  Fe  Fe2       1.0  0.67900  0.43100  0.16800  1.0000
  Fe  Fe3       1.0  0.17900  0.06910  0.33200  1.0000
  Fe  Fe4       1.0  0.17900  0.43100  0.33200  1.0000
  Fe  Fe5       1.0  0.82100  0.56900  0.66800  1.0000
  Fe  Fe6       1.0  0.82100  0.93100  0.66800  1.0000
  Fe  Fe7       1.0  0.32100  0.56900  0.83200  1.0000
  Fe  Fe8       1.0  0.32100  0.93100  0.83200  1.0000
