data_image0
_chemical_formula_structural       Cl2Co3O8Sr4
_chemical_formula_sum              "Cl2 Co3 O8 Sr4"
_cell_length_a       3.90775
_cell_length_b       3.90775
_cell_length_c       15.8359
_cell_angle_alpha    97.0874
_cell_angle_beta     97.0874
_cell_angle_gamma    90

_space_group_name_H-M_alt    "P 1"
_space_group_IT_number       1

loop_
  _space_group_symop_operation_xyz
  'x, y, z'

loop_
  _atom_site_type_symbol
  _atom_site_label
  _atom_site_symmetry_multiplicity
  _atom_site_fract_x
  _atom_site_fract_y
  _atom_site_fract_z
  _atom_site_occupancy
  Cl  Cl1       1.0  0.21700  0.21700  0.43400  1.0000
  Cl  Cl2       1.0  0.78300  0.78300  0.56600  1.0000
  Co  Co1       1.0  0.00000  0.00000  0.00000  1.0000
  Co  Co2       1.0  0.11800  0.11800  0.23600  1.0000
  Co  Co3       1.0  0.88200  0.88200  0.76400  1.0000
  O   O1        1.0  0.50000  0.00000  0.00000  1.0000
  O   O2        1.0  0.00000  0.50000  0.00000  1.0000
  O   O3        1.0  0.06150  0.06150  0.12300  1.0000
  O   O4        1.0  0.62900  0.12900  0.25700  1.0000
  O   O5        1.0  0.12900  0.62900  0.25700  1.0000
  O   O6        1.0  0.87100  0.37100  0.74300  1.0000
  O   O7        1.0  0.37100  0.87100  0.74300  1.0000
  O   O8        1.0  0.93800  0.93800  0.87700  1.0000
  Sr  Sr1       1.0  0.55900  0.55900  0.11800  1.0000
  Sr  Sr2       1.0  0.68000  0.68000  0.36000  1.0000
  Sr  Sr3       1.0  0.32000  0.32000  0.64000  1.0000
  Sr  Sr4       1.0  0.44100  0.44100  0.88200  1.0000
