data_image0
_chemical_formula_structural       Hg4N4O8
_chemical_formula_sum              "Hg4 N4 O8"
_cell_length_a       4.36084
_cell_length_b       10.3081
_cell_length_c       6.15615
_cell_angle_alpha    90
_cell_angle_beta     108.3
_cell_angle_gamma    90

_space_group_name_H-M_alt    "P 1"
_space_group_IT_number       1

loop_
  _space_group_symop_operation_xyz
  'x, y, z'

loop_
  _atom_site_type_symbol
  _atom_site_label
  _atom_site_symmetry_multiplicity
  _atom_site_fract_x
  _atom_site_fract_y
  _atom_site_fract_z
  _atom_site_occupancy
  Hg  Hg1       1.0  0.15300  0.91700  0.15100  1.0000
  Hg  Hg2       1.0  0.84700  0.41700  0.34900  1.0000
  Hg  Hg3       1.0  0.15300  0.58300  0.65100  1.0000
  Hg  Hg4       1.0  0.84700  0.08340  0.84900  1.0000
  N   N1        1.0  0.31600  0.29100  0.00308  1.0000
  N   N2        1.0  0.68400  0.79100  0.49700  1.0000
  N   N3        1.0  0.31600  0.20900  0.50300  1.0000
  N   N4        1.0  0.68400  0.70900  0.99700  1.0000
  O   O1        1.0  0.25400  0.40100  0.06530  1.0000
  O   O2        1.0  0.60700  0.25300  0.09580  1.0000
  O   O3        1.0  0.39300  0.75300  0.40400  1.0000
  O   O4        1.0  0.74600  0.90100  0.43500  1.0000
  O   O5        1.0  0.25400  0.09940  0.56500  1.0000
  O   O6        1.0  0.60700  0.24700  0.59600  1.0000
  O   O7        1.0  0.39300  0.74700  0.90400  1.0000
  O   O8        1.0  0.74600  0.59900  0.93500  1.0000
