data_image0
_chemical_formula_structural       Co7Ge6Sc4
_chemical_formula_sum              "Co7 Ge6 Sc4"
_cell_length_a       6.79436
_cell_length_b       6.79436
_cell_length_c       6.79436
_cell_angle_alpha    109.471
_cell_angle_beta     109.471
_cell_angle_gamma    109.471

_space_group_name_H-M_alt    "P 1"
_space_group_IT_number       1

loop_
  _space_group_symop_operation_xyz
  'x, y, z'

loop_
  _atom_site_type_symbol
  _atom_site_label
  _atom_site_symmetry_multiplicity
  _atom_site_fract_x
  _atom_site_fract_y
  _atom_site_fract_z
  _atom_site_occupancy
  Co  Co1       1.0  0.00000  0.00000  0.00000  1.0000
  Co  Co2       1.0  0.75000  0.50000  0.25000  1.0000
  Co  Co3       1.0  0.50000  0.75000  0.25000  1.0000
  Co  Co4       1.0  0.75000  0.25000  0.50000  1.0000
  Co  Co5       1.0  0.25000  0.75000  0.50000  1.0000
  Co  Co6       1.0  0.50000  0.25000  0.75000  1.0000
  Co  Co7       1.0  0.25000  0.50000  0.75000  1.0000
  Ge  Ge1       1.0  0.31700  0.31700  0.00000  1.0000
  Ge  Ge2       1.0  0.68300  0.68300  0.00000  1.0000
  Ge  Ge3       1.0  0.31700  0.00000  0.31700  1.0000
  Ge  Ge4       1.0  0.00000  0.31700  0.31700  1.0000
  Ge  Ge5       1.0  0.68300  0.00000  0.68300  1.0000
  Ge  Ge6       1.0  0.00000  0.68300  0.68300  1.0000
  Sc  Sc1       1.0  0.50000  0.00000  0.00000  1.0000
  Sc  Sc2       1.0  0.00000  0.50000  0.00000  1.0000
  Sc  Sc3       1.0  0.00000  0.00000  0.50000  1.0000
  Sc  Sc4       1.0  0.50000  0.50000  0.50000  1.0000
