data_image0
_chemical_formula_structural       Co4Dy12Ga2
_chemical_formula_sum              "Co4 Dy12 Ga2"
_cell_length_a       8.2568
_cell_length_b       8.2568
_cell_length_c       8.2568
_cell_angle_alpha    112.003
_cell_angle_beta     106.934
_cell_angle_gamma    109.516

_space_group_name_H-M_alt    "P 1"
_space_group_IT_number       1

loop_
  _space_group_symop_operation_xyz
  'x, y, z'

loop_
  _atom_site_type_symbol
  _atom_site_label
  _atom_site_symmetry_multiplicity
  _atom_site_fract_x
  _atom_site_fract_y
  _atom_site_fract_z
  _atom_site_occupancy
  Co  Co1       1.0  0.11500  0.00000  0.11500  1.0000
  Co  Co2       1.0  0.33600  0.83600  0.50000  1.0000
  Co  Co3       1.0  0.66400  0.16400  0.50000  1.0000
  Co  Co4       1.0  0.88500  0.00000  0.88500  1.0000
  Dy  Dy1       1.0  0.32600  0.81200  0.13900  1.0000
  Dy  Dy2       1.0  0.18100  0.40000  0.21900  1.0000
  Dy  Dy3       1.0  0.81900  0.03860  0.21900  1.0000
  Dy  Dy4       1.0  0.56500  0.30300  0.26100  1.0000
  Dy  Dy5       1.0  0.95800  0.69700  0.26100  1.0000
  Dy  Dy6       1.0  0.67400  0.81200  0.48600  1.0000
  Dy  Dy7       1.0  0.32600  0.18800  0.51400  1.0000
  Dy  Dy8       1.0  0.04200  0.30300  0.73900  1.0000
  Dy  Dy9       1.0  0.43500  0.69700  0.73900  1.0000
  Dy  Dy10      1.0  0.18100  0.96100  0.78100  1.0000
  Dy  Dy11      1.0  0.81900  0.60000  0.78100  1.0000
  Dy  Dy12      1.0  0.67400  0.18800  0.86100  1.0000
  Ga  Ga1       1.0  0.50000  0.50000  0.00000  1.0000
  Ga  Ga2       1.0  0.00000  0.50000  0.50000  1.0000
