data_image0
_chemical_formula_structural       Co4Ge6Sc6
_chemical_formula_sum              "Co4 Ge6 Sc6"
_cell_length_a       4.03885
_cell_length_b       5.33956
_cell_length_c       13.2697
_cell_angle_alpha    90
_cell_angle_beta     90
_cell_angle_gamma    67.7777

_space_group_name_H-M_alt    "P 1"
_space_group_IT_number       1

loop_
  _space_group_symop_operation_xyz
  'x, y, z'

loop_
  _atom_site_type_symbol
  _atom_site_label
  _atom_site_symmetry_multiplicity
  _atom_site_fract_x
  _atom_site_fract_y
  _atom_site_fract_z
  _atom_site_occupancy
  Co  Co1       1.0  0.70900  0.58200  0.09820  1.0000
  Co  Co2       1.0  0.70900  0.58200  0.40200  1.0000
  Co  Co3       1.0  0.29100  0.41800  0.59800  1.0000
  Co  Co4       1.0  0.29100  0.41800  0.90200  1.0000
  Ge  Ge1       1.0  0.12300  0.75300  0.03980  1.0000
  Ge  Ge2       1.0  0.84700  0.30700  0.25000  1.0000
  Ge  Ge3       1.0  0.12300  0.75300  0.46000  1.0000
  Ge  Ge4       1.0  0.87700  0.24700  0.54000  1.0000
  Ge  Ge5       1.0  0.15300  0.69300  0.75000  1.0000
  Ge  Ge6       1.0  0.87700  0.24700  0.96000  1.0000
  Sc  Sc1       1.0  0.42100  0.15900  0.11100  1.0000
  Sc  Sc2       1.0  0.14700  0.70600  0.25000  1.0000
  Sc  Sc3       1.0  0.42100  0.15900  0.38900  1.0000
  Sc  Sc4       1.0  0.57900  0.84100  0.61100  1.0000
  Sc  Sc5       1.0  0.85300  0.29400  0.75000  1.0000
  Sc  Sc6       1.0  0.57900  0.84100  0.88900  1.0000
