data_image0
_chemical_formula_structural       Fe2H4O10V2
_chemical_formula_sum              "Fe2 H4 O10 V2"
_cell_length_a       5.38295
_cell_length_b       5.62018
_cell_length_c       6.58098
_cell_angle_alpha    101.18
_cell_angle_beta     95.472
_cell_angle_gamma    106.761

_space_group_name_H-M_alt    "P 1"
_space_group_IT_number       1

loop_
  _space_group_symop_operation_xyz
  'x, y, z'

loop_
  _atom_site_type_symbol
  _atom_site_label
  _atom_site_symmetry_multiplicity
  _atom_site_fract_x
  _atom_site_fract_y
  _atom_site_fract_z
  _atom_site_occupancy
  Fe  Fe1       1.0  0.36700  0.78100  0.29700  1.0000
  Fe  Fe2       1.0  0.63300  0.21900  0.70300  1.0000
  H   H1        1.0  0.12600  0.14600  0.27200  1.0000
  H   H2        1.0  0.92100  0.88400  0.29500  1.0000
  H   H3        1.0  0.07950  0.11600  0.70500  1.0000
  H   H4        1.0  0.87400  0.85400  0.72800  1.0000
  O   O1        1.0  0.40800  0.73900  0.00552  1.0000
  O   O2        1.0  0.08830  0.95900  0.24500  1.0000
  O   O3        1.0  0.08400  0.45900  0.26300  1.0000
  O   O4        1.0  0.66300  0.64700  0.34800  1.0000
  O   O5        1.0  0.63300  0.13600  0.38600  1.0000
  O   O6        1.0  0.36700  0.86400  0.61400  1.0000
  O   O7        1.0  0.33700  0.35300  0.65200  1.0000
  O   O8        1.0  0.91600  0.54100  0.73700  1.0000
  O   O9        1.0  0.91200  0.04080  0.75500  1.0000
  O   O10       1.0  0.59200  0.26100  0.99400  1.0000
  V   V1        1.0  0.74400  0.37800  0.24600  1.0000
  V   V2        1.0  0.25600  0.62200  0.75400  1.0000
