data_image0
_chemical_formula_structural       Br4Co2O6Sb4
_chemical_formula_sum              "Br4 Co2 O6 Sb4"
_cell_length_a       5.31297
_cell_length_b       7.79532
_cell_length_c       8.04935
_cell_angle_alpha    88.5113
_cell_angle_beta     81.6456
_cell_angle_gamma    80.6443

_space_group_name_H-M_alt    "P 1"
_space_group_IT_number       1

loop_
  _space_group_symop_operation_xyz
  'x, y, z'

loop_
  _atom_site_type_symbol
  _atom_site_label
  _atom_site_symmetry_multiplicity
  _atom_site_fract_x
  _atom_site_fract_y
  _atom_site_fract_z
  _atom_site_occupancy
  Br  Br1       1.0  0.34600  0.79700  0.21700  1.0000
  Br  Br2       1.0  0.74900  0.12600  0.30000  1.0000
  Br  Br3       1.0  0.25100  0.87400  0.70000  1.0000
  Br  Br4       1.0  0.65400  0.20300  0.78300  1.0000
  Co  Co1       1.0  0.52100  0.48300  0.29100  1.0000
  Co  Co2       1.0  0.47900  0.51700  0.70900  1.0000
  O   O1        1.0  0.78300  0.48300  0.08610  1.0000
  O   O2        1.0  0.22700  0.35700  0.24000  1.0000
  O   O3        1.0  0.76300  0.48900  0.47200  1.0000
  O   O4        1.0  0.23700  0.51100  0.52800  1.0000
  O   O5        1.0  0.77300  0.64300  0.76000  1.0000
  O   O6        1.0  0.21700  0.51700  0.91400  1.0000
  Sb  Sb1       1.0  0.10300  0.29700  0.02580  1.0000
  Sb  Sb2       1.0  0.06750  0.28700  0.47400  1.0000
  Sb  Sb3       1.0  0.93200  0.71300  0.52600  1.0000
  Sb  Sb4       1.0  0.89700  0.70300  0.97400  1.0000
