data_image0
_chemical_formula_structural       Bi2Co4Ho10
_chemical_formula_sum              "Bi2 Co4 Ho10"
_cell_length_a       7.54791
_cell_length_b       7.54791
_cell_length_c       8.68245
_cell_angle_alpha    115.764
_cell_angle_beta     115.764
_cell_angle_gamma    90

_space_group_name_H-M_alt    "P 1"
_space_group_IT_number       1

loop_
  _space_group_symop_operation_xyz
  'x, y, z'

loop_
  _atom_site_type_symbol
  _atom_site_label
  _atom_site_symmetry_multiplicity
  _atom_site_fract_x
  _atom_site_fract_y
  _atom_site_fract_z
  _atom_site_occupancy
  Bi  Bi1       1.0  0.25000  0.25000  0.50000  1.0000
  Bi  Bi2       1.0  0.75000  0.75000  0.50000  1.0000
  Co  Co1       1.0  0.63600  0.13600  0.00000  1.0000
  Co  Co2       1.0  0.13600  0.36400  0.00000  1.0000
  Co  Co3       1.0  0.86400  0.63600  0.00000  1.0000
  Co  Co4       1.0  0.36400  0.86400  0.00000  1.0000
  Ho  Ho1       1.0  0.00000  0.00000  0.00000  1.0000
  Ho  Ho2       1.0  0.50000  0.50000  0.00000  1.0000
  Ho  Ho3       1.0  0.47100  0.28700  0.25800  1.0000
  Ho  Ho4       1.0  0.97100  0.47100  0.25800  1.0000
  Ho  Ho5       1.0  0.28700  0.78700  0.25800  1.0000
  Ho  Ho6       1.0  0.78700  0.97100  0.25800  1.0000
  Ho  Ho7       1.0  0.21300  0.02890  0.74200  1.0000
  Ho  Ho8       1.0  0.71300  0.21300  0.74200  1.0000
  Ho  Ho9       1.0  0.02890  0.52900  0.74200  1.0000
  Ho  Ho10      1.0  0.52900  0.71300  0.74200  1.0000
