data_image0
_chemical_formula_structural       Ba2Co2La4S10
_chemical_formula_sum              "Ba2 Co2 La4 S10"
_cell_length_a       7.96816
_cell_length_b       7.96816
_cell_length_c       8.79071
_cell_angle_alpha    116.95
_cell_angle_beta     116.95
_cell_angle_gamma    90

_space_group_name_H-M_alt    "P 1"
_space_group_IT_number       1

loop_
  _space_group_symop_operation_xyz
  'x, y, z'

loop_
  _atom_site_type_symbol
  _atom_site_label
  _atom_site_symmetry_multiplicity
  _atom_site_fract_x
  _atom_site_fract_y
  _atom_site_fract_z
  _atom_site_occupancy
  Ba  Ba1       1.0  0.25000  0.25000  0.50000  1.0000
  Ba  Ba2       1.0  0.75000  0.75000  0.50000  1.0000
  Co  Co1       1.0  0.75000  0.25000  0.50000  1.0000
  Co  Co2       1.0  0.25000  0.75000  0.50000  1.0000
  La  La1       1.0  0.33600  0.16400  0.00000  1.0000
  La  La2       1.0  0.83600  0.33600  0.00000  1.0000
  La  La3       1.0  0.16400  0.66400  0.00000  1.0000
  La  La4       1.0  0.66400  0.83600  0.00000  1.0000
  S   S1        1.0  0.00000  0.00000  0.00000  1.0000
  S   S2        1.0  0.50000  0.50000  0.00000  1.0000
  S   S3        1.0  0.78400  0.28400  0.27500  1.0000
  S   S4        1.0  0.28400  0.49100  0.27500  1.0000
  S   S5        1.0  0.99100  0.78400  0.27500  1.0000
  S   S6        1.0  0.49100  0.99100  0.27500  1.0000
  S   S7        1.0  0.50900  0.00870  0.72500  1.0000
  S   S8        1.0  0.00870  0.21600  0.72500  1.0000
  S   S9        1.0  0.71600  0.50900  0.72500  1.0000
  S   S10       1.0  0.21600  0.71600  0.72500  1.0000
