data_image0
_chemical_formula_structural       Co4Ga2Tm12
_chemical_formula_sum              "Co4 Ga2 Tm12"
_cell_length_a       8.14291
_cell_length_b       8.14291
_cell_length_c       8.14291
_cell_angle_alpha    110.269
_cell_angle_beta     106.574
_cell_angle_gamma    111.612

_space_group_name_H-M_alt    "P 1"
_space_group_IT_number       1

loop_
  _space_group_symop_operation_xyz
  'x, y, z'

loop_
  _atom_site_type_symbol
  _atom_site_label
  _atom_site_symmetry_multiplicity
  _atom_site_fract_x
  _atom_site_fract_y
  _atom_site_fract_z
  _atom_site_occupancy
  Co  Co1       1.0  0.11500  0.00000  0.11500  1.0000
  Co  Co2       1.0  0.50000  0.86600  0.36600  1.0000
  Co  Co3       1.0  0.50000  0.13400  0.63400  1.0000
  Co  Co4       1.0  0.88500  0.00000  0.88500  1.0000
  Ga  Ga1       1.0  0.50000  0.50000  0.00000  1.0000
  Ga  Ga2       1.0  0.00000  0.50000  0.50000  1.0000
  Tm  Tm1       1.0  0.73500  0.29900  0.03380  1.0000
  Tm  Tm2       1.0  0.21700  0.40100  0.18400  1.0000
  Tm  Tm3       1.0  0.78300  0.96600  0.18400  1.0000
  Tm  Tm4       1.0  0.51500  0.19500  0.32000  1.0000
  Tm  Tm5       1.0  0.12500  0.80500  0.32000  1.0000
  Tm  Tm6       1.0  0.73500  0.70100  0.43600  1.0000
  Tm  Tm7       1.0  0.26500  0.29900  0.56400  1.0000
  Tm  Tm8       1.0  0.87500  0.19500  0.68000  1.0000
  Tm  Tm9       1.0  0.48500  0.80500  0.68000  1.0000
  Tm  Tm10      1.0  0.21700  0.03390  0.81600  1.0000
  Tm  Tm11      1.0  0.78300  0.59900  0.81600  1.0000
  Tm  Tm12      1.0  0.26500  0.70100  0.96600  1.0000
