data_image0
_chemical_formula_structural       Co6Ga2Pr6
_chemical_formula_sum              "Co6 Ga2 Pr6"
_cell_length_a       4.2221
_cell_length_b       5.57516
_cell_length_c       13.2286
_cell_angle_alpha    90
_cell_angle_beta     90
_cell_angle_gamma    67.7497

_space_group_name_H-M_alt    "P 1"
_space_group_IT_number       1

loop_
  _space_group_symop_operation_xyz
  'x, y, z'

loop_
  _atom_site_type_symbol
  _atom_site_label
  _atom_site_symmetry_multiplicity
  _atom_site_fract_x
  _atom_site_fract_y
  _atom_site_fract_z
  _atom_site_occupancy
  Co  Co1       1.0  0.92000  0.16000  0.09430  1.0000
  Co  Co2       1.0  0.81000  0.37900  0.25000  1.0000
  Co  Co3       1.0  0.92000  0.16000  0.40600  1.0000
  Co  Co4       1.0  0.08000  0.84000  0.59400  1.0000
  Co  Co5       1.0  0.19000  0.62100  0.75000  1.0000
  Co  Co6       1.0  0.08000  0.84000  0.90600  1.0000
  Ga  Ga1       1.0  0.50000  0.00000  0.00000  1.0000
  Ga  Ga2       1.0  0.50000  0.00000  0.50000  1.0000
  Pr  Pr1       1.0  0.20900  0.58200  0.10200  1.0000
  Pr  Pr2       1.0  0.50000  0.00030  0.25000  1.0000
  Pr  Pr3       1.0  0.20900  0.58200  0.39800  1.0000
  Pr  Pr4       1.0  0.79100  0.41800  0.60200  1.0000
  Pr  Pr5       1.0  0.50000  0.00000  0.75000  1.0000
  Pr  Pr6       1.0  0.79100  0.41800  0.89800  1.0000
