data_image0
_chemical_formula_structural       Co6Ga2Sm6
_chemical_formula_sum              "Co6 Ga2 Sm6"
_cell_length_a       4.1825
_cell_length_b       5.48111
_cell_length_c       13.0838
_cell_angle_alpha    90
_cell_angle_beta     90
_cell_angle_gamma    67.571

_space_group_name_H-M_alt    "P 1"
_space_group_IT_number       1

loop_
  _space_group_symop_operation_xyz
  'x, y, z'

loop_
  _atom_site_type_symbol
  _atom_site_label
  _atom_site_symmetry_multiplicity
  _atom_site_fract_x
  _atom_site_fract_y
  _atom_site_fract_z
  _atom_site_occupancy
  Co  Co1       1.0  0.91800  0.16400  0.09450  1.0000
  Co  Co2       1.0  0.80300  0.39400  0.25000  1.0000
  Co  Co3       1.0  0.91800  0.16400  0.40500  1.0000
  Co  Co4       1.0  0.08220  0.83600  0.59500  1.0000
  Co  Co5       1.0  0.19700  0.60600  0.75000  1.0000
  Co  Co6       1.0  0.08220  0.83600  0.90500  1.0000
  Ga  Ga1       1.0  0.50000  0.00000  0.00000  1.0000
  Ga  Ga2       1.0  0.50000  0.00000  0.50000  1.0000
  Sm  Sm1       1.0  0.20700  0.58600  0.10300  1.0000
  Sm  Sm2       1.0  0.49700  0.00567  0.25000  1.0000
  Sm  Sm3       1.0  0.20700  0.58600  0.39700  1.0000
  Sm  Sm4       1.0  0.79300  0.41400  0.60300  1.0000
  Sm  Sm5       1.0  0.50300  0.99400  0.75000  1.0000
  Sm  Sm6       1.0  0.79300  0.41400  0.89700  1.0000
