data_image0
_chemical_formula_structural       Co3La4O10
_chemical_formula_sum              "Co3 La4 O10"
_cell_length_a       3.80472
_cell_length_b       3.80472
_cell_length_c       14.3684
_cell_angle_alpha    97.5976
_cell_angle_beta     97.5976
_cell_angle_gamma    90.0799

_space_group_name_H-M_alt    "P 1"
_space_group_IT_number       1

loop_
  _space_group_symop_operation_xyz
  'x, y, z'

loop_
  _atom_site_type_symbol
  _atom_site_label
  _atom_site_symmetry_multiplicity
  _atom_site_fract_x
  _atom_site_fract_y
  _atom_site_fract_z
  _atom_site_occupancy
  Co  Co1       1.0  0.00000  0.00000  0.00000  1.0000
  Co  Co2       1.0  0.13900  0.13900  0.27900  1.0000
  Co  Co3       1.0  0.86100  0.86100  0.72100  1.0000
  La  La1       1.0  0.56600  0.56600  0.13200  1.0000
  La  La2       1.0  0.70000  0.70000  0.39900  1.0000
  La  La3       1.0  0.30000  0.30000  0.60100  1.0000
  La  La4       1.0  0.43400  0.43400  0.86800  1.0000
  O   O1        1.0  0.50000  0.00000  0.00000  1.0000
  O   O2        1.0  0.00000  0.50000  0.00000  1.0000
  O   O3        1.0  0.06700  0.06700  0.13400  1.0000
  O   O4        1.0  0.64000  0.14000  0.28000  1.0000
  O   O5        1.0  0.14000  0.64000  0.28000  1.0000
  O   O6        1.0  0.21800  0.21800  0.43600  1.0000
  O   O7        1.0  0.78200  0.78200  0.56400  1.0000
  O   O8        1.0  0.86000  0.36000  0.72000  1.0000
  O   O9        1.0  0.36000  0.86000  0.72000  1.0000
  O   O10       1.0  0.93300  0.93300  0.86600  1.0000
