data_image0
_chemical_formula_structural       Co2H4O10S2
_chemical_formula_sum              "Co2 H4 O10 S2"
_cell_length_a       5.10131
_cell_length_b       5.10131
_cell_length_c       7.39194
_cell_angle_alpha    107.823
_cell_angle_beta     107.823
_cell_angle_gamma    95.4014

_space_group_name_H-M_alt    "P 1"
_space_group_IT_number       1

loop_
  _space_group_symop_operation_xyz
  'x, y, z'

loop_
  _atom_site_type_symbol
  _atom_site_label
  _atom_site_symmetry_multiplicity
  _atom_site_fract_x
  _atom_site_fract_y
  _atom_site_fract_z
  _atom_site_occupancy
  Co  Co1       1.0  0.50000  0.50000  0.00000  1.0000
  Co  Co2       1.0  0.00000  0.00000  0.50000  1.0000
  H   H1        1.0  0.05290  0.62300  0.20300  1.0000
  H   H2        1.0  0.87700  0.44700  0.29700  1.0000
  H   H3        1.0  0.12300  0.55300  0.70300  1.0000
  H   H4        1.0  0.94700  0.37700  0.79700  1.0000
  O   O1        1.0  0.30200  0.22100  0.09160  1.0000
  O   O2        1.0  0.31800  0.78300  0.15800  1.0000
  O   O3        1.0  0.88900  0.61100  0.25000  1.0000
  O   O4        1.0  0.71700  0.18200  0.34200  1.0000
  O   O5        1.0  0.27900  0.19800  0.40800  1.0000
  O   O6        1.0  0.72100  0.80200  0.59200  1.0000
  O   O7        1.0  0.28300  0.81800  0.65800  1.0000
  O   O8        1.0  0.11100  0.38900  0.75000  1.0000
  O   O9        1.0  0.68200  0.21700  0.84200  1.0000
  O   O10       1.0  0.69800  0.77900  0.90800  1.0000
  S   S1        1.0  0.40200  0.09770  0.25000  1.0000
  S   S2        1.0  0.59800  0.90200  0.75000  1.0000
