data_image0
_chemical_formula_structural       Co2O12Ta4
_chemical_formula_sum              "Co2 O12 Ta4"
_cell_length_a       4.7454
_cell_length_b       4.7454
_cell_length_c       9.14377
_cell_angle_alpha    90
_cell_angle_beta     90
_cell_angle_gamma    90

_space_group_name_H-M_alt    "P 1"
_space_group_IT_number       1

loop_
  _space_group_symop_operation_xyz
  'x, y, z'

loop_
  _atom_site_type_symbol
  _atom_site_label
  _atom_site_symmetry_multiplicity
  _atom_site_fract_x
  _atom_site_fract_y
  _atom_site_fract_z
  _atom_site_occupancy
  Co  Co1       1.0  0.00000  0.00000  0.00000  1.0000
  Co  Co2       1.0  0.50000  0.50000  0.50000  1.0000
  O   O1        1.0  0.30900  0.30900  0.00000  1.0000
  O   O2        1.0  0.69100  0.69100  0.00000  1.0000
  O   O3        1.0  0.79600  0.20400  0.17500  1.0000
  O   O4        1.0  0.20400  0.79600  0.17500  1.0000
  O   O5        1.0  0.29600  0.29600  0.32500  1.0000
  O   O6        1.0  0.70400  0.70400  0.32500  1.0000
  O   O7        1.0  0.80900  0.19100  0.50000  1.0000
  O   O8        1.0  0.19100  0.80900  0.50000  1.0000
  O   O9        1.0  0.29600  0.29600  0.67500  1.0000
  O   O10       1.0  0.70400  0.70400  0.67500  1.0000
  O   O11       1.0  0.79600  0.20400  0.82500  1.0000
  O   O12       1.0  0.20400  0.79600  0.82500  1.0000
  Ta  Ta1       1.0  0.50000  0.50000  0.16900  1.0000
  Ta  Ta2       1.0  0.00000  0.00000  0.33100  1.0000
  Ta  Ta3       1.0  0.00000  0.00000  0.66900  1.0000
  Ta  Ta4       1.0  0.50000  0.50000  0.83100  1.0000
