data_image0
_chemical_formula_structural       Cr5CsTe8
_chemical_formula_sum              "Cr5 Cs1 Te8"
_cell_length_a       4.00169
_cell_length_b       9.68309
_cell_length_c       10.4454
_cell_angle_alpha    103.909
_cell_angle_beta     101.043
_cell_angle_gamma    90

_space_group_name_H-M_alt    "P 1"
_space_group_IT_number       1

loop_
  _space_group_symop_operation_xyz
  'x, y, z'

loop_
  _atom_site_type_symbol
  _atom_site_label
  _atom_site_symmetry_multiplicity
  _atom_site_fract_x
  _atom_site_fract_y
  _atom_site_fract_z
  _atom_site_occupancy
  Cr  Cr1       1.0  0.00000  0.00000  0.00000  1.0000
  Cr  Cr2       1.0  0.66000  0.98800  0.32000  1.0000
  Cr  Cr3       1.0  0.70400  0.33000  0.40800  1.0000
  Cr  Cr4       1.0  0.29600  0.67000  0.59200  1.0000
  Cr  Cr5       1.0  0.34000  0.01150  0.68000  1.0000
  Cs  Cs1       1.0  0.50000  0.50000  0.00000  1.0000
  Te  Te1       1.0  0.57300  0.16000  0.14600  1.0000
  Te  Te2       1.0  0.09000  0.83500  0.18000  1.0000
  Te  Te3       1.0  0.17200  0.49100  0.34300  1.0000
  Te  Te4       1.0  0.24000  0.15800  0.48000  1.0000
  Te  Te5       1.0  0.76000  0.84200  0.52000  1.0000
  Te  Te6       1.0  0.82800  0.50900  0.65700  1.0000
  Te  Te7       1.0  0.91000  0.16500  0.82000  1.0000
  Te  Te8       1.0  0.42700  0.84000  0.85400  1.0000
