data_image0
_chemical_formula_structural       Co4Ga2Lu12
_chemical_formula_sum              "Co4 Ga2 Lu12"
_cell_length_a       8.07568
_cell_length_b       8.07568
_cell_length_c       8.07568
_cell_angle_alpha    110.466
_cell_angle_beta     106.527
_cell_angle_gamma    111.462

_space_group_name_H-M_alt    "P 1"
_space_group_IT_number       1

loop_
  _space_group_symop_operation_xyz
  'x, y, z'

loop_
  _atom_site_type_symbol
  _atom_site_label
  _atom_site_symmetry_multiplicity
  _atom_site_fract_x
  _atom_site_fract_y
  _atom_site_fract_z
  _atom_site_occupancy
  Co  Co1       1.0  0.11600  0.00000  0.11600  1.0000
  Co  Co2       1.0  0.50000  0.86600  0.36600  1.0000
  Co  Co3       1.0  0.50000  0.13400  0.63400  1.0000
  Co  Co4       1.0  0.88400  0.00000  0.88400  1.0000
  Ga  Ga1       1.0  0.50000  0.50000  0.00000  1.0000
  Ga  Ga2       1.0  0.00000  0.50000  0.50000  1.0000
  Lu  Lu1       1.0  0.73600  0.29800  0.03400  1.0000
  Lu  Lu2       1.0  0.21800  0.40200  0.18400  1.0000
  Lu  Lu3       1.0  0.78200  0.96600  0.18400  1.0000
  Lu  Lu4       1.0  0.51600  0.19600  0.32000  1.0000
  Lu  Lu5       1.0  0.12400  0.80400  0.32000  1.0000
  Lu  Lu6       1.0  0.73600  0.70200  0.43700  1.0000
  Lu  Lu7       1.0  0.26400  0.29800  0.56300  1.0000
  Lu  Lu8       1.0  0.87600  0.19600  0.68000  1.0000
  Lu  Lu9       1.0  0.48400  0.80400  0.68000  1.0000
  Lu  Lu10      1.0  0.21800  0.03360  0.81600  1.0000
  Lu  Lu11      1.0  0.78200  0.59800  0.81600  1.0000
  Lu  Lu12      1.0  0.26400  0.70200  0.96600  1.0000
