data_image0
_chemical_formula_structural       Co2Cs4O8Si2
_chemical_formula_sum              "Co2 Cs4 O8 Si2"
_cell_length_a       6.80657
_cell_length_b       5.83366
_cell_length_c       8.12413
_cell_angle_alpha    90
_cell_angle_beta     90
_cell_angle_gamma    115.374

_space_group_name_H-M_alt    "P 1"
_space_group_IT_number       1

loop_
  _space_group_symop_operation_xyz
  'x, y, z'

loop_
  _atom_site_type_symbol
  _atom_site_label
  _atom_site_symmetry_multiplicity
  _atom_site_fract_x
  _atom_site_fract_y
  _atom_site_fract_z
  _atom_site_occupancy
  Co  Co1       1.0  0.41000  0.20500  0.30700  1.0000
  Co  Co2       1.0  0.59000  0.79500  0.80700  1.0000
  Cs  Cs1       1.0  0.18400  0.59200  0.08020  1.0000
  Cs  Cs2       1.0  0.85400  0.92700  0.22800  1.0000
  Cs  Cs3       1.0  0.81600  0.40800  0.58000  1.0000
  Cs  Cs4       1.0  0.14600  0.07300  0.72800  1.0000
  O   O1        1.0  0.34200  0.17100  0.06070  1.0000
  O   O2        1.0  0.71400  0.35700  0.20900  1.0000
  O   O3        1.0  0.31200  0.42700  0.42000  1.0000
  O   O4        1.0  0.31200  0.88500  0.42000  1.0000
  O   O5        1.0  0.65800  0.82900  0.56100  1.0000
  O   O6        1.0  0.28600  0.64300  0.70900  1.0000
  O   O7        1.0  0.68800  0.11500  0.92000  1.0000
  O   O8        1.0  0.68800  0.57300  0.92000  1.0000
  Si  Si1       1.0  0.60700  0.30300  0.02100  1.0000
  Si  Si2       1.0  0.39300  0.69700  0.52100  1.0000
