data_image0
_chemical_formula_structural       Co14Gd4
_chemical_formula_sum              "Co14 Gd4"
_cell_length_a       4.96526
_cell_length_b       4.96526
_cell_length_c       12.3624
_cell_angle_alpha    101.585
_cell_angle_beta     78.415
_cell_angle_gamma    120

_space_group_name_H-M_alt    "P 1"
_space_group_IT_number       1

loop_
  _space_group_symop_operation_xyz
  'x, y, z'

loop_
  _atom_site_type_symbol
  _atom_site_label
  _atom_site_symmetry_multiplicity
  _atom_site_fract_x
  _atom_site_fract_y
  _atom_site_fract_z
  _atom_site_occupancy
  Co  Co1       1.0  0.50000  0.00000  0.00000  1.0000
  Co  Co2       1.0  0.00000  0.50000  0.00000  1.0000
  Co  Co3       1.0  0.50000  0.50000  0.00000  1.0000
  Co  Co4       1.0  0.27900  0.72100  0.16400  1.0000
  Co  Co5       1.0  0.61200  0.38800  0.16400  1.0000
  Co  Co6       1.0  0.39100  0.10900  0.32600  1.0000
  Co  Co7       1.0  0.39100  0.60900  0.32600  1.0000
  Co  Co8       1.0  0.89100  0.60900  0.32600  1.0000
  Co  Co9       1.0  0.50000  0.50000  0.50000  1.0000
  Co  Co10      1.0  0.10900  0.39100  0.67400  1.0000
  Co  Co11      1.0  0.60900  0.39100  0.67400  1.0000
  Co  Co12      1.0  0.60900  0.89100  0.67400  1.0000
  Co  Co13      1.0  0.38800  0.61200  0.83600  1.0000
  Co  Co14      1.0  0.72100  0.27900  0.83600  1.0000
  Gd  Gd1       1.0  0.94900  0.05140  0.15400  1.0000
  Gd  Gd2       1.0  0.85200  0.14800  0.44400  1.0000
  Gd  Gd3       1.0  0.14800  0.85200  0.55600  1.0000
  Gd  Gd4       1.0  0.05140  0.94900  0.84600  1.0000
