data_image0
_chemical_formula_structural       Eu10Pd4
_chemical_formula_sum              "Eu10 Pd4"
_cell_length_a       6.7886
_cell_length_b       7.74207
_cell_length_c       9.04934
_cell_angle_alpha    96.5928
_cell_angle_beta     112.03
_cell_angle_gamma    90

_space_group_name_H-M_alt    "P 1"
_space_group_IT_number       1

loop_
  _space_group_symop_operation_xyz
  'x, y, z'

loop_
  _atom_site_type_symbol
  _atom_site_label
  _atom_site_symmetry_multiplicity
  _atom_site_fract_x
  _atom_site_fract_y
  _atom_site_fract_z
  _atom_site_occupancy
  Eu  Eu1       1.0  0.57800  0.25000  0.00000  1.0000
  Eu  Eu2       1.0  0.42200  0.75000  0.00000  1.0000
  Eu  Eu3       1.0  0.20000  0.41700  0.18200  1.0000
  Eu  Eu4       1.0  0.98200  0.91700  0.18200  1.0000
  Eu  Eu5       1.0  0.79700  0.31900  0.43100  1.0000
  Eu  Eu6       1.0  0.63500  0.81900  0.43100  1.0000
  Eu  Eu7       1.0  0.20300  0.68100  0.56900  1.0000
  Eu  Eu8       1.0  0.36500  0.18100  0.56900  1.0000
  Eu  Eu9       1.0  0.80000  0.58300  0.81800  1.0000
  Eu  Eu10      1.0  0.01820  0.08300  0.81800  1.0000
  Pd  Pd1       1.0  0.81900  0.58000  0.22000  1.0000
  Pd  Pd2       1.0  0.40100  0.07980  0.22000  1.0000
  Pd  Pd3       1.0  0.18100  0.42000  0.78000  1.0000
  Pd  Pd4       1.0  0.59900  0.92000  0.78000  1.0000
