data_image0
_chemical_formula_structural       Al12Co3U3
_chemical_formula_sum              "Al12 Co3 U3"
_cell_length_a       9.13414
_cell_length_b       9.13413
_cell_length_c       4.09986
_cell_angle_alpha    90
_cell_angle_beta     90
_cell_angle_gamma    120

_space_group_name_H-M_alt    "P 1"
_space_group_IT_number       1

loop_
  _space_group_symop_operation_xyz
  'x, y, z'

loop_
  _atom_site_type_symbol
  _atom_site_label
  _atom_site_symmetry_multiplicity
  _atom_site_fract_x
  _atom_site_fract_y
  _atom_site_fract_z
  _atom_site_occupancy
  Al  Al1       1.0  0.74200  0.00000  0.00000  1.0000
  Al  Al2       1.0  0.25800  0.25800  0.00000  1.0000
  Al  Al3       1.0  0.00000  0.74200  0.00000  1.0000
  Al  Al4       1.0  0.16900  0.00000  0.50000  1.0000
  Al  Al5       1.0  0.00000  0.16900  0.50000  1.0000
  Al  Al6       1.0  0.70300  0.18300  0.50000  1.0000
  Al  Al7       1.0  0.48000  0.29700  0.50000  1.0000
  Al  Al8       1.0  0.29700  0.48000  0.50000  1.0000
  Al  Al9       1.0  0.81700  0.52000  0.50000  1.0000
  Al  Al10      1.0  0.18300  0.70300  0.50000  1.0000
  Al  Al11      1.0  0.52000  0.81700  0.50000  1.0000
  Al  Al12      1.0  0.83100  0.83100  0.50000  1.0000
  Co  Co1       1.0  0.00000  0.00000  0.00000  1.0000
  Co  Co2       1.0  0.66700  0.33300  0.00000  1.0000
  Co  Co3       1.0  0.33300  0.66700  0.00000  1.0000
  U   U1        1.0  0.40900  0.00000  0.00000  1.0000
  U   U2        1.0  0.00000  0.40900  0.00000  1.0000
  U   U3        1.0  0.59100  0.59100  0.00000  1.0000
