data_image0
_chemical_formula_structural       Co4Ga2Y12
_chemical_formula_sum              "Co4 Ga2 Y12"
_cell_length_a       8.3081
_cell_length_b       8.3081
_cell_length_c       8.3081
_cell_angle_alpha    109.982
_cell_angle_beta     106.938
_cell_angle_gamma    111.526

_space_group_name_H-M_alt    "P 1"
_space_group_IT_number       1

loop_
  _space_group_symop_operation_xyz
  'x, y, z'

loop_
  _atom_site_type_symbol
  _atom_site_label
  _atom_site_symmetry_multiplicity
  _atom_site_fract_x
  _atom_site_fract_y
  _atom_site_fract_z
  _atom_site_occupancy
  Co  Co1       1.0  0.11300  0.00000  0.11300  1.0000
  Co  Co2       1.0  0.50000  0.86600  0.36600  1.0000
  Co  Co3       1.0  0.50000  0.13400  0.63400  1.0000
  Co  Co4       1.0  0.88700  0.00000  0.88700  1.0000
  Ga  Ga1       1.0  0.50000  0.50000  0.00000  1.0000
  Ga  Ga2       1.0  0.00000  0.50000  0.50000  1.0000
  Y   Y1        1.0  0.73400  0.30000  0.03410  1.0000
  Y   Y2        1.0  0.21800  0.40100  0.18300  1.0000
  Y   Y3        1.0  0.78200  0.96500  0.18300  1.0000
  Y   Y4        1.0  0.51500  0.19500  0.32100  1.0000
  Y   Y5        1.0  0.12600  0.80500  0.32100  1.0000
  Y   Y6        1.0  0.73400  0.70000  0.43400  1.0000
  Y   Y7        1.0  0.26600  0.30000  0.56600  1.0000
  Y   Y8        1.0  0.87400  0.19500  0.67900  1.0000
  Y   Y9        1.0  0.48500  0.80500  0.67900  1.0000
  Y   Y10       1.0  0.78200  0.59900  0.81700  1.0000
  Y   Y11       1.0  0.21800  0.03490  0.81700  1.0000
  Y   Y12       1.0  0.26600  0.70000  0.96600  1.0000
