data_image0
_chemical_formula_structural       Cu4O10S2
_chemical_formula_sum              "Cu4 O10 S2"
_cell_length_a       5.58066
_cell_length_b       5.58066
_cell_length_c       7.16439
_cell_angle_alpha    100.048
_cell_angle_beta     108.633
_cell_angle_gamma    111.459

_space_group_name_H-M_alt    "P 1"
_space_group_IT_number       1

loop_
  _space_group_symop_operation_xyz
  'x, y, z'

loop_
  _atom_site_type_symbol
  _atom_site_label
  _atom_site_symmetry_multiplicity
  _atom_site_fract_x
  _atom_site_fract_y
  _atom_site_fract_z
  _atom_site_occupancy
  Cu  Cu1       1.0  0.50000  0.00000  0.00000  1.0000
  Cu  Cu2       1.0  0.00000  0.50000  0.00000  1.0000
  Cu  Cu3       1.0  0.14500  0.07930  0.22400  1.0000
  Cu  Cu4       1.0  0.85500  0.92100  0.77600  1.0000
  O   O1        1.0  0.86700  0.14900  0.01580  1.0000
  O   O2        1.0  0.52500  0.69900  0.22400  1.0000
  O   O3        1.0  0.57500  0.28500  0.24900  1.0000
  O   O4        1.0  0.96400  0.67400  0.24900  1.0000
  O   O5        1.0  0.14700  0.30700  0.45400  1.0000
  O   O6        1.0  0.85300  0.69300  0.54600  1.0000
  O   O7        1.0  0.03620  0.32600  0.75100  1.0000
  O   O8        1.0  0.42500  0.71500  0.75100  1.0000
  O   O9        1.0  0.47500  0.30100  0.77600  1.0000
  O   O10       1.0  0.13300  0.85100  0.98400  1.0000
  S   S1        1.0  0.72200  0.59300  0.31600  1.0000
  S   S2        1.0  0.27800  0.40700  0.68400  1.0000
