data_image0
_chemical_formula_structural       Cs4Mn6Te8
_chemical_formula_sum              "Cs4 Mn6 Te8"
_cell_length_a       6.58985
_cell_length_b       10.6264
_cell_length_c       10.6264
_cell_angle_alpha    93.4161
_cell_angle_beta     108.063
_cell_angle_gamma    108.063

_space_group_name_H-M_alt    "P 1"
_space_group_IT_number       1

loop_
  _space_group_symop_operation_xyz
  'x, y, z'

loop_
  _atom_site_type_symbol
  _atom_site_label
  _atom_site_symmetry_multiplicity
  _atom_site_fract_x
  _atom_site_fract_y
  _atom_site_fract_z
  _atom_site_occupancy
  Cs  Cs1       1.0  0.88700  0.12300  0.12300  1.0000
  Cs  Cs2       1.0  0.64100  0.37700  0.37700  1.0000
  Cs  Cs3       1.0  0.35900  0.62300  0.62300  1.0000
  Cs  Cs4       1.0  0.11300  0.87700  0.87700  1.0000
  Mn  Mn1       1.0  0.76200  0.51200  0.01250  1.0000
  Mn  Mn2       1.0  0.50000  0.75000  0.25000  1.0000
  Mn  Mn3       1.0  0.23800  0.98800  0.48800  1.0000
  Mn  Mn4       1.0  0.76200  0.01250  0.51200  1.0000
  Mn  Mn5       1.0  0.50000  0.25000  0.75000  1.0000
  Mn  Mn6       1.0  0.23800  0.48800  0.98800  1.0000
  Te  Te1       1.0  0.60100  0.72200  0.01870  1.0000
  Te  Te2       1.0  0.14000  0.51900  0.22200  1.0000
  Te  Te3       1.0  0.39900  0.98100  0.27800  1.0000
  Te  Te4       1.0  0.86000  0.77800  0.48100  1.0000
  Te  Te5       1.0  0.14000  0.22200  0.51900  1.0000
  Te  Te6       1.0  0.60100  0.01870  0.72200  1.0000
  Te  Te7       1.0  0.86000  0.48100  0.77800  1.0000
  Te  Te8       1.0  0.39900  0.27800  0.98100  1.0000
