data_image0
_chemical_formula_structural       B8Co8Lu2
_chemical_formula_sum              "B8 Co8 Lu2"
_cell_length_a       4.97549
_cell_length_b       4.97549
_cell_length_c       6.92003
_cell_angle_alpha    90
_cell_angle_beta     90
_cell_angle_gamma    90

_space_group_name_H-M_alt    "P 1"
_space_group_IT_number       1

loop_
  _space_group_symop_operation_xyz
  'x, y, z'

loop_
  _atom_site_type_symbol
  _atom_site_label
  _atom_site_symmetry_multiplicity
  _atom_site_fract_x
  _atom_site_fract_y
  _atom_site_fract_z
  _atom_site_occupancy
  B   B1        1.0  0.25000  0.07450  0.09210  1.0000
  B   B2        1.0  0.25000  0.42600  0.09210  1.0000
  B   B3        1.0  0.57400  0.75000  0.40800  1.0000
  B   B4        1.0  0.92600  0.75000  0.40800  1.0000
  B   B5        1.0  0.07450  0.25000  0.59200  1.0000
  B   B6        1.0  0.42600  0.25000  0.59200  1.0000
  B   B7        1.0  0.75000  0.57400  0.90800  1.0000
  B   B8        1.0  0.75000  0.92600  0.90800  1.0000
  Co  Co1       1.0  0.00352  0.75000  0.11200  1.0000
  Co  Co2       1.0  0.49600  0.75000  0.11200  1.0000
  Co  Co3       1.0  0.25000  0.50400  0.38800  1.0000
  Co  Co4       1.0  0.25000  0.99600  0.38800  1.0000
  Co  Co5       1.0  0.75000  0.00352  0.61200  1.0000
  Co  Co6       1.0  0.75000  0.49600  0.61200  1.0000
  Co  Co7       1.0  0.50400  0.25000  0.88800  1.0000
  Co  Co8       1.0  0.99600  0.25000  0.88800  1.0000
  Lu  Lu1       1.0  0.75000  0.25000  0.25000  1.0000
  Lu  Lu2       1.0  0.25000  0.75000  0.75000  1.0000
