data_image0
_chemical_formula_structural       Co6Ga2Nd6
_chemical_formula_sum              "Co6 Ga2 Nd6"
_cell_length_a       4.20829
_cell_length_b       5.53331
_cell_length_c       13.1791
_cell_angle_alpha    90
_cell_angle_beta     90
_cell_angle_gamma    67.6497

_space_group_name_H-M_alt    "P 1"
_space_group_IT_number       1

loop_
  _space_group_symop_operation_xyz
  'x, y, z'

loop_
  _atom_site_type_symbol
  _atom_site_label
  _atom_site_symmetry_multiplicity
  _atom_site_fract_x
  _atom_site_fract_y
  _atom_site_fract_z
  _atom_site_occupancy
  Co  Co1       1.0  0.91900  0.16100  0.09460  1.0000
  Co  Co2       1.0  0.80900  0.38300  0.25000  1.0000
  Co  Co3       1.0  0.91900  0.16100  0.40500  1.0000
  Co  Co4       1.0  0.08070  0.83900  0.59500  1.0000
  Co  Co5       1.0  0.19100  0.61700  0.75000  1.0000
  Co  Co6       1.0  0.08070  0.83900  0.90500  1.0000
  Ga  Ga1       1.0  0.50000  0.00000  0.00000  1.0000
  Ga  Ga2       1.0  0.50000  0.00000  0.50000  1.0000
  Nd  Nd1       1.0  0.20900  0.58300  0.10300  1.0000
  Nd  Nd2       1.0  0.49900  0.00124  0.25000  1.0000
  Nd  Nd3       1.0  0.20900  0.58300  0.39700  1.0000
  Nd  Nd4       1.0  0.79100  0.41700  0.60300  1.0000
  Nd  Nd5       1.0  0.50100  0.99900  0.75000  1.0000
  Nd  Nd6       1.0  0.79100  0.41700  0.89700  1.0000
