data_image0
_chemical_formula_structural       Cd2Co2F12Li2
_chemical_formula_sum              "Cd2 Co2 F12 Li2"
_cell_length_a       5.0237
_cell_length_b       5.02264
_cell_length_c       9.37302
_cell_angle_alpha    89.9509
_cell_angle_beta     90.0246
_cell_angle_gamma    119.993

_space_group_name_H-M_alt    "P 1"
_space_group_IT_number       1

loop_
  _space_group_symop_operation_xyz
  'x, y, z'

loop_
  _atom_site_type_symbol
  _atom_site_label
  _atom_site_symmetry_multiplicity
  _atom_site_fract_x
  _atom_site_fract_y
  _atom_site_fract_z
  _atom_site_occupancy
  Cd  Cd1       1.0  0.00000  0.00000  0.00000  1.0000
  Cd  Cd2       1.0  0.00000  0.00000  0.50000  1.0000
  Co  Co1       1.0  0.66600  0.33300  0.25000  1.0000
  Co  Co2       1.0  0.33400  0.66700  0.75000  1.0000
  F   F1        1.0  0.99400  0.35900  0.13500  1.0000
  F   F2        1.0  0.36500  0.00617  0.13500  1.0000
  F   F3        1.0  0.64100  0.63500  0.13500  1.0000
  F   F4        1.0  0.64100  0.00609  0.36500  1.0000
  F   F5        1.0  0.36500  0.35900  0.36500  1.0000
  F   F6        1.0  0.99400  0.63500  0.36500  1.0000
  F   F7        1.0  0.00603  0.36500  0.63500  1.0000
  F   F8        1.0  0.63500  0.64100  0.63500  1.0000
  F   F9        1.0  0.35900  0.99400  0.63500  1.0000
  F   F10       1.0  0.35900  0.36500  0.86500  1.0000
  F   F11       1.0  0.63500  0.99400  0.86500  1.0000
  F   F12       1.0  0.00603  0.64100  0.86500  1.0000
  Li  Li1       1.0  0.33300  0.66700  0.25000  1.0000
  Li  Li2       1.0  0.66700  0.33300  0.75000  1.0000
