data_image0
_chemical_formula_structural       Co9Se8
_chemical_formula_sum              "Co9 Se8"
_cell_length_a       7.28809
_cell_length_b       7.28809
_cell_length_c       7.28809
_cell_angle_alpha    120
_cell_angle_beta     90
_cell_angle_gamma    120

_space_group_name_H-M_alt    "P 1"
_space_group_IT_number       1

loop_
  _space_group_symop_operation_xyz
  'x, y, z'

loop_
  _atom_site_type_symbol
  _atom_site_label
  _atom_site_symmetry_multiplicity
  _atom_site_fract_x
  _atom_site_fract_y
  _atom_site_fract_z
  _atom_site_occupancy
  Co  Co1       1.0  0.37000  0.24700  0.12300  1.0000
  Co  Co2       1.0  0.87700  0.24700  0.12300  1.0000
  Co  Co3       1.0  0.87700  0.75300  0.12300  1.0000
  Co  Co4       1.0  0.12300  0.24700  0.37000  1.0000
  Co  Co5       1.0  0.50000  0.00000  0.50000  1.0000
  Co  Co6       1.0  0.87700  0.75300  0.63000  1.0000
  Co  Co7       1.0  0.12300  0.24700  0.87700  1.0000
  Co  Co8       1.0  0.12300  0.75300  0.87700  1.0000
  Co  Co9       1.0  0.63000  0.75300  0.87700  1.0000
  Se  Se1       1.0  0.75000  0.50000  0.25000  1.0000
  Se  Se2       1.0  0.26400  0.00000  0.26400  1.0000
  Se  Se3       1.0  0.73600  0.00000  0.26400  1.0000
  Se  Se4       1.0  0.26400  0.52800  0.26400  1.0000
  Se  Se5       1.0  0.26400  0.00000  0.73600  1.0000
  Se  Se6       1.0  0.73600  0.47200  0.73600  1.0000
  Se  Se7       1.0  0.73600  0.00000  0.73600  1.0000
  Se  Se8       1.0  0.25000  0.50000  0.75000  1.0000
