data_image0
_chemical_formula_structural       Ge10Tb6
_chemical_formula_sum              "Ge10 Tb6"
_cell_length_a       6.91917
_cell_length_b       6.91917
_cell_length_c       8.38229
_cell_angle_alpha    90
_cell_angle_beta     90
_cell_angle_gamma    120

_space_group_name_H-M_alt    "P 1"
_space_group_IT_number       1

loop_
  _space_group_symop_operation_xyz
  'x, y, z'

loop_
  _atom_site_type_symbol
  _atom_site_label
  _atom_site_symmetry_multiplicity
  _atom_site_fract_x
  _atom_site_fract_y
  _atom_site_fract_z
  _atom_site_occupancy
  Ge  Ge1       1.0  0.00000  1.00000  0.25000  1.0000
  Ge  Ge2       1.0  0.66800  0.07010  0.25000  1.0000
  Ge  Ge3       1.0  0.40200  0.33200  0.25000  1.0000
  Ge  Ge4       1.0  0.93000  0.59800  0.25000  1.0000
  Ge  Ge5       1.0  0.33300  0.66700  0.25000  1.0000
  Ge  Ge6       1.0  0.00000  0.00000  0.75000  1.0000
  Ge  Ge7       1.0  0.66700  0.33300  0.75000  1.0000
  Ge  Ge8       1.0  0.33200  0.40200  0.75000  1.0000
  Ge  Ge9       1.0  0.07010  0.66800  0.75000  1.0000
  Ge  Ge10      1.0  0.59800  0.93000  0.75000  1.0000
  Tb  Tb1       1.0  0.33100  0.00000  0.00000  1.0000
  Tb  Tb2       1.0  0.66900  0.66900  0.00000  1.0000
  Tb  Tb3       1.0  0.00000  0.33100  0.00000  1.0000
  Tb  Tb4       1.0  0.00000  0.33100  0.50000  1.0000
  Tb  Tb5       1.0  0.66900  0.66900  0.50000  1.0000
  Tb  Tb6       1.0  0.33100  0.00000  0.50000  1.0000
