data_image0
_chemical_formula_structural       Ba2Co2Pr4S10
_chemical_formula_sum              "Ba2 Co2 Pr4 S10"
_cell_length_a       7.88969
_cell_length_b       7.88969
_cell_length_c       8.76369
_cell_angle_alpha    116.752
_cell_angle_beta     116.752
_cell_angle_gamma    90

_space_group_name_H-M_alt    "P 1"
_space_group_IT_number       1

loop_
  _space_group_symop_operation_xyz
  'x, y, z'

loop_
  _atom_site_type_symbol
  _atom_site_label
  _atom_site_symmetry_multiplicity
  _atom_site_fract_x
  _atom_site_fract_y
  _atom_site_fract_z
  _atom_site_occupancy
  Ba  Ba1       1.0  0.25000  0.25000  0.50000  1.0000
  Ba  Ba2       1.0  0.75000  0.75000  0.50000  1.0000
  Co  Co1       1.0  0.75000  0.25000  0.50000  1.0000
  Co  Co2       1.0  0.25000  0.75000  0.50000  1.0000
  Pr  Pr1       1.0  0.66300  0.16300  0.00000  1.0000
  Pr  Pr2       1.0  0.16300  0.33700  0.00000  1.0000
  Pr  Pr3       1.0  0.83700  0.66300  0.00000  1.0000
  Pr  Pr4       1.0  0.33700  0.83700  0.00000  1.0000
  S   S1        1.0  0.00000  0.00000  0.00000  1.0000
  S   S2        1.0  0.50000  0.50000  0.00000  1.0000
  S   S3        1.0  0.49100  0.28300  0.27400  1.0000
  S   S4        1.0  0.99100  0.49100  0.27400  1.0000
  S   S5        1.0  0.28300  0.78300  0.27400  1.0000
  S   S6        1.0  0.78300  0.99100  0.27400  1.0000
  S   S7        1.0  0.21700  0.00931  0.72600  1.0000
  S   S8        1.0  0.71700  0.21700  0.72600  1.0000
  S   S9        1.0  0.00931  0.50900  0.72600  1.0000
  S   S10       1.0  0.50900  0.71700  0.72600  1.0000
