data_image0
_chemical_formula_structural       Cs2Cu2Nd4Se8
_chemical_formula_sum              "Cs2 Cu2 Nd4 Se8"
_cell_length_a       4.26821
_cell_length_b       7.77503
_cell_length_c       14.782
_cell_angle_alpha    90
_cell_angle_beta     90
_cell_angle_gamma    105.931

_space_group_name_H-M_alt    "P 1"
_space_group_IT_number       1

loop_
  _space_group_symop_operation_xyz
  'x, y, z'

loop_
  _atom_site_type_symbol
  _atom_site_label
  _atom_site_symmetry_multiplicity
  _atom_site_fract_x
  _atom_site_fract_y
  _atom_site_fract_z
  _atom_site_occupancy
  Cs  Cs1       1.0  0.10600  0.21300  0.25000  1.0000
  Cs  Cs2       1.0  0.89400  0.78700  0.75000  1.0000
  Cu  Cu1       1.0  0.83400  0.66800  0.25000  1.0000
  Cu  Cu2       1.0  0.16600  0.33200  0.75000  1.0000
  Nd  Nd1       1.0  0.36600  0.73100  0.06180  1.0000
  Nd  Nd2       1.0  0.36600  0.73100  0.43800  1.0000
  Nd  Nd3       1.0  0.63400  0.26900  0.56200  1.0000
  Nd  Nd4       1.0  0.63400  0.26900  0.93800  1.0000
  Se  Se1       1.0  0.00000  0.00000  0.00000  1.0000
  Se  Se2       1.0  0.74000  0.48100  0.11000  1.0000
  Se  Se3       1.0  0.42200  0.84300  0.25000  1.0000
  Se  Se4       1.0  0.74000  0.48100  0.39000  1.0000
  Se  Se5       1.0  0.00000  0.00000  0.50000  1.0000
  Se  Se6       1.0  0.26000  0.51900  0.61000  1.0000
  Se  Se7       1.0  0.57800  0.15700  0.75000  1.0000
  Se  Se8       1.0  0.26000  0.51900  0.89000  1.0000
