data_image0
_chemical_formula_structural       BaCo2H2O9P2
_chemical_formula_sum              "Ba1 Co2 H2 O9 P2"
_cell_length_a       4.87806
_cell_length_b       5.20544
_cell_length_c       8.23117
_cell_angle_alpha    91.7383
_cell_angle_beta     90
_cell_angle_gamma    117.94

_space_group_name_H-M_alt    "P 1"
_space_group_IT_number       1

loop_
  _space_group_symop_operation_xyz
  'x, y, z'

loop_
  _atom_site_type_symbol
  _atom_site_label
  _atom_site_symmetry_multiplicity
  _atom_site_fract_x
  _atom_site_fract_y
  _atom_site_fract_z
  _atom_site_occupancy
  Ba  Ba1       1.0  0.77300  0.00000  0.50000  1.0000
  Co  Co1       1.0  0.50100  0.33100  0.14800  1.0000
  Co  Co2       1.0  0.16900  0.66900  0.85200  1.0000
  H   H1        1.0  0.65000  0.87700  0.06770  1.0000
  H   H2        1.0  0.77400  0.12300  0.93200  1.0000
  O   O1        1.0  0.59700  0.00000  0.00000  1.0000
  O   O2        1.0  0.95600  0.63600  0.06660  1.0000
  O   O3        1.0  0.39800  0.64100  0.24600  1.0000
  O   O4        1.0  0.22100  0.01370  0.29500  1.0000
  O   O5        1.0  0.84700  0.48500  0.34900  1.0000
  O   O6        1.0  0.36200  0.51500  0.65100  1.0000
  O   O7        1.0  0.20700  0.98600  0.70500  1.0000
  O   O8        1.0  0.75700  0.35900  0.75400  1.0000
  O   O9        1.0  0.32000  0.36400  0.93300  1.0000
  P   P1        1.0  0.11000  0.69100  0.24000  1.0000
  P   P2        1.0  0.42000  0.30900  0.76000  1.0000
