data_image0
_chemical_formula_structural       Co2H4O10Se2
_chemical_formula_sum              "Co2 H4 O10 Se2"
_cell_length_a       5.2955
_cell_length_b       5.2955
_cell_length_c       7.52065
_cell_angle_alpha    107.738
_cell_angle_beta     107.738
_cell_angle_gamma    97.1269

_space_group_name_H-M_alt    "P 1"
_space_group_IT_number       1

loop_
  _space_group_symop_operation_xyz
  'x, y, z'

loop_
  _atom_site_type_symbol
  _atom_site_label
  _atom_site_symmetry_multiplicity
  _atom_site_fract_x
  _atom_site_fract_y
  _atom_site_fract_z
  _atom_site_occupancy
  Co  Co1       1.0  0.50000  0.50000  0.00000  1.0000
  Co  Co2       1.0  0.00000  0.00000  0.50000  1.0000
  H   H1        1.0  0.03690  0.62700  0.20000  1.0000
  H   H2        1.0  0.87300  0.46300  0.30000  1.0000
  H   H3        1.0  0.12700  0.53700  0.70000  1.0000
  H   H4        1.0  0.96300  0.37300  0.80000  1.0000
  O   O1        1.0  0.29300  0.21100  0.06790  1.0000
  O   O2        1.0  0.30900  0.74800  0.15300  1.0000
  O   O3        1.0  0.88100  0.61900  0.25000  1.0000
  O   O4        1.0  0.75200  0.19100  0.34700  1.0000
  O   O5        1.0  0.28900  0.20700  0.43200  1.0000
  O   O6        1.0  0.71100  0.79300  0.56800  1.0000
  O   O7        1.0  0.24800  0.80900  0.65300  1.0000
  O   O8        1.0  0.11900  0.38100  0.75000  1.0000
  O   O9        1.0  0.69100  0.25200  0.84700  1.0000
  O   O10       1.0  0.70700  0.78900  0.93200  1.0000
  Se  Se1       1.0  0.40900  0.09130  0.25000  1.0000
  Se  Se2       1.0  0.59100  0.90900  0.75000  1.0000
