data_image0
_chemical_formula_structural       Ba2Co2Nd4S10
_chemical_formula_sum              "Ba2 Co2 Nd4 S10"
_cell_length_a       7.85806
_cell_length_b       7.85806
_cell_length_c       8.72829
_cell_angle_alpha    116.753
_cell_angle_beta     116.753
_cell_angle_gamma    90

_space_group_name_H-M_alt    "P 1"
_space_group_IT_number       1

loop_
  _space_group_symop_operation_xyz
  'x, y, z'

loop_
  _atom_site_type_symbol
  _atom_site_label
  _atom_site_symmetry_multiplicity
  _atom_site_fract_x
  _atom_site_fract_y
  _atom_site_fract_z
  _atom_site_occupancy
  Ba  Ba1       1.0  0.25000  0.25000  0.50000  1.0000
  Ba  Ba2       1.0  0.75000  0.75000  0.50000  1.0000
  Co  Co1       1.0  0.75000  0.25000  0.50000  1.0000
  Co  Co2       1.0  0.25000  0.75000  0.50000  1.0000
  Nd  Nd1       1.0  0.66300  0.16300  0.00000  1.0000
  Nd  Nd2       1.0  0.16300  0.33700  0.00000  1.0000
  Nd  Nd3       1.0  0.83700  0.66300  0.00000  1.0000
  Nd  Nd4       1.0  0.33700  0.83700  0.00000  1.0000
  S   S1        1.0  0.00000  0.00000  0.00000  1.0000
  S   S2        1.0  0.50000  0.50000  0.00000  1.0000
  S   S3        1.0  0.49000  0.28200  0.27100  1.0000
  S   S4        1.0  0.99000  0.49000  0.27100  1.0000
  S   S5        1.0  0.28200  0.78200  0.27100  1.0000
  S   S6        1.0  0.78200  0.99000  0.27100  1.0000
  S   S7        1.0  0.21800  0.01010  0.72900  1.0000
  S   S8        1.0  0.71800  0.21800  0.72900  1.0000
  S   S9        1.0  0.01010  0.51000  0.72900  1.0000
  S   S10       1.0  0.51000  0.71800  0.72900  1.0000
