data_image0
_chemical_formula_structural       Co2Mo2O12Te2
_chemical_formula_sum              "Co2 Mo2 O12 Te2"
_cell_length_a       5.23805
_cell_length_b       5.04839
_cell_length_c       8.70381
_cell_angle_alpha    90
_cell_angle_beta     90
_cell_angle_gamma    90

_space_group_name_H-M_alt    "P 1"
_space_group_IT_number       1

loop_
  _space_group_symop_operation_xyz
  'x, y, z'

loop_
  _atom_site_type_symbol
  _atom_site_label
  _atom_site_symmetry_multiplicity
  _atom_site_fract_x
  _atom_site_fract_y
  _atom_site_fract_z
  _atom_site_occupancy
  Co  Co1       1.0  0.50000  0.50000  0.47600  1.0000
  Co  Co2       1.0  0.00000  0.00000  0.52400  1.0000
  Mo  Mo1       1.0  0.50000  0.00000  0.18800  1.0000
  Mo  Mo2       1.0  0.00000  0.50000  0.81200  1.0000
  O   O1        1.0  0.71200  0.16100  0.06590  1.0000
  O   O2        1.0  0.28800  0.83900  0.06590  1.0000
  O   O3        1.0  0.31500  0.25600  0.29500  1.0000
  O   O4        1.0  0.68500  0.74400  0.29500  1.0000
  O   O5        1.0  0.81800  0.27700  0.38900  1.0000
  O   O6        1.0  0.18200  0.72300  0.38900  1.0000
  O   O7        1.0  0.31800  0.22300  0.61100  1.0000
  O   O8        1.0  0.68200  0.77700  0.61100  1.0000
  O   O9        1.0  0.81500  0.24400  0.70500  1.0000
  O   O10       1.0  0.18500  0.75600  0.70500  1.0000
  O   O11       1.0  0.21200  0.33900  0.93400  1.0000
  O   O12       1.0  0.78800  0.66100  0.93400  1.0000
  Te  Te1       1.0  0.00000  0.50000  0.24600  1.0000
  Te  Te2       1.0  0.50000  0.00000  0.75400  1.0000
