data_image0
_chemical_formula_structural       Co2Nb4PdSe12
_chemical_formula_sum              "Co2 Nb4 Pd1 Se12"
_cell_length_a       3.41993
_cell_length_b       6.91047
_cell_length_c       18.439
_cell_angle_alpha    90.3806
_cell_angle_beta     95.321
_cell_angle_gamma    104.326

_space_group_name_H-M_alt    "P 1"
_space_group_IT_number       1

loop_
  _space_group_symop_operation_xyz
  'x, y, z'

loop_
  _atom_site_type_symbol
  _atom_site_label
  _atom_site_symmetry_multiplicity
  _atom_site_fract_x
  _atom_site_fract_y
  _atom_site_fract_z
  _atom_site_occupancy
  Co  Co1       1.0  0.05470  0.82700  0.28300  1.0000
  Co  Co2       1.0  0.94500  0.17300  0.71700  1.0000
  Nb  Nb1       1.0  0.52900  0.90800  0.15000  1.0000
  Nb  Nb2       1.0  0.66300  0.92000  0.40600  1.0000
  Nb  Nb3       1.0  0.33700  0.07960  0.59400  1.0000
  Nb  Nb4       1.0  0.47100  0.09190  0.85000  1.0000
  Pd  Pd1       1.0  0.00000  0.00000  0.00000  1.0000
  Se  Se1       1.0  0.88300  0.69300  0.07270  1.0000
  Se  Se2       1.0  0.15300  0.18800  0.11800  1.0000
  Se  Se3       1.0  0.42400  0.61500  0.23400  1.0000
  Se  Se4       1.0  0.68100  0.08160  0.28100  1.0000
  Se  Se5       1.0  0.01250  0.63600  0.38900  1.0000
  Se  Se6       1.0  0.32300  0.19300  0.45300  1.0000
  Se  Se7       1.0  0.67700  0.80700  0.54700  1.0000
  Se  Se8       1.0  0.98800  0.36400  0.61100  1.0000
  Se  Se9       1.0  0.31900  0.91800  0.71900  1.0000
  Se  Se10      1.0  0.57600  0.38500  0.76600  1.0000
  Se  Se11      1.0  0.84700  0.81200  0.88200  1.0000
  Se  Se12      1.0  0.11700  0.30700  0.92700  1.0000
