data_image0
_chemical_formula_structural       B4Co10Ta6
_chemical_formula_sum              "B4 Co10 Ta6"
_cell_length_a       8.42813
_cell_length_b       8.42813
_cell_length_c       3.23501
_cell_angle_alpha    90
_cell_angle_beta     90
_cell_angle_gamma    90

_space_group_name_H-M_alt    "P 1"
_space_group_IT_number       1

loop_
  _space_group_symop_operation_xyz
  'x, y, z'

loop_
  _atom_site_type_symbol
  _atom_site_label
  _atom_site_symmetry_multiplicity
  _atom_site_fract_x
  _atom_site_fract_y
  _atom_site_fract_z
  _atom_site_occupancy
  B   B1        1.0  0.38100  0.11900  0.00000  1.0000
  B   B2        1.0  0.88100  0.38100  0.00000  1.0000
  B   B3        1.0  0.11900  0.61900  0.00000  1.0000
  B   B4        1.0  0.61900  0.88100  0.00000  1.0000
  Co  Co1       1.0  0.50000  0.00000  0.50000  1.0000
  Co  Co2       1.0  0.22100  0.07010  0.50000  1.0000
  Co  Co3       1.0  0.93000  0.22100  0.50000  1.0000
  Co  Co4       1.0  0.43000  0.27900  0.50000  1.0000
  Co  Co5       1.0  0.72100  0.43000  0.50000  1.0000
  Co  Co6       1.0  0.00000  0.50000  0.50000  1.0000
  Co  Co7       1.0  0.27900  0.57000  0.50000  1.0000
  Co  Co8       1.0  0.57000  0.72100  0.50000  1.0000
  Co  Co9       1.0  0.07010  0.77900  0.50000  1.0000
  Co  Co10      1.0  0.77900  0.93000  0.50000  1.0000
  Ta  Ta1       1.0  0.00000  0.00000  0.00000  1.0000
  Ta  Ta2       1.0  0.67400  0.17400  0.00000  1.0000
  Ta  Ta3       1.0  0.17400  0.32600  0.00000  1.0000
  Ta  Ta4       1.0  0.50000  0.50000  0.00000  1.0000
  Ta  Ta5       1.0  0.82600  0.67400  0.00000  1.0000
  Ta  Ta6       1.0  0.32600  0.82600  0.00000  1.0000
