data_image0
_chemical_formula_structural       Ca4Co2O12Te2
_chemical_formula_sum              "Ca4 Co2 O12 Te2"
_cell_length_a       5.43193
_cell_length_b       5.60196
_cell_length_c       7.71858
_cell_angle_alpha    90
_cell_angle_beta     90.4295
_cell_angle_gamma    90

_space_group_name_H-M_alt    "P 1"
_space_group_IT_number       1

loop_
  _space_group_symop_operation_xyz
  'x, y, z'

loop_
  _atom_site_type_symbol
  _atom_site_label
  _atom_site_symmetry_multiplicity
  _atom_site_fract_x
  _atom_site_fract_y
  _atom_site_fract_z
  _atom_site_occupancy
  Ca  Ca1       1.0  0.51400  0.55300  0.24900  1.0000
  Ca  Ca2       1.0  0.98600  0.05310  0.25100  1.0000
  Ca  Ca3       1.0  0.01400  0.94700  0.74900  1.0000
  Ca  Ca4       1.0  0.48600  0.44700  0.75100  1.0000
  Co  Co1       1.0  0.50000  0.00000  0.00000  1.0000
  Co  Co2       1.0  0.00000  0.50000  0.50000  1.0000
  O   O1        1.0  0.70900  0.30800  0.04690  1.0000
  O   O2        1.0  0.81200  0.78700  0.05340  1.0000
  O   O3        1.0  0.09790  0.46600  0.24200  1.0000
  O   O4        1.0  0.40200  0.96600  0.25800  1.0000
  O   O5        1.0  0.68800  0.28700  0.44700  1.0000
  O   O6        1.0  0.79100  0.80800  0.45300  1.0000
  O   O7        1.0  0.20900  0.19200  0.54700  1.0000
  O   O8        1.0  0.31200  0.71300  0.55300  1.0000
  O   O9        1.0  0.59800  0.03450  0.74200  1.0000
  O   O10       1.0  0.90200  0.53400  0.75800  1.0000
  O   O11       1.0  0.18800  0.21300  0.94700  1.0000
  O   O12       1.0  0.29100  0.69200  0.95300  1.0000
  Te  Te1       1.0  0.00000  0.50000  0.00000  1.0000
  Te  Te2       1.0  0.50000  0.00000  0.50000  1.0000
