data_image0
_chemical_formula_structural       Co14Pr4
_chemical_formula_sum              "Co14 Pr4"
_cell_length_a       5.04706
_cell_length_b       5.04706
_cell_length_c       12.5222
_cell_angle_alpha    78.3738
_cell_angle_beta     101.626
_cell_angle_gamma    120

_space_group_name_H-M_alt    "P 1"
_space_group_IT_number       1

loop_
  _space_group_symop_operation_xyz
  'x, y, z'

loop_
  _atom_site_type_symbol
  _atom_site_label
  _atom_site_symmetry_multiplicity
  _atom_site_fract_x
  _atom_site_fract_y
  _atom_site_fract_z
  _atom_site_occupancy
  Co  Co1       1.0  0.50000  0.00000  0.00000  1.0000
  Co  Co2       1.0  0.00000  0.50000  0.00000  1.0000
  Co  Co3       1.0  0.50000  0.50000  0.00000  1.0000
  Co  Co4       1.0  0.38700  0.61300  0.16100  1.0000
  Co  Co5       1.0  0.72100  0.27900  0.16400  1.0000
  Co  Co6       1.0  0.11200  0.39500  0.32300  1.0000
  Co  Co7       1.0  0.60500  0.39500  0.32300  1.0000
  Co  Co8       1.0  0.60500  0.88800  0.32300  1.0000
  Co  Co9       1.0  0.50000  0.50000  0.50000  1.0000
  Co  Co10      1.0  0.39500  0.11200  0.67700  1.0000
  Co  Co11      1.0  0.39500  0.60500  0.67700  1.0000
  Co  Co12      1.0  0.88800  0.60500  0.67700  1.0000
  Co  Co13      1.0  0.27900  0.72100  0.83600  1.0000
  Co  Co14      1.0  0.61300  0.38700  0.83900  1.0000
  Pr  Pr1       1.0  0.05130  0.94900  0.15400  1.0000
  Pr  Pr2       1.0  0.14800  0.85200  0.44500  1.0000
  Pr  Pr3       1.0  0.85200  0.14800  0.55500  1.0000
  Pr  Pr4       1.0  0.94900  0.05130  0.84600  1.0000
