data_image0
_chemical_formula_structural       Co14Gd2Mn3
_chemical_formula_sum              "Co14 Gd2 Mn3"
_cell_length_a       6.28076
_cell_length_b       6.28076
_cell_length_c       6.28076
_cell_angle_alpha    82.6431
_cell_angle_beta     97.3569
_cell_angle_gamma    97.3569

_space_group_name_H-M_alt    "P 1"
_space_group_IT_number       1

loop_
  _space_group_symop_operation_xyz
  'x, y, z'

loop_
  _atom_site_type_symbol
  _atom_site_label
  _atom_site_symmetry_multiplicity
  _atom_site_fract_x
  _atom_site_fract_y
  _atom_site_fract_z
  _atom_site_occupancy
  Co  Co1       1.0  0.28800  0.28800  0.00000  1.0000
  Co  Co2       1.0  0.71200  0.71200  0.00000  1.0000
  Co  Co3       1.0  0.90500  0.09520  0.09520  1.0000
  Co  Co4       1.0  0.34500  0.65500  0.15500  1.0000
  Co  Co5       1.0  0.28800  0.00000  0.28800  1.0000
  Co  Co6       1.0  0.00000  0.71200  0.28800  1.0000
  Co  Co7       1.0  0.15500  0.34500  0.34500  1.0000
  Co  Co8       1.0  0.65500  0.84500  0.34500  1.0000
  Co  Co9       1.0  0.84500  0.65500  0.65500  1.0000
  Co  Co10      1.0  0.34500  0.15500  0.65500  1.0000
  Co  Co11      1.0  0.00000  0.28800  0.71200  1.0000
  Co  Co12      1.0  0.71200  1.00000  0.71200  1.0000
  Co  Co13      1.0  0.65500  0.34500  0.84500  1.0000
  Co  Co14      1.0  0.09520  0.90500  0.90500  1.0000
  Gd  Gd1       1.0  0.65700  0.34300  0.34300  1.0000
  Gd  Gd2       1.0  0.34300  0.65700  0.65700  1.0000
  Mn  Mn1       1.0  0.50000  0.00000  0.00000  1.0000
  Mn  Mn2       1.0  0.00000  0.50000  0.00000  1.0000
  Mn  Mn3       1.0  0.00000  0.00000  0.50000  1.0000
