data_image0
_chemical_formula_structural       BiCo5Ho12
_chemical_formula_sum              "Bi1 Co5 Ho12"
_cell_length_a       8.25593
_cell_length_b       8.25593
_cell_length_c       8.25593
_cell_angle_alpha    106.848
_cell_angle_beta     110.693
_cell_angle_gamma    110.905

_space_group_name_H-M_alt    "P 1"
_space_group_IT_number       1

loop_
  _space_group_symop_operation_xyz
  'x, y, z'

loop_
  _atom_site_type_symbol
  _atom_site_label
  _atom_site_symmetry_multiplicity
  _atom_site_fract_x
  _atom_site_fract_y
  _atom_site_fract_z
  _atom_site_occupancy
  Bi  Bi1       1.0  0.00000  0.50000  0.50000  1.0000
  Co  Co1       1.0  0.00000  0.00000  0.00000  1.0000
  Co  Co2       1.0  0.50000  0.61200  0.11200  1.0000
  Co  Co3       1.0  0.37600  0.00000  0.37600  1.0000
  Co  Co4       1.0  0.62400  0.00000  0.62400  1.0000
  Co  Co5       1.0  0.50000  0.38800  0.88800  1.0000
  Ho  Ho1       1.0  0.80700  0.20600  0.01320  1.0000
  Ho  Ho2       1.0  0.47300  0.28900  0.18400  1.0000
  Ho  Ho3       1.0  0.89500  0.71100  0.18400  1.0000
  Ho  Ho4       1.0  0.69100  0.00292  0.31200  1.0000
  Ho  Ho5       1.0  0.30900  0.62100  0.31200  1.0000
  Ho  Ho6       1.0  0.19300  0.20600  0.40000  1.0000
  Ho  Ho7       1.0  0.80700  0.79400  0.60000  1.0000
  Ho  Ho8       1.0  0.69100  0.37900  0.68800  1.0000
  Ho  Ho9       1.0  0.30900  0.99700  0.68800  1.0000
  Ho  Ho10      1.0  0.10500  0.28900  0.81600  1.0000
  Ho  Ho11      1.0  0.52700  0.71100  0.81600  1.0000
  Ho  Ho12      1.0  0.19300  0.79400  0.98700  1.0000
