data_image0
_chemical_formula_structural       Co17Th2
_chemical_formula_sum              "Co17 Th2"
_cell_length_a       6.08419
_cell_length_b       6.08539
_cell_length_c       6.07841
_cell_angle_alpha    83.2012
_cell_angle_beta     96.8317
_cell_angle_gamma    96.8899

_space_group_name_H-M_alt    "P 1"
_space_group_IT_number       1

loop_
  _space_group_symop_operation_xyz
  'x, y, z'

loop_
  _atom_site_type_symbol
  _atom_site_label
  _atom_site_symmetry_multiplicity
  _atom_site_fract_x
  _atom_site_fract_y
  _atom_site_fract_z
  _atom_site_occupancy
  Co  Co1       1.0  0.21100  0.50100  0.71100  1.0000
  Co  Co2       1.0  0.50100  0.21100  0.28900  1.0000
  Co  Co3       1.0  0.15500  0.35100  0.34500  1.0000
  Co  Co4       1.0  0.35100  0.15500  0.65500  1.0000
  Co  Co5       1.0  0.84500  0.64900  0.65500  1.0000
  Co  Co6       1.0  0.64900  0.84500  0.34500  1.0000
  Co  Co7       1.0  0.84600  0.15400  0.14900  1.0000
  Co  Co8       1.0  0.15400  0.84600  0.85100  1.0000
  Co  Co9       1.0  0.59900  0.40100  0.90100  1.0000
  Co  Co10      1.0  0.40100  0.59900  0.09910  1.0000
  Co  Co11      1.0  0.00010  0.50000  0.00002  1.0000
  Co  Co12      1.0  0.50000  0.00003  1.00000  1.0000
  Co  Co13      1.0  0.50000  0.50000  0.50000  1.0000
  Co  Co14      1.0  0.21300  0.21300  0.00000  1.0000
  Co  Co15      1.0  0.78700  0.78700  1.00000  1.0000
  Co  Co16      1.0  0.49900  0.78900  0.71100  1.0000
  Co  Co17      1.0  0.78900  0.49900  0.28900  1.0000
  Th  Th1       1.0  0.15700  0.84300  0.34200  1.0000
  Th  Th2       1.0  0.84300  0.15700  0.65800  1.0000
