data_image0
_chemical_formula_structural       Co4Ga2Gd12
_chemical_formula_sum              "Co4 Ga2 Gd12"
_cell_length_a       8.34493
_cell_length_b       8.34493
_cell_length_c       8.34493
_cell_angle_alpha    112.12
_cell_angle_beta     107.034
_cell_angle_gamma    109.299

_space_group_name_H-M_alt    "P 1"
_space_group_IT_number       1

loop_
  _space_group_symop_operation_xyz
  'x, y, z'

loop_
  _atom_site_type_symbol
  _atom_site_label
  _atom_site_symmetry_multiplicity
  _atom_site_fract_x
  _atom_site_fract_y
  _atom_site_fract_z
  _atom_site_occupancy
  Co  Co1       1.0  0.11400  0.00000  0.11400  1.0000
  Co  Co2       1.0  0.33700  0.83700  0.50000  1.0000
  Co  Co3       1.0  0.66300  0.16300  0.50000  1.0000
  Co  Co4       1.0  0.88600  0.00000  0.88600  1.0000
  Ga  Ga1       1.0  0.50000  0.50000  0.00000  1.0000
  Ga  Ga2       1.0  0.00000  0.50000  0.50000  1.0000
  Gd  Gd1       1.0  0.32600  0.81300  0.13900  1.0000
  Gd  Gd2       1.0  0.18100  0.40000  0.21900  1.0000
  Gd  Gd3       1.0  0.81900  0.03850  0.21900  1.0000
  Gd  Gd4       1.0  0.56600  0.30300  0.26200  1.0000
  Gd  Gd5       1.0  0.95900  0.69700  0.26200  1.0000
  Gd  Gd6       1.0  0.67400  0.81300  0.48700  1.0000
  Gd  Gd7       1.0  0.32600  0.18700  0.51300  1.0000
  Gd  Gd8       1.0  0.04090  0.30300  0.73800  1.0000
  Gd  Gd9       1.0  0.43400  0.69700  0.73800  1.0000
  Gd  Gd10      1.0  0.18100  0.96200  0.78100  1.0000
  Gd  Gd11      1.0  0.81900  0.60000  0.78100  1.0000
  Gd  Gd12      1.0  0.67400  0.18700  0.86100  1.0000
