data_image0
_chemical_formula_structural       Ce4Co6Si10
_chemical_formula_sum              "Ce4 Co6 Si10"
_cell_length_a       5.69709
_cell_length_b       8.05377
_cell_length_c       8.05377
_cell_angle_alpha    91.196
_cell_angle_beta     110.713
_cell_angle_gamma    110.713

_space_group_name_H-M_alt    "P 1"
_space_group_IT_number       1

loop_
  _space_group_symop_operation_xyz
  'x, y, z'

loop_
  _atom_site_type_symbol
  _atom_site_label
  _atom_site_symmetry_multiplicity
  _atom_site_fract_x
  _atom_site_fract_y
  _atom_site_fract_z
  _atom_site_occupancy
  Ce  Ce1       1.0  0.76300  0.39400  0.13200  1.0000
  Ce  Ce2       1.0  0.26300  0.13200  0.39400  1.0000
  Ce  Ce3       1.0  0.73700  0.86800  0.60600  1.0000
  Ce  Ce4       1.0  0.23700  0.60600  0.86800  1.0000
  Co  Co1       1.0  0.25000  0.00000  0.00000  1.0000
  Co  Co2       1.0  0.75000  0.00000  0.00000  1.0000
  Co  Co3       1.0  0.38900  0.52500  0.25400  1.0000
  Co  Co4       1.0  0.11100  0.74600  0.47500  1.0000
  Co  Co5       1.0  0.88900  0.25400  0.52500  1.0000
  Co  Co6       1.0  0.61100  0.47500  0.74600  1.0000
  Si  Si1       1.0  0.14900  0.25400  0.04400  1.0000
  Si  Si2       1.0  0.25000  0.76600  0.23400  1.0000
  Si  Si3       1.0  0.75000  0.76600  0.23400  1.0000
  Si  Si4       1.0  0.64900  0.04400  0.25400  1.0000
  Si  Si5       1.0  0.25000  0.50000  0.50000  1.0000
  Si  Si6       1.0  0.75000  0.50000  0.50000  1.0000
  Si  Si7       1.0  0.35100  0.95600  0.74600  1.0000
  Si  Si8       1.0  0.25000  0.23400  0.76600  1.0000
  Si  Si9       1.0  0.75000  0.23400  0.76600  1.0000
  Si  Si10      1.0  0.85100  0.74600  0.95600  1.0000
