data_image0
_chemical_formula_structural       Co6Nd12Sn
_chemical_formula_sum              "Co6 Nd12 Sn1"
_cell_length_a       8.64307
_cell_length_b       8.64307
_cell_length_c       8.64307
_cell_angle_alpha    109.471
_cell_angle_beta     109.471
_cell_angle_gamma    109.471

_space_group_name_H-M_alt    "P 1"
_space_group_IT_number       1

loop_
  _space_group_symop_operation_xyz
  'x, y, z'

loop_
  _atom_site_type_symbol
  _atom_site_label
  _atom_site_symmetry_multiplicity
  _atom_site_fract_x
  _atom_site_fract_y
  _atom_site_fract_z
  _atom_site_occupancy
  Co  Co1       1.0  0.61100  0.50000  0.11100  1.0000
  Co  Co2       1.0  0.50000  0.88900  0.38900  1.0000
  Co  Co3       1.0  0.88900  0.38900  0.50000  1.0000
  Co  Co4       1.0  0.11100  0.61100  0.50000  1.0000
  Co  Co5       1.0  0.50000  0.11100  0.61100  1.0000
  Co  Co6       1.0  0.38900  0.50000  0.88900  1.0000
  Nd  Nd1       1.0  0.80700  0.30500  0.11200  1.0000
  Nd  Nd2       1.0  0.30500  0.49800  0.19300  1.0000
  Nd  Nd3       1.0  0.69500  0.88800  0.19300  1.0000
  Nd  Nd4       1.0  0.49800  0.19300  0.30500  1.0000
  Nd  Nd5       1.0  0.11200  0.80700  0.30500  1.0000
  Nd  Nd6       1.0  0.19300  0.30500  0.49800  1.0000
  Nd  Nd7       1.0  0.80700  0.69500  0.50200  1.0000
  Nd  Nd8       1.0  0.88800  0.19300  0.69500  1.0000
  Nd  Nd9       1.0  0.50200  0.80700  0.69500  1.0000
  Nd  Nd10      1.0  0.30500  0.11200  0.80700  1.0000
  Nd  Nd11      1.0  0.69500  0.50200  0.80700  1.0000
  Nd  Nd12      1.0  0.19300  0.69500  0.88800  1.0000
  Sn  Sn1       1.0  0.00000  0.00000  0.00000  1.0000
