data_image0
_chemical_formula_structural       Co4Ga2Ho12
_chemical_formula_sum              "Co4 Ga2 Ho12"
_cell_length_a       8.21482
_cell_length_b       8.21482
_cell_length_c       8.21482
_cell_angle_alpha    109.645
_cell_angle_beta     106.843
_cell_angle_gamma    111.966

_space_group_name_H-M_alt    "P 1"
_space_group_IT_number       1

loop_
  _space_group_symop_operation_xyz
  'x, y, z'

loop_
  _atom_site_type_symbol
  _atom_site_label
  _atom_site_symmetry_multiplicity
  _atom_site_fract_x
  _atom_site_fract_y
  _atom_site_fract_z
  _atom_site_occupancy
  Co  Co1       1.0  0.11500  0.00000  0.11500  1.0000
  Co  Co2       1.0  0.50000  0.83700  0.33700  1.0000
  Co  Co3       1.0  0.50000  0.16300  0.66300  1.0000
  Co  Co4       1.0  0.88500  1.00000  0.88500  1.0000
  Ga  Ga1       1.0  0.50000  0.50000  0.00000  1.0000
  Ga  Ga2       1.0  0.00000  0.50000  0.50000  1.0000
  Ho  Ho1       1.0  0.73800  0.30300  0.04090  1.0000
  Ho  Ho2       1.0  0.21900  0.40000  0.18100  1.0000
  Ho  Ho3       1.0  0.78100  0.96200  0.18100  1.0000
  Ho  Ho4       1.0  0.13800  0.81100  0.32600  1.0000
  Ho  Ho5       1.0  0.51500  0.18900  0.32600  1.0000
  Ho  Ho6       1.0  0.73800  0.69700  0.43600  1.0000
  Ho  Ho7       1.0  0.26200  0.30300  0.56400  1.0000
  Ho  Ho8       1.0  0.86200  0.18900  0.67400  1.0000
  Ho  Ho9       1.0  0.48500  0.81100  0.67400  1.0000
  Ho  Ho10      1.0  0.21900  0.03800  0.81900  1.0000
  Ho  Ho11      1.0  0.78100  0.60000  0.81900  1.0000
  Ho  Ho12      1.0  0.26200  0.69700  0.95900  1.0000
