data_image0
_chemical_formula_structural       Co4Ga2Sm12
_chemical_formula_sum              "Co4 Ga2 Sm12"
_cell_length_a       8.44936
_cell_length_b       8.44936
_cell_length_c       8.44936
_cell_angle_alpha    109.271
_cell_angle_beta     107.014
_cell_angle_gamma    112.171

_space_group_name_H-M_alt    "P 1"
_space_group_IT_number       1

loop_
  _space_group_symop_operation_xyz
  'x, y, z'

loop_
  _atom_site_type_symbol
  _atom_site_label
  _atom_site_symmetry_multiplicity
  _atom_site_fract_x
  _atom_site_fract_y
  _atom_site_fract_z
  _atom_site_occupancy
  Co  Co1       1.0  0.11200  0.00000  0.11200  1.0000
  Co  Co2       1.0  0.50000  0.83800  0.33800  1.0000
  Co  Co3       1.0  0.50000  0.16200  0.66200  1.0000
  Co  Co4       1.0  0.88800  0.00000  0.88800  1.0000
  Ga  Ga1       1.0  0.50000  0.50000  0.00000  1.0000
  Ga  Ga2       1.0  0.00000  0.50000  0.50000  1.0000
  Sm  Sm1       1.0  0.73700  0.30300  0.04010  1.0000
  Sm  Sm2       1.0  0.21800  0.39900  0.18100  1.0000
  Sm  Sm3       1.0  0.78200  0.96300  0.18100  1.0000
  Sm  Sm4       1.0  0.51400  0.18800  0.32600  1.0000
  Sm  Sm5       1.0  0.13800  0.81200  0.32600  1.0000
  Sm  Sm6       1.0  0.73700  0.69700  0.43400  1.0000
  Sm  Sm7       1.0  0.26300  0.30300  0.56600  1.0000
  Sm  Sm8       1.0  0.86200  0.18800  0.67400  1.0000
  Sm  Sm9       1.0  0.48600  0.81200  0.67400  1.0000
  Sm  Sm10      1.0  0.21800  0.03740  0.81900  1.0000
  Sm  Sm11      1.0  0.78200  0.60100  0.81900  1.0000
  Sm  Sm12      1.0  0.26300  0.69700  0.96000  1.0000
