data_image0
_chemical_formula_structural       Co6Rb4S8
_chemical_formula_sum              "Co6 Rb4 S8"
_cell_length_a       5.34115
_cell_length_b       8.80321
_cell_length_c       8.80321
_cell_angle_alpha    94.0203
_cell_angle_beta     107.66
_cell_angle_gamma    107.66

_space_group_name_H-M_alt    "P 1"
_space_group_IT_number       1

loop_
  _space_group_symop_operation_xyz
  'x, y, z'

loop_
  _atom_site_type_symbol
  _atom_site_label
  _atom_site_symmetry_multiplicity
  _atom_site_fract_x
  _atom_site_fract_y
  _atom_site_fract_z
  _atom_site_occupancy
  Co  Co1       1.0  0.25300  0.50300  0.00338  1.0000
  Co  Co2       1.0  0.50000  0.75000  0.25000  1.0000
  Co  Co3       1.0  0.74700  0.99700  0.49700  1.0000
  Co  Co4       1.0  0.25300  0.00338  0.50300  1.0000
  Co  Co5       1.0  0.50000  0.25000  0.75000  1.0000
  Co  Co6       1.0  0.74700  0.49700  0.99700  1.0000
  Rb  Rb1       1.0  0.87900  0.12500  0.12500  1.0000
  Rb  Rb2       1.0  0.63000  0.37500  0.37500  1.0000
  Rb  Rb3       1.0  0.37000  0.62500  0.62500  1.0000
  Rb  Rb4       1.0  0.12100  0.87500  0.87500  1.0000
  S   S1        1.0  0.62600  0.71100  0.03970  1.0000
  S   S2        1.0  0.12400  0.54000  0.21100  1.0000
  S   S3        1.0  0.37400  0.96000  0.28900  1.0000
  S   S4        1.0  0.87600  0.78900  0.46000  1.0000
  S   S5        1.0  0.12400  0.21100  0.54000  1.0000
  S   S6        1.0  0.62600  0.03970  0.71100  1.0000
  S   S7        1.0  0.87600  0.46000  0.78900  1.0000
  S   S8        1.0  0.37400  0.28900  0.96000  1.0000
