data_image0
_chemical_formula_structural       Ca2Co2O12Si4
_chemical_formula_sum              "Ca2 Co2 O12 Si4"
_cell_length_a       5.22081
_cell_length_b       6.61874
_cell_length_c       6.61874
_cell_angle_alpha    95.3773
_cell_angle_beta     101.01
_cell_angle_gamma    78.99

_space_group_name_H-M_alt    "P 1"
_space_group_IT_number       1

loop_
  _space_group_symop_operation_xyz
  'x, y, z'

loop_
  _atom_site_type_symbol
  _atom_site_label
  _atom_site_symmetry_multiplicity
  _atom_site_fract_x
  _atom_site_fract_y
  _atom_site_fract_z
  _atom_site_occupancy
  Ca  Ca1       1.0  0.75000  0.30100  0.30100  1.0000
  Ca  Ca2       1.0  0.25000  0.69900  0.69900  1.0000
  Co  Co1       1.0  0.25000  0.09060  0.09060  1.0000
  Co  Co2       1.0  0.75000  0.90900  0.90900  1.0000
  O   O1        1.0  0.14800  0.79400  0.02840  1.0000
  O   O2        1.0  0.32400  0.38700  0.11000  1.0000
  O   O3        1.0  0.64800  0.97200  0.20600  1.0000
  O   O4        1.0  0.98700  0.62400  0.33000  1.0000
  O   O5        1.0  0.48700  0.67000  0.37600  1.0000
  O   O6        1.0  0.17600  0.11000  0.38700  1.0000
  O   O7        1.0  0.82400  0.89000  0.61300  1.0000
  O   O8        1.0  0.51300  0.33000  0.62400  1.0000
  O   O9        1.0  0.01290  0.37600  0.67000  1.0000
  O   O10       1.0  0.35200  0.02840  0.79400  1.0000
  O   O11       1.0  0.67600  0.61300  0.89000  1.0000
  O   O12       1.0  0.85200  0.20600  0.97200  1.0000
  Si  Si1       1.0  0.22800  0.61800  0.19400  1.0000
  Si  Si2       1.0  0.72800  0.80600  0.38200  1.0000
  Si  Si3       1.0  0.27200  0.19400  0.61800  1.0000
  Si  Si4       1.0  0.77200  0.38200  0.80600  1.0000
