data_image0
_chemical_formula_structural       Co4Ga2Tb12
_chemical_formula_sum              "Co4 Ga2 Tb12"
_cell_length_a       8.29479
_cell_length_b       8.29479
_cell_length_c       8.29479
_cell_angle_alpha    109.354
_cell_angle_beta     107.099
_cell_angle_gamma    111.998

_space_group_name_H-M_alt    "P 1"
_space_group_IT_number       1

loop_
  _space_group_symop_operation_xyz
  'x, y, z'

loop_
  _atom_site_type_symbol
  _atom_site_label
  _atom_site_symmetry_multiplicity
  _atom_site_fract_x
  _atom_site_fract_y
  _atom_site_fract_z
  _atom_site_occupancy
  Co  Co1       1.0  0.11500  0.00000  0.11500  1.0000
  Co  Co2       1.0  0.50000  0.83600  0.33600  1.0000
  Co  Co3       1.0  0.50000  0.16400  0.66400  1.0000
  Co  Co4       1.0  0.88500  0.00000  0.88500  1.0000
  Ga  Ga1       1.0  0.50000  0.50000  0.00000  1.0000
  Ga  Ga2       1.0  0.00000  0.50000  0.50000  1.0000
  Tb  Tb1       1.0  0.73900  0.30200  0.04090  1.0000
  Tb  Tb2       1.0  0.78000  0.96000  0.18000  1.0000
  Tb  Tb3       1.0  0.22000  0.39900  0.18000  1.0000
  Tb  Tb4       1.0  0.13900  0.81200  0.32700  1.0000
  Tb  Tb5       1.0  0.51500  0.18800  0.32700  1.0000
  Tb  Tb6       1.0  0.73900  0.69800  0.43600  1.0000
  Tb  Tb7       1.0  0.26100  0.30200  0.56400  1.0000
  Tb  Tb8       1.0  0.86100  0.18800  0.67300  1.0000
  Tb  Tb9       1.0  0.48500  0.81200  0.67300  1.0000
  Tb  Tb10      1.0  0.22000  0.04010  0.82000  1.0000
  Tb  Tb11      1.0  0.78000  0.60100  0.82000  1.0000
  Tb  Tb12      1.0  0.26100  0.69800  0.95900  1.0000
