data_image0
_chemical_formula_structural       Co14Cr3Pr2
_chemical_formula_sum              "Co14 Cr3 Pr2"
_cell_length_a       6.29325
_cell_length_b       6.29325
_cell_length_c       6.29325
_cell_angle_alpha    96.5559
_cell_angle_beta     83.444
_cell_angle_gamma    96.556

_space_group_name_H-M_alt    "P 1"
_space_group_IT_number       1

loop_
  _space_group_symop_operation_xyz
  'x, y, z'

loop_
  _atom_site_type_symbol
  _atom_site_label
  _atom_site_symmetry_multiplicity
  _atom_site_fract_x
  _atom_site_fract_y
  _atom_site_fract_z
  _atom_site_occupancy
  Co  Co1       1.0  0.28400  0.28400  0.00000  1.0000
  Co  Co2       1.0  0.71600  0.71600  0.00000  1.0000
  Co  Co3       1.0  0.09700  0.90300  0.09700  1.0000
  Co  Co4       1.0  0.66000  0.34000  0.13700  1.0000
  Co  Co5       1.0  0.00000  0.28400  0.28400  1.0000
  Co  Co6       1.0  0.71600  0.00000  0.28400  1.0000
  Co  Co7       1.0  0.34000  0.13700  0.34000  1.0000
  Co  Co8       1.0  0.86300  0.66000  0.34000  1.0000
  Co  Co9       1.0  0.66000  0.86300  0.66000  1.0000
  Co  Co10      1.0  0.13700  0.34000  0.66000  1.0000
  Co  Co11      1.0  0.28400  0.00000  0.71600  1.0000
  Co  Co12      1.0  0.00000  0.71600  0.71600  1.0000
  Co  Co13      1.0  0.34000  0.66000  0.86300  1.0000
  Co  Co14      1.0  0.90300  0.09700  0.90300  1.0000
  Cr  Cr1       1.0  0.50000  0.00000  0.00000  1.0000
  Cr  Cr2       1.0  0.00000  0.50000  0.00000  1.0000
  Cr  Cr3       1.0  0.00000  0.00000  0.50000  1.0000
  Pr  Pr1       1.0  0.35200  0.64800  0.35200  1.0000
  Pr  Pr2       1.0  0.64800  0.35200  0.64800  1.0000
