data_image0
_chemical_formula_structural       Co14Er4
_chemical_formula_sum              "Co14 Er4"
_cell_length_a       4.91776
_cell_length_b       4.91776
_cell_length_c       12.2729
_cell_angle_alpha    101.557
_cell_angle_beta     78.4426
_cell_angle_gamma    120

_space_group_name_H-M_alt    "P 1"
_space_group_IT_number       1

loop_
  _space_group_symop_operation_xyz
  'x, y, z'

loop_
  _atom_site_type_symbol
  _atom_site_label
  _atom_site_symmetry_multiplicity
  _atom_site_fract_x
  _atom_site_fract_y
  _atom_site_fract_z
  _atom_site_occupancy
  Co  Co1       1.0  0.50000  0.00000  0.00000  1.0000
  Co  Co2       1.0  0.50000  0.50000  0.00000  1.0000
  Co  Co3       1.0  0.00000  0.50000  0.00000  1.0000
  Co  Co4       1.0  0.27800  0.72200  0.16500  1.0000
  Co  Co5       1.0  0.61100  0.38900  0.16700  1.0000
  Co  Co6       1.0  0.89200  0.61100  0.32900  1.0000
  Co  Co7       1.0  0.38900  0.10800  0.32900  1.0000
  Co  Co8       1.0  0.38900  0.61100  0.32900  1.0000
  Co  Co9       1.0  0.50000  0.50000  0.50000  1.0000
  Co  Co10      1.0  0.61100  0.38900  0.67100  1.0000
  Co  Co11      1.0  0.61100  0.89200  0.67100  1.0000
  Co  Co12      1.0  0.10800  0.38900  0.67100  1.0000
  Co  Co13      1.0  0.38900  0.61100  0.83300  1.0000
  Co  Co14      1.0  0.72200  0.27800  0.83500  1.0000
  Er  Er1       1.0  0.94900  0.05150  0.15400  1.0000
  Er  Er2       1.0  0.85200  0.14800  0.44500  1.0000
  Er  Er3       1.0  0.14800  0.85200  0.55500  1.0000
  Er  Er4       1.0  0.05150  0.94900  0.84600  1.0000
