data_image0
_chemical_formula_structural       Co34Dy4
_chemical_formula_sum              "Co34 Dy4"
_cell_length_a       8.14461
_cell_length_b       8.14419
_cell_length_c       7.91462
_cell_angle_alpha    89.9969
_cell_angle_beta     89.9999
_cell_angle_gamma    119.999

_space_group_name_H-M_alt    "P 1"
_space_group_IT_number       1

loop_
  _space_group_symop_operation_xyz
  'x, y, z'

loop_
  _atom_site_type_symbol
  _atom_site_label
  _atom_site_symmetry_multiplicity
  _atom_site_fract_x
  _atom_site_fract_y
  _atom_site_fract_z
  _atom_site_occupancy
  Co  Co1       1.0  0.16600  0.33200  0.52400  1.0000
  Co  Co2       1.0  0.16600  0.83400  0.52400  1.0000
  Co  Co3       1.0  0.66800  0.83400  0.52400  1.0000
  Co  Co4       1.0  0.33200  0.16600  0.02420  1.0000
  Co  Co5       1.0  0.83400  0.16600  0.02410  1.0000
  Co  Co6       1.0  0.83400  0.66800  0.02410  1.0000
  Co  Co7       1.0  0.33200  0.16600  0.47600  1.0000
  Co  Co8       1.0  0.83400  0.16600  0.47600  1.0000
  Co  Co9       1.0  0.16600  0.83400  0.97600  1.0000
  Co  Co10      1.0  0.00002  0.50000  0.50000  1.0000
  Co  Co11      1.0  0.50000  0.50000  0.50000  1.0000
  Co  Co12      1.0  0.50000  0.50000  1.00000  1.0000
  Co  Co13      1.0  0.00000  0.50000  0.00001  1.0000
  Co  Co14      1.0  0.50000  0.00003  0.50000  1.0000
  Co  Co15      1.0  0.50000  0.00001  0.00001  1.0000
  Co  Co16      1.0  0.62700  0.95400  0.25000  1.0000
  Co  Co17      1.0  0.32800  0.37300  0.25000  1.0000
  Co  Co18      1.0  0.04560  0.67200  0.25000  1.0000
  Co  Co19      1.0  0.95400  0.32800  0.75000  1.0000
  Co  Co20      1.0  0.67200  0.62700  0.75000  1.0000
  Co  Co21      1.0  0.37300  0.04570  0.75000  1.0000
  Co  Co22      1.0  0.95400  0.62700  0.75000  1.0000
  Co  Co23      1.0  0.37300  0.32800  0.75000  1.0000
  Co  Co24      1.0  0.62700  0.67200  0.25000  1.0000
  Co  Co25      1.0  0.04560  0.37300  0.25000  1.0000
  Co  Co26      1.0  0.67300  0.04570  0.75000  1.0000
  Co  Co27      1.0  0.32700  0.95400  0.25000  1.0000
  Co  Co28      1.0  0.33300  0.66700  0.39500  1.0000
  Co  Co29      1.0  0.66700  0.33300  0.89500  1.0000
  Co  Co30      1.0  0.66700  0.33300  0.60500  1.0000
  Co  Co31      1.0  0.33300  0.66700  0.10500  1.0000
  Co  Co32      1.0  0.66800  0.83400  0.97600  1.0000
  Co  Co33      1.0  0.83400  0.66800  0.47600  1.0000
  Co  Co34      1.0  0.16600  0.33200  0.97600  1.0000
  Dy  Dy1       1.0  0.66700  0.33300  0.25000  1.0000
  Dy  Dy2       1.0  0.33300  0.66700  0.75000  1.0000
  Dy  Dy3       1.0  0.00000  0.00003  0.75000  1.0000
  Dy  Dy4       1.0  0.00002  0.00003  0.25000  1.0000
