data_image0
_chemical_formula_structural       Bi2O12Sm2Ti3
_chemical_formula_sum              "Bi2 O12 Sm2 Ti3"
_cell_length_a       3.80268
_cell_length_b       3.80268
_cell_length_c       16.4931
_cell_angle_alpha    96.62
_cell_angle_beta     96.62
_cell_angle_gamma    89.9988

_space_group_name_H-M_alt    "P 1"
_space_group_IT_number       1

loop_
  _space_group_symop_operation_xyz
  'x, y, z'

loop_
  _atom_site_type_symbol
  _atom_site_label
  _atom_site_symmetry_multiplicity
  _atom_site_fract_x
  _atom_site_fract_y
  _atom_site_fract_z
  _atom_site_occupancy
  Bi  Bi1       1.0  0.21100  0.21100  0.42100  1.0000
  Bi  Bi2       1.0  0.78900  0.78900  0.57900  1.0000
  O   O1        1.0  0.50000  0.00000  0.00000  1.0000
  O   O2        1.0  0.00000  0.50000  0.00000  1.0000
  O   O3        1.0  0.55900  0.55900  0.11900  1.0000
  O   O4        1.0  0.61400  0.11400  0.22700  1.0000
  O   O5        1.0  0.11400  0.61400  0.22700  1.0000
  O   O6        1.0  0.68300  0.68300  0.36500  1.0000
  O   O7        1.0  0.75000  0.25000  0.50000  1.0000
  O   O8        1.0  0.25000  0.75000  0.50000  1.0000
  O   O9        1.0  0.31700  0.31700  0.63500  1.0000
  O   O10       1.0  0.88600  0.38600  0.77300  1.0000
  O   O11       1.0  0.38600  0.88600  0.77300  1.0000
  O   O12       1.0  0.44100  0.44100  0.88100  1.0000
  Sm  Sm1       1.0  0.06570  0.06570  0.13100  1.0000
  Sm  Sm2       1.0  0.93400  0.93400  0.86900  1.0000
  Ti  Ti1       1.0  0.50000  0.50000  0.00000  1.0000
  Ti  Ti2       1.0  0.62700  0.62700  0.25400  1.0000
  Ti  Ti3       1.0  0.37300  0.37300  0.74600  1.0000
