data_image0
_chemical_formula_structural       Co3Gd2Zn14
_chemical_formula_sum              "Co3 Gd2 Zn14"
_cell_length_a       6.66531
_cell_length_b       6.66531
_cell_length_c       6.66531
_cell_angle_alpha    82.5882
_cell_angle_beta     97.4118
_cell_angle_gamma    97.4118

_space_group_name_H-M_alt    "P 1"
_space_group_IT_number       1

loop_
  _space_group_symop_operation_xyz
  'x, y, z'

loop_
  _atom_site_type_symbol
  _atom_site_label
  _atom_site_symmetry_multiplicity
  _atom_site_fract_x
  _atom_site_fract_y
  _atom_site_fract_z
  _atom_site_occupancy
  Co  Co1       1.0  0.50000  0.00000  0.00000  1.0000
  Co  Co2       1.0  0.00000  0.50000  0.00000  1.0000
  Co  Co3       1.0  0.00000  0.00000  0.50000  1.0000
  Gd  Gd1       1.0  0.66600  0.33400  0.33400  1.0000
  Gd  Gd2       1.0  0.33400  0.66600  0.66600  1.0000
  Zn  Zn1       1.0  0.29300  0.29300  0.00000  1.0000
  Zn  Zn2       1.0  0.70700  0.70700  0.00000  1.0000
  Zn  Zn3       1.0  0.89400  0.10600  0.10600  1.0000
  Zn  Zn4       1.0  0.34700  0.65300  0.14800  1.0000
  Zn  Zn5       1.0  0.00000  0.70700  0.29300  1.0000
  Zn  Zn6       1.0  0.29300  0.00000  0.29300  1.0000
  Zn  Zn7       1.0  0.65300  0.85200  0.34700  1.0000
  Zn  Zn8       1.0  0.14800  0.34700  0.34700  1.0000
  Zn  Zn9       1.0  0.85200  0.65300  0.65300  1.0000
  Zn  Zn10      1.0  0.34700  0.14800  0.65300  1.0000
  Zn  Zn11      1.0  0.00000  0.29300  0.70700  1.0000
  Zn  Zn12      1.0  0.70700  0.00000  0.70700  1.0000
  Zn  Zn13      1.0  0.65300  0.34700  0.85200  1.0000
  Zn  Zn14      1.0  0.10600  0.89400  0.89400  1.0000
