data_image0
_chemical_formula_structural       Be2Cl4
_chemical_formula_sum              "Be2 Cl4"
_cell_length_a       5.22589
_cell_length_b       5.3863
_cell_length_c       6.22532
_cell_angle_alpha    115.633
_cell_angle_beta     114.817
_cell_angle_gamma    90

_space_group_name_H-M_alt    "P 1"
_space_group_IT_number       1

loop_
  _space_group_symop_operation_xyz
  'x, y, z'

loop_
  _atom_site_type_symbol
  _atom_site_label
  _atom_site_symmetry_multiplicity
  _atom_site_fract_x
  _atom_site_fract_y
  _atom_site_fract_z
  _atom_site_occupancy
  Be  Be1       1.0  0.25000  0.00000  0.00000  1.0000
  Be  Be2       1.0  0.75000  0.00000  0.00000  1.0000
  Cl  Cl1       1.0  0.61000  0.31500  0.22000  1.0000
  Cl  Cl2       1.0  0.11000  0.90600  0.22000  1.0000
  Cl  Cl3       1.0  0.89000  0.09450  0.78000  1.0000
  Cl  Cl4       1.0  0.39000  0.68500  0.78000  1.0000
