data_image0
_chemical_formula_structural       Co17Tb2
_chemical_formula_sum              "Co17 Tb2"
_cell_length_a       6.23897
_cell_length_b       6.23897
_cell_length_c       6.23897
_cell_angle_alpha    96.9037
_cell_angle_beta     83.0963
_cell_angle_gamma    96.9037

_space_group_name_H-M_alt    "P 1"
_space_group_IT_number       1

loop_
  _space_group_symop_operation_xyz
  'x, y, z'

loop_
  _atom_site_type_symbol
  _atom_site_label
  _atom_site_symmetry_multiplicity
  _atom_site_fract_x
  _atom_site_fract_y
  _atom_site_fract_z
  _atom_site_occupancy
  Co  Co1       1.0  0.50000  0.00000  0.00000  1.0000
  Co  Co2       1.0  0.71200  0.71200  0.00000  1.0000
  Co  Co3       1.0  0.00000  0.50000  0.00000  1.0000
  Co  Co4       1.0  0.28800  0.28800  0.00000  1.0000
  Co  Co5       1.0  0.09700  0.90300  0.09700  1.0000
  Co  Co6       1.0  0.65300  0.34700  0.15000  1.0000
  Co  Co7       1.0  0.00000  0.28800  0.28800  1.0000
  Co  Co8       1.0  0.71200  0.00000  0.28800  1.0000
  Co  Co9       1.0  0.34700  0.15000  0.34700  1.0000
  Co  Co10      1.0  0.85000  0.65300  0.34700  1.0000
  Co  Co11      1.0  0.00000  0.00000  0.50000  1.0000
  Co  Co12      1.0  0.65300  0.85000  0.65300  1.0000
  Co  Co13      1.0  0.15000  0.34700  0.65300  1.0000
  Co  Co14      1.0  0.28800  0.00000  0.71200  1.0000
  Co  Co15      1.0  0.00000  0.71200  0.71200  1.0000
  Co  Co16      1.0  0.34700  0.65300  0.85000  1.0000
  Co  Co17      1.0  0.90300  0.09700  0.90300  1.0000
  Tb  Tb1       1.0  0.34400  0.65600  0.34400  1.0000
  Tb  Tb2       1.0  0.65600  0.34400  0.65600  1.0000
