data_image0
_chemical_formula_structural       Ba2Co4O11Tb2
_chemical_formula_sum              "Ba2 Co4 O11 Tb2"
_cell_length_a       3.86804
_cell_length_b       7.78681
_cell_length_c       7.55638
_cell_angle_alpha    90
_cell_angle_beta     90
_cell_angle_gamma    90

_space_group_name_H-M_alt    "P 1"
_space_group_IT_number       1

loop_
  _space_group_symop_operation_xyz
  'x, y, z'

loop_
  _atom_site_type_symbol
  _atom_site_label
  _atom_site_symmetry_multiplicity
  _atom_site_fract_x
  _atom_site_fract_y
  _atom_site_fract_z
  _atom_site_occupancy
  Ba  Ba1       1.0  0.50000  0.24800  0.00000  1.0000
  Ba  Ba2       1.0  0.50000  0.75200  0.00000  1.0000
  Co  Co1       1.0  0.00000  0.50000  0.25300  1.0000
  Co  Co2       1.0  0.00000  0.00000  0.26100  1.0000
  Co  Co3       1.0  0.00000  0.00000  0.73900  1.0000
  Co  Co4       1.0  0.00000  0.50000  0.74700  1.0000
  O   O1        1.0  0.00000  0.00000  0.00000  1.0000
  O   O2        1.0  0.00000  0.50000  0.00000  1.0000
  O   O3        1.0  0.50000  0.50000  0.27600  1.0000
  O   O4        1.0  0.00000  0.23300  0.30100  1.0000
  O   O5        1.0  0.00000  0.76700  0.30100  1.0000
  O   O6        1.0  0.50000  0.00000  0.31500  1.0000
  O   O7        1.0  0.00000  0.50000  0.50000  1.0000
  O   O8        1.0  0.50000  0.00000  0.68500  1.0000
  O   O9        1.0  0.00000  0.23300  0.69900  1.0000
  O   O10       1.0  0.00000  0.76700  0.69900  1.0000
  O   O11       1.0  0.50000  0.50000  0.72400  1.0000
  Tb  Tb1       1.0  0.50000  0.27000  0.50000  1.0000
  Tb  Tb2       1.0  0.50000  0.73000  0.50000  1.0000
