data_image0
_chemical_formula_structural       Co15Ga2Pr2
_chemical_formula_sum              "Co15 Ga2 Pr2"
_cell_length_a       6.37586
_cell_length_b       6.37586
_cell_length_c       6.37586
_cell_angle_alpha    96.9068
_cell_angle_beta     83.0932
_cell_angle_gamma    96.9068

_space_group_name_H-M_alt    "P 1"
_space_group_IT_number       1

loop_
  _space_group_symop_operation_xyz
  'x, y, z'

loop_
  _atom_site_type_symbol
  _atom_site_label
  _atom_site_symmetry_multiplicity
  _atom_site_fract_x
  _atom_site_fract_y
  _atom_site_fract_z
  _atom_site_occupancy
  Co  Co1       1.0  0.50000  0.00000  0.00000  1.0000
  Co  Co2       1.0  0.28500  0.28500  0.00000  1.0000
  Co  Co3       1.0  0.71500  0.71500  0.00000  1.0000
  Co  Co4       1.0  0.00000  0.50000  0.00000  1.0000
  Co  Co5       1.0  0.65300  0.34700  0.14800  1.0000
  Co  Co6       1.0  0.71500  0.00000  0.28500  1.0000
  Co  Co7       1.0  0.00000  0.28500  0.28500  1.0000
  Co  Co8       1.0  0.34700  0.14800  0.34700  1.0000
  Co  Co9       1.0  0.85200  0.65300  0.34700  1.0000
  Co  Co10      1.0  0.00000  0.00000  0.50000  1.0000
  Co  Co11      1.0  0.14800  0.34700  0.65300  1.0000
  Co  Co12      1.0  0.65300  0.85200  0.65300  1.0000
  Co  Co13      1.0  0.28500  0.00000  0.71500  1.0000
  Co  Co14      1.0  0.00000  0.71500  0.71500  1.0000
  Co  Co15      1.0  0.34700  0.65300  0.85200  1.0000
  Ga  Ga1       1.0  0.10600  0.89400  0.10600  1.0000
  Ga  Ga2       1.0  0.89400  0.10600  0.89400  1.0000
  Pr  Pr1       1.0  0.35200  0.64800  0.35200  1.0000
  Pr  Pr2       1.0  0.64800  0.35200  0.64800  1.0000
