data_image0
_chemical_formula_structural       Co2Mn2Nd4O12
_chemical_formula_sum              "Co2 Mn2 Nd4 O12"
_cell_length_a       5.40823
_cell_length_b       5.54455
_cell_length_c       7.68641
_cell_angle_alpha    90
_cell_angle_beta     90.0155
_cell_angle_gamma    90

_space_group_name_H-M_alt    "P 1"
_space_group_IT_number       1

loop_
  _space_group_symop_operation_xyz
  'x, y, z'

loop_
  _atom_site_type_symbol
  _atom_site_label
  _atom_site_symmetry_multiplicity
  _atom_site_fract_x
  _atom_site_fract_y
  _atom_site_fract_z
  _atom_site_occupancy
  Co  Co1       1.0  0.00000  0.50000  0.00000  1.0000
  Co  Co2       1.0  0.50000  0.00000  0.50000  1.0000
  Mn  Mn1       1.0  0.50000  0.00000  0.00000  1.0000
  Mn  Mn2       1.0  0.00000  0.50000  0.50000  1.0000
  Nd  Nd1       1.0  0.98800  0.05270  0.25000  1.0000
  Nd  Nd2       1.0  0.51200  0.55300  0.25000  1.0000
  Nd  Nd3       1.0  0.48800  0.44700  0.75000  1.0000
  Nd  Nd4       1.0  0.01220  0.94700  0.75000  1.0000
  O   O1        1.0  0.78600  0.79800  0.04230  1.0000
  O   O2        1.0  0.69900  0.28400  0.04470  1.0000
  O   O3        1.0  0.41800  0.98100  0.24300  1.0000
  O   O4        1.0  0.08220  0.48100  0.25700  1.0000
  O   O5        1.0  0.80100  0.78400  0.45500  1.0000
  O   O6        1.0  0.71400  0.29800  0.45800  1.0000
  O   O7        1.0  0.28600  0.70200  0.54200  1.0000
  O   O8        1.0  0.19900  0.21600  0.54500  1.0000
  O   O9        1.0  0.91800  0.51900  0.74300  1.0000
  O   O10       1.0  0.58200  0.01850  0.75700  1.0000
  O   O11       1.0  0.30100  0.71600  0.95500  1.0000
  O   O12       1.0  0.21400  0.20200  0.95800  1.0000
