data_image0
_chemical_formula_structural       B8Ce2Co8
_chemical_formula_sum              "B8 Ce2 Co8"
_cell_length_a       5.08434
_cell_length_b       5.08434
_cell_length_c       7.12991
_cell_angle_alpha    90
_cell_angle_beta     90
_cell_angle_gamma    90

_space_group_name_H-M_alt    "P 1"
_space_group_IT_number       1

loop_
  _space_group_symop_operation_xyz
  'x, y, z'

loop_
  _atom_site_type_symbol
  _atom_site_label
  _atom_site_symmetry_multiplicity
  _atom_site_fract_x
  _atom_site_fract_y
  _atom_site_fract_z
  _atom_site_occupancy
  B   B1        1.0  0.00000  0.32700  0.16100  1.0000
  B   B2        1.0  0.00000  0.67300  0.16100  1.0000
  B   B3        1.0  0.50000  0.17300  0.33900  1.0000
  B   B4        1.0  0.50000  0.82700  0.33900  1.0000
  B   B5        1.0  0.17300  0.50000  0.66100  1.0000
  B   B6        1.0  0.82700  0.50000  0.66100  1.0000
  B   B7        1.0  0.32700  0.00000  0.83900  1.0000
  B   B8        1.0  0.67300  0.00000  0.83900  1.0000
  Ce  Ce1       1.0  0.50000  0.50000  0.00000  1.0000
  Ce  Ce2       1.0  0.00000  0.00000  0.50000  1.0000
  Co  Co1       1.0  0.24500  0.00000  0.13300  1.0000
  Co  Co2       1.0  0.75500  0.00000  0.13300  1.0000
  Co  Co3       1.0  0.25500  0.50000  0.36700  1.0000
  Co  Co4       1.0  0.74500  0.50000  0.36700  1.0000
  Co  Co5       1.0  0.50000  0.25500  0.63300  1.0000
  Co  Co6       1.0  0.50000  0.74500  0.63300  1.0000
  Co  Co7       1.0  0.00000  0.24500  0.86700  1.0000
  Co  Co8       1.0  0.00000  0.75500  0.86700  1.0000
