data_image0
_chemical_formula_structural       Co2Ir2La4O12
_chemical_formula_sum              "Co2 Ir2 La4 O12"
_cell_length_a       5.53146
_cell_length_b       5.71946
_cell_length_c       7.88637
_cell_angle_alpha    90
_cell_angle_beta     89.5613
_cell_angle_gamma    90

_space_group_name_H-M_alt    "P 1"
_space_group_IT_number       1

loop_
  _space_group_symop_operation_xyz
  'x, y, z'

loop_
  _atom_site_type_symbol
  _atom_site_label
  _atom_site_symmetry_multiplicity
  _atom_site_fract_x
  _atom_site_fract_y
  _atom_site_fract_z
  _atom_site_occupancy
  Co  Co1       1.0  0.00000  0.50000  0.00000  1.0000
  Co  Co2       1.0  0.50000  0.00000  0.50000  1.0000
  Ir  Ir1       1.0  0.50000  0.00000  0.00000  1.0000
  Ir  Ir2       1.0  0.00000  0.50000  0.50000  1.0000
  La  La1       1.0  0.98600  0.05450  0.24900  1.0000
  La  La2       1.0  0.51400  0.55400  0.25100  1.0000
  La  La3       1.0  0.48600  0.44600  0.74900  1.0000
  La  La4       1.0  0.01360  0.94600  0.75100  1.0000
  O   O1        1.0  0.69600  0.29500  0.04700  1.0000
  O   O2        1.0  0.79500  0.79800  0.04770  1.0000
  O   O3        1.0  0.41100  0.97600  0.24900  1.0000
  O   O4        1.0  0.08920  0.47600  0.25100  1.0000
  O   O5        1.0  0.70500  0.29800  0.45200  1.0000
  O   O6        1.0  0.80400  0.79500  0.45300  1.0000
  O   O7        1.0  0.19600  0.20500  0.54700  1.0000
  O   O8        1.0  0.29500  0.70200  0.54800  1.0000
  O   O9        1.0  0.91100  0.52400  0.74900  1.0000
  O   O10       1.0  0.58900  0.02410  0.75100  1.0000
  O   O11       1.0  0.20500  0.20200  0.95200  1.0000
  O   O12       1.0  0.30400  0.70500  0.95300  1.0000
