data_image0
_chemical_formula_structural       Br10Co2Cs6
_chemical_formula_sum              "Br10 Co2 Cs6"
_cell_length_a       9.7948
_cell_length_b       9.7948
_cell_length_c       10.3044
_cell_angle_alpha    118.377
_cell_angle_beta     118.377
_cell_angle_gamma    90

_space_group_name_H-M_alt    "P 1"
_space_group_IT_number       1

loop_
  _space_group_symop_operation_xyz
  'x, y, z'

loop_
  _atom_site_type_symbol
  _atom_site_label
  _atom_site_symmetry_multiplicity
  _atom_site_fract_x
  _atom_site_fract_y
  _atom_site_fract_z
  _atom_site_occupancy
  Br  Br1       1.0  0.00000  0.00000  0.00000  1.0000
  Br  Br2       1.0  0.50000  0.50000  0.00000  1.0000
  Br  Br3       1.0  0.01780  0.51800  0.31500  1.0000
  Br  Br4       1.0  0.79700  0.01780  0.31500  1.0000
  Br  Br5       1.0  0.51800  0.29700  0.31500  1.0000
  Br  Br6       1.0  0.29700  0.79700  0.31500  1.0000
  Br  Br7       1.0  0.70300  0.20300  0.68500  1.0000
  Br  Br8       1.0  0.48200  0.70300  0.68500  1.0000
  Br  Br9       1.0  0.20300  0.98200  0.68500  1.0000
  Br  Br10      1.0  0.98200  0.48200  0.68500  1.0000
  Co  Co1       1.0  0.75000  0.25000  0.50000  1.0000
  Co  Co2       1.0  0.25000  0.75000  0.50000  1.0000
  Cs  Cs1       1.0  0.66300  0.16300  0.00000  1.0000
  Cs  Cs2       1.0  0.16300  0.33700  0.00000  1.0000
  Cs  Cs3       1.0  0.83700  0.66300  0.00000  1.0000
  Cs  Cs4       1.0  0.33700  0.83700  0.00000  1.0000
  Cs  Cs5       1.0  0.25000  0.25000  0.50000  1.0000
  Cs  Cs6       1.0  0.75000  0.75000  0.50000  1.0000
