data_image0
_chemical_formula_structural       Co6Lu4Si10
_chemical_formula_sum              "Co6 Lu4 Si10"
_cell_length_a       5.416
_cell_length_b       7.7556
_cell_length_c       7.7556
_cell_angle_alpha    93.7123
_cell_angle_beta     108.975
_cell_angle_gamma    108.975

_space_group_name_H-M_alt    "P 1"
_space_group_IT_number       1

loop_
  _space_group_symop_operation_xyz
  'x, y, z'

loop_
  _atom_site_type_symbol
  _atom_site_label
  _atom_site_symmetry_multiplicity
  _atom_site_fract_x
  _atom_site_fract_y
  _atom_site_fract_z
  _atom_site_occupancy
  Co  Co1       1.0  0.25000  0.99700  0.00292  1.0000
  Co  Co2       1.0  0.37400  0.54100  0.26200  1.0000
  Co  Co3       1.0  0.12600  0.73800  0.45900  1.0000
  Co  Co4       1.0  0.87400  0.26200  0.54100  1.0000
  Co  Co5       1.0  0.62600  0.45900  0.73800  1.0000
  Co  Co6       1.0  0.75000  0.00292  0.99700  1.0000
  Lu  Lu1       1.0  0.76500  0.40600  0.13000  1.0000
  Lu  Lu2       1.0  0.26500  0.13000  0.40600  1.0000
  Lu  Lu3       1.0  0.73500  0.87000  0.59400  1.0000
  Lu  Lu4       1.0  0.23500  0.59400  0.87000  1.0000
  Si  Si1       1.0  0.16800  0.26400  0.06850  1.0000
  Si  Si2       1.0  0.25000  0.78800  0.21200  1.0000
  Si  Si3       1.0  0.75000  0.77400  0.22600  1.0000
  Si  Si4       1.0  0.66800  0.06850  0.26400  1.0000
  Si  Si5       1.0  0.75000  0.51200  0.48800  1.0000
  Si  Si6       1.0  0.25000  0.48800  0.51200  1.0000
  Si  Si7       1.0  0.33200  0.93100  0.73600  1.0000
  Si  Si8       1.0  0.25000  0.22600  0.77400  1.0000
  Si  Si9       1.0  0.75000  0.21200  0.78800  1.0000
  Si  Si10      1.0  0.83200  0.73600  0.93100  1.0000
