data_image0
_chemical_formula_structural       Co17Nd2
_chemical_formula_sum              "Co17 Nd2"
_cell_length_a       6.28581
_cell_length_b       6.28581
_cell_length_c       6.28581
_cell_angle_alpha    83.2468
_cell_angle_beta     96.7532
_cell_angle_gamma    96.7532

_space_group_name_H-M_alt    "P 1"
_space_group_IT_number       1

loop_
  _space_group_symop_operation_xyz
  'x, y, z'

loop_
  _atom_site_type_symbol
  _atom_site_label
  _atom_site_symmetry_multiplicity
  _atom_site_fract_x
  _atom_site_fract_y
  _atom_site_fract_z
  _atom_site_occupancy
  Co  Co1       1.0  0.50000  0.00000  0.00000  1.0000
  Co  Co2       1.0  0.28500  0.28500  0.00000  1.0000
  Co  Co3       1.0  0.00000  0.50000  0.00000  1.0000
  Co  Co4       1.0  0.71500  0.71500  0.00000  1.0000
  Co  Co5       1.0  0.90400  0.09580  0.09580  1.0000
  Co  Co6       1.0  0.34400  0.65600  0.14700  1.0000
  Co  Co7       1.0  0.28500  1.00000  0.28500  1.0000
  Co  Co8       1.0  0.00000  0.71500  0.28500  1.0000
  Co  Co9       1.0  0.65600  0.85300  0.34400  1.0000
  Co  Co10      1.0  0.14700  0.34400  0.34400  1.0000
  Co  Co11      1.0  0.00000  0.00000  0.50000  1.0000
  Co  Co12      1.0  0.34400  0.14700  0.65600  1.0000
  Co  Co13      1.0  0.85300  0.65600  0.65600  1.0000
  Co  Co14      1.0  0.00000  0.28500  0.71500  1.0000
  Co  Co15      1.0  0.71500  0.00000  0.71500  1.0000
  Co  Co16      1.0  0.65600  0.34400  0.85300  1.0000
  Co  Co17      1.0  0.09580  0.90400  0.90400  1.0000
  Nd  Nd1       1.0  0.65400  0.34600  0.34600  1.0000
  Nd  Nd2       1.0  0.34600  0.65400  0.65400  1.0000
