data_image0
_chemical_formula_structural       Co6Si10Tb4
_chemical_formula_sum              "Co6 Si10 Tb4"
_cell_length_a       5.50429
_cell_length_b       7.84974
_cell_length_c       7.84974
_cell_angle_alpha    93.3926
_cell_angle_beta     109.262
_cell_angle_gamma    109.262

_space_group_name_H-M_alt    "P 1"
_space_group_IT_number       1

loop_
  _space_group_symop_operation_xyz
  'x, y, z'

loop_
  _atom_site_type_symbol
  _atom_site_label
  _atom_site_symmetry_multiplicity
  _atom_site_fract_x
  _atom_site_fract_y
  _atom_site_fract_z
  _atom_site_occupancy
  Co  Co1       1.0  0.25000  0.99700  0.00319  1.0000
  Co  Co2       1.0  0.37400  0.53800  0.26300  1.0000
  Co  Co3       1.0  0.12600  0.73700  0.46200  1.0000
  Co  Co4       1.0  0.87400  0.26300  0.53800  1.0000
  Co  Co5       1.0  0.62600  0.46200  0.73700  1.0000
  Co  Co6       1.0  0.75000  0.00319  0.99700  1.0000
  Si  Si1       1.0  0.16400  0.26200  0.06230  1.0000
  Si  Si2       1.0  0.25000  0.78500  0.21500  1.0000
  Si  Si3       1.0  0.75000  0.77000  0.23000  1.0000
  Si  Si4       1.0  0.66400  0.06230  0.26200  1.0000
  Si  Si5       1.0  0.75000  0.51100  0.48900  1.0000
  Si  Si6       1.0  0.25000  0.48900  0.51100  1.0000
  Si  Si7       1.0  0.33600  0.93800  0.73800  1.0000
  Si  Si8       1.0  0.25000  0.23000  0.77000  1.0000
  Si  Si9       1.0  0.75000  0.21500  0.78500  1.0000
  Si  Si10      1.0  0.83600  0.73800  0.93800  1.0000
  Tb  Tb1       1.0  0.76300  0.40100  0.13000  1.0000
  Tb  Tb2       1.0  0.26300  0.13000  0.40100  1.0000
  Tb  Tb3       1.0  0.73700  0.87000  0.59900  1.0000
  Tb  Tb4       1.0  0.23700  0.59900  0.87000  1.0000
