data_image0
_chemical_formula_structural       Co2O12Sr4U2
_chemical_formula_sum              "Co2 O12 Sr4 U2"
_cell_length_a       5.78621
_cell_length_b       5.82236
_cell_length_c       8.18741
_cell_angle_alpha    90
_cell_angle_beta     90.1995
_cell_angle_gamma    90

_space_group_name_H-M_alt    "P 1"
_space_group_IT_number       1

loop_
  _space_group_symop_operation_xyz
  'x, y, z'

loop_
  _atom_site_type_symbol
  _atom_site_label
  _atom_site_symmetry_multiplicity
  _atom_site_fract_x
  _atom_site_fract_y
  _atom_site_fract_z
  _atom_site_occupancy
  Co  Co1       1.0  0.50000  0.00000  0.00000  1.0000
  Co  Co2       1.0  0.00000  0.50000  0.50000  1.0000
  O   O1        1.0  0.71200  0.28800  0.03990  1.0000
  O   O2        1.0  0.78900  0.78800  0.04110  1.0000
  O   O3        1.0  0.42200  0.98100  0.25000  1.0000
  O   O4        1.0  0.07800  0.48100  0.25000  1.0000
  O   O5        1.0  0.71100  0.28800  0.45900  1.0000
  O   O6        1.0  0.78800  0.78800  0.46000  1.0000
  O   O7        1.0  0.21200  0.21200  0.54000  1.0000
  O   O8        1.0  0.28900  0.71200  0.54100  1.0000
  O   O9        1.0  0.92200  0.51900  0.75000  1.0000
  O   O10       1.0  0.57800  0.01940  0.75000  1.0000
  O   O11       1.0  0.21100  0.21200  0.95900  1.0000
  O   O12       1.0  0.28800  0.71200  0.96000  1.0000
  Sr  Sr1       1.0  0.50700  0.53300  0.24900  1.0000
  Sr  Sr2       1.0  0.99300  0.03340  0.25100  1.0000
  Sr  Sr3       1.0  0.00748  0.96700  0.74900  1.0000
  Sr  Sr4       1.0  0.49300  0.46700  0.75100  1.0000
  U   U1        1.0  0.00000  0.50000  0.00000  1.0000
  U   U2        1.0  0.50000  0.00000  0.50000  1.0000
