data_image0
_chemical_formula_structural       GeI3
_chemical_formula_sum              "Ge1 I3"
_cell_length_a       6.30667
_cell_length_b       6.30667
_cell_length_c       6.30667
_cell_angle_alpha    133.561
_cell_angle_beta     133.561
_cell_angle_gamma    67.775

_space_group_name_H-M_alt    "P 1"
_space_group_IT_number       1

loop_
  _space_group_symop_operation_xyz
  'x, y, z'

loop_
  _atom_site_type_symbol
  _atom_site_label
  _atom_site_symmetry_multiplicity
  _atom_site_fract_x
  _atom_site_fract_y
  _atom_site_fract_z
  _atom_site_occupancy
  Ge  Ge1       1.0  0.00000  0.00000  0.00000  1.0000
  I   I1        1.0  0.75000  0.25000  0.50000  1.0000
  I   I2        1.0  0.25000  0.75000  0.50000  1.0000
  I   I3        1.0  0.50000  0.50000  0.00000  1.0000
