data_image0
_chemical_formula_structural       Co17Sm2
_chemical_formula_sum              "Co17 Sm2"
_cell_length_a       6.26385
_cell_length_b       6.26385
_cell_length_c       6.26385
_cell_angle_alpha    96.9564
_cell_angle_beta     83.0436
_cell_angle_gamma    96.9564

_space_group_name_H-M_alt    "P 1"
_space_group_IT_number       1

loop_
  _space_group_symop_operation_xyz
  'x, y, z'

loop_
  _atom_site_type_symbol
  _atom_site_label
  _atom_site_symmetry_multiplicity
  _atom_site_fract_x
  _atom_site_fract_y
  _atom_site_fract_z
  _atom_site_occupancy
  Co  Co1       1.0  0.50000  0.00000  0.00000  1.0000
  Co  Co2       1.0  0.71300  0.71300  0.00000  1.0000
  Co  Co3       1.0  0.28700  0.28700  0.00000  1.0000
  Co  Co4       1.0  0.00000  0.50000  0.00000  1.0000
  Co  Co5       1.0  0.09640  0.90400  0.09640  1.0000
  Co  Co6       1.0  0.65500  0.34500  0.14900  1.0000
  Co  Co7       1.0  0.00000  0.28700  0.28700  1.0000
  Co  Co8       1.0  0.71300  0.00000  0.28700  1.0000
  Co  Co9       1.0  0.85100  0.65500  0.34500  1.0000
  Co  Co10      1.0  0.34500  0.14900  0.34500  1.0000
  Co  Co11      1.0  0.00000  0.00000  0.50000  1.0000
  Co  Co12      1.0  0.14900  0.34500  0.65500  1.0000
  Co  Co13      1.0  0.65500  0.85100  0.65500  1.0000
  Co  Co14      1.0  0.28700  0.00000  0.71300  1.0000
  Co  Co15      1.0  0.00000  0.71300  0.71300  1.0000
  Co  Co16      1.0  0.34500  0.65500  0.85100  1.0000
  Co  Co17      1.0  0.90400  0.09640  0.90400  1.0000
  Sm  Sm1       1.0  0.34500  0.65500  0.34500  1.0000
  Sm  Sm2       1.0  0.65500  0.34500  0.65500  1.0000
