data_image0
_chemical_formula_structural       Co2PdSe12Ta4
_chemical_formula_sum              "Co2 Pd1 Se12 Ta4"
_cell_length_a       3.43057
_cell_length_b       7.03922
_cell_length_c       18.3484
_cell_angle_alpha    90.3119
_cell_angle_beta     95.3641
_cell_angle_gamma    75.8964

_space_group_name_H-M_alt    "P 1"
_space_group_IT_number       1

loop_
  _space_group_symop_operation_xyz
  'x, y, z'

loop_
  _atom_site_type_symbol
  _atom_site_label
  _atom_site_symmetry_multiplicity
  _atom_site_fract_x
  _atom_site_fract_y
  _atom_site_fract_z
  _atom_site_occupancy
  Co  Co1       1.0  0.05360  0.17700  0.28400  1.0000
  Co  Co2       1.0  0.94600  0.82300  0.71600  1.0000
  Pd  Pd1       1.0  0.00000  0.00000  0.00000  1.0000
  Se  Se1       1.0  0.88500  0.30300  0.07360  1.0000
  Se  Se2       1.0  0.14800  0.82300  0.11900  1.0000
  Se  Se3       1.0  0.42500  0.38600  0.23600  1.0000
  Se  Se4       1.0  0.67700  0.92700  0.28100  1.0000
  Se  Se5       1.0  0.01550  0.36300  0.39400  1.0000
  Se  Se6       1.0  0.31600  0.81800  0.45000  1.0000
  Se  Se7       1.0  0.68400  0.18200  0.55000  1.0000
  Se  Se8       1.0  0.98500  0.63700  0.60600  1.0000
  Se  Se9       1.0  0.32300  0.07350  0.71900  1.0000
  Se  Se10      1.0  0.57500  0.61400  0.76400  1.0000
  Se  Se11      1.0  0.85200  0.17700  0.88100  1.0000
  Se  Se12      1.0  0.11500  0.69700  0.92600  1.0000
  Ta  Ta1       1.0  0.52600  0.09800  0.15100  1.0000
  Ta  Ta2       1.0  0.66000  0.08680  0.40600  1.0000
  Ta  Ta3       1.0  0.34000  0.91300  0.59400  1.0000
  Ta  Ta4       1.0  0.47400  0.90200  0.84900  1.0000
