data_image0
_chemical_formula_structural       Co12Mn5Y2
_chemical_formula_sum              "Co12 Mn5 Y2"
_cell_length_a       6.21927
_cell_length_b       6.21927
_cell_length_c       6.21927
_cell_angle_alpha    82.7663
_cell_angle_beta     97.2337
_cell_angle_gamma    97.2337

_space_group_name_H-M_alt    "P 1"
_space_group_IT_number       1

loop_
  _space_group_symop_operation_xyz
  'x, y, z'

loop_
  _atom_site_type_symbol
  _atom_site_label
  _atom_site_symmetry_multiplicity
  _atom_site_fract_x
  _atom_site_fract_y
  _atom_site_fract_z
  _atom_site_occupancy
  Co  Co1       1.0  0.29200  0.29200  0.00000  1.0000
  Co  Co2       1.0  0.70800  0.70800  0.00000  1.0000
  Co  Co3       1.0  0.34300  0.65700  0.14400  1.0000
  Co  Co4       1.0  0.00000  0.70800  0.29200  1.0000
  Co  Co5       1.0  0.29200  0.00000  0.29200  1.0000
  Co  Co6       1.0  0.14400  0.34300  0.34300  1.0000
  Co  Co7       1.0  0.65700  0.85600  0.34300  1.0000
  Co  Co8       1.0  0.85600  0.65700  0.65700  1.0000
  Co  Co9       1.0  0.34300  0.14400  0.65700  1.0000
  Co  Co10      1.0  0.00000  0.29200  0.70800  1.0000
  Co  Co11      1.0  0.70800  0.00000  0.70800  1.0000
  Co  Co12      1.0  0.65700  0.34300  0.85600  1.0000
  Mn  Mn1       1.0  0.50000  0.00000  0.00000  1.0000
  Mn  Mn2       1.0  0.00000  0.50000  0.00000  1.0000
  Mn  Mn3       1.0  0.91200  0.08820  0.08820  1.0000
  Mn  Mn4       1.0  0.00000  0.00000  0.50000  1.0000
  Mn  Mn5       1.0  0.08820  0.91200  0.91200  1.0000
  Y   Y1        1.0  0.65300  0.34700  0.34700  1.0000
  Y   Y2        1.0  0.34700  0.65300  0.65300  1.0000
