data_image0
_chemical_formula_structural       Co14Y4
_chemical_formula_sum              "Co14 Y4"
_cell_length_a       4.94309
_cell_length_b       4.94309
_cell_length_c       12.3178
_cell_angle_alpha    78.4252
_cell_angle_beta     101.575
_cell_angle_gamma    120

_space_group_name_H-M_alt    "P 1"
_space_group_IT_number       1

loop_
  _space_group_symop_operation_xyz
  'x, y, z'

loop_
  _atom_site_type_symbol
  _atom_site_label
  _atom_site_symmetry_multiplicity
  _atom_site_fract_x
  _atom_site_fract_y
  _atom_site_fract_z
  _atom_site_occupancy
  Co  Co1       1.0  0.50000  0.00000  0.00000  1.0000
  Co  Co2       1.0  0.00000  0.50000  0.00000  1.0000
  Co  Co3       1.0  0.50000  0.50000  0.00000  1.0000
  Co  Co4       1.0  0.72100  0.27900  0.16400  1.0000
  Co  Co5       1.0  0.38900  0.61100  0.16600  1.0000
  Co  Co6       1.0  0.11000  0.39100  0.32800  1.0000
  Co  Co7       1.0  0.60900  0.39100  0.32800  1.0000
  Co  Co8       1.0  0.60900  0.89000  0.32800  1.0000
  Co  Co9       1.0  0.50000  0.50000  0.50000  1.0000
  Co  Co10      1.0  0.39100  0.11000  0.67200  1.0000
  Co  Co11      1.0  0.39100  0.60900  0.67200  1.0000
  Co  Co12      1.0  0.89000  0.60900  0.67200  1.0000
  Co  Co13      1.0  0.61100  0.38900  0.83400  1.0000
  Co  Co14      1.0  0.27900  0.72100  0.83600  1.0000
  Y   Y1        1.0  0.05140  0.94900  0.15400  1.0000
  Y   Y2        1.0  0.14800  0.85200  0.44500  1.0000
  Y   Y3        1.0  0.85200  0.14800  0.55500  1.0000
  Y   Y4        1.0  0.94900  0.05140  0.84600  1.0000
