data_image0
_chemical_formula_structural       Be3F6
_chemical_formula_sum              "Be3 F6"
_cell_length_a       4.37963
_cell_length_b       4.37963
_cell_length_c       4.95116
_cell_angle_alpha    90
_cell_angle_beta     90
_cell_angle_gamma    120

_space_group_name_H-M_alt    "P 1"
_space_group_IT_number       1

loop_
  _space_group_symop_operation_xyz
  'x, y, z'

loop_
  _atom_site_type_symbol
  _atom_site_label
  _atom_site_symmetry_multiplicity
  _atom_site_fract_x
  _atom_site_fract_y
  _atom_site_fract_z
  _atom_site_occupancy
  Be  Be1       1.0  0.55800  0.55800  0.00002  1.0000
  Be  Be2       1.0  0.44200  0.00000  0.33300  1.0000
  Be  Be3       1.0  0.00000  0.44200  0.66700  1.0000
  F   F1        1.0  0.60800  0.91500  0.09040  1.0000
  F   F2        1.0  0.39200  0.30700  0.24300  1.0000
  F   F3        1.0  0.08460  0.69300  0.42400  1.0000
  F   F4        1.0  0.69300  0.08460  0.57600  1.0000
  F   F5        1.0  0.30700  0.39200  0.75700  1.0000
  F   F6        1.0  0.91500  0.60800  0.91000  1.0000
