data_image0
_chemical_formula_structural       Al3Co14Pr2
_chemical_formula_sum              "Al3 Co14 Pr2"
_cell_length_a       6.38096
_cell_length_b       6.38096
_cell_length_c       6.38096
_cell_angle_alpha    97.2637
_cell_angle_beta     82.7363
_cell_angle_gamma    97.2637

_space_group_name_H-M_alt    "P 1"
_space_group_IT_number       1

loop_
  _space_group_symop_operation_xyz
  'x, y, z'

loop_
  _atom_site_type_symbol
  _atom_site_label
  _atom_site_symmetry_multiplicity
  _atom_site_fract_x
  _atom_site_fract_y
  _atom_site_fract_z
  _atom_site_occupancy
  Al  Al1       1.0  0.50000  0.00000  0.00000  1.0000
  Al  Al2       1.0  0.00000  0.50000  0.00000  1.0000
  Al  Al3       1.0  0.00000  0.00000  0.50000  1.0000
  Co  Co1       1.0  0.28700  0.28700  0.00000  1.0000
  Co  Co2       1.0  0.71300  0.71300  1.00000  1.0000
  Co  Co3       1.0  0.09230  0.90800  0.09230  1.0000
  Co  Co4       1.0  0.65500  0.34500  0.15900  1.0000
  Co  Co5       1.0  0.00000  0.28700  0.28700  1.0000
  Co  Co6       1.0  0.71300  0.00000  0.28700  1.0000
  Co  Co7       1.0  0.84100  0.65500  0.34500  1.0000
  Co  Co8       1.0  0.34500  0.15900  0.34500  1.0000
  Co  Co9       1.0  0.15900  0.34500  0.65500  1.0000
  Co  Co10      1.0  0.65500  0.84100  0.65500  1.0000
  Co  Co11      1.0  0.00000  0.71300  0.71300  1.0000
  Co  Co12      1.0  0.28700  0.00000  0.71300  1.0000
  Co  Co13      1.0  0.34500  0.65500  0.84100  1.0000
  Co  Co14      1.0  0.90800  0.09230  0.90800  1.0000
  Pr  Pr1       1.0  0.34500  0.65500  0.34500  1.0000
  Pr  Pr2       1.0  0.65500  0.34500  0.65500  1.0000
