data_image0
_chemical_formula_structural       Ba4CoO12Re2
_chemical_formula_sum              "Ba4 Co1 O12 Re2"
_cell_length_a       5.70659
_cell_length_b       5.70659
_cell_length_c       9.78015
_cell_angle_alpha    73.0377
_cell_angle_beta     106.962
_cell_angle_gamma    120

_space_group_name_H-M_alt    "P 1"
_space_group_IT_number       1

loop_
  _space_group_symop_operation_xyz
  'x, y, z'

loop_
  _atom_site_type_symbol
  _atom_site_label
  _atom_site_symmetry_multiplicity
  _atom_site_fract_x
  _atom_site_fract_y
  _atom_site_fract_z
  _atom_site_occupancy
  Ba  Ba1       1.0  0.70900  0.29100  0.12600  1.0000
  Ba  Ba2       1.0  0.13100  0.86900  0.39300  1.0000
  Ba  Ba3       1.0  0.86900  0.13100  0.60700  1.0000
  Ba  Ba4       1.0  0.29100  0.70900  0.87400  1.0000
  Co  Co1       1.0  0.00000  0.00000  0.00000  1.0000
  O   O1        1.0  0.21700  0.30500  0.12900  1.0000
  O   O2        1.0  0.69500  0.78300  0.12900  1.0000
  O   O3        1.0  0.21700  0.78300  0.12900  1.0000
  O   O4        1.0  0.13800  0.38700  0.36500  1.0000
  O   O5        1.0  0.61300  0.38700  0.36500  1.0000
  O   O6        1.0  0.61300  0.86200  0.36500  1.0000
  O   O7        1.0  0.38700  0.13800  0.63500  1.0000
  O   O8        1.0  0.86200  0.61300  0.63500  1.0000
  O   O9        1.0  0.38700  0.61300  0.63500  1.0000
  O   O10       1.0  0.30500  0.21700  0.87100  1.0000
  O   O11       1.0  0.78300  0.21700  0.87100  1.0000
  O   O12       1.0  0.78300  0.69500  0.87100  1.0000
  Re  Re1       1.0  0.41900  0.58100  0.25700  1.0000
  Re  Re2       1.0  0.58100  0.41900  0.74300  1.0000
