data_image0
_chemical_formula_structural       Co4Er12Ga2
_chemical_formula_sum              "Co4 Er12 Ga2"
_cell_length_a       8.18393
_cell_length_b       8.18393
_cell_length_c       8.18393
_cell_angle_alpha    110.061
_cell_angle_beta     106.759
_cell_angle_gamma    111.632

_space_group_name_H-M_alt    "P 1"
_space_group_IT_number       1

loop_
  _space_group_symop_operation_xyz
  'x, y, z'

loop_
  _atom_site_type_symbol
  _atom_site_label
  _atom_site_symmetry_multiplicity
  _atom_site_fract_x
  _atom_site_fract_y
  _atom_site_fract_z
  _atom_site_occupancy
  Co  Co1       1.0  0.11400  0.00000  0.11400  1.0000
  Co  Co2       1.0  0.50000  0.86600  0.36600  1.0000
  Co  Co3       1.0  0.50000  0.13400  0.63400  1.0000
  Co  Co4       1.0  0.88600  0.00000  0.88600  1.0000
  Er  Er1       1.0  0.73400  0.29900  0.03250  1.0000
  Er  Er2       1.0  0.21700  0.40100  0.18400  1.0000
  Er  Er3       1.0  0.78300  0.96700  0.18400  1.0000
  Er  Er4       1.0  0.12500  0.80500  0.32000  1.0000
  Er  Er5       1.0  0.51500  0.19500  0.32000  1.0000
  Er  Er6       1.0  0.73400  0.70100  0.43500  1.0000
  Er  Er7       1.0  0.26600  0.29900  0.56500  1.0000
  Er  Er8       1.0  0.87500  0.19500  0.68000  1.0000
  Er  Er9       1.0  0.48500  0.80500  0.68000  1.0000
  Er  Er10      1.0  0.21700  0.03300  0.81600  1.0000
  Er  Er11      1.0  0.78300  0.59900  0.81600  1.0000
  Er  Er12      1.0  0.26600  0.70100  0.96700  1.0000
  Ga  Ga1       1.0  0.50000  0.50000  0.00000  1.0000
  Ga  Ga2       1.0  0.00000  0.50000  0.50000  1.0000
