data_image0
_chemical_formula_structural       Co6Cs4S8
_chemical_formula_sum              "Co6 Cs4 S8"
_cell_length_a       5.38836
_cell_length_b       9.09408
_cell_length_c       9.09408
_cell_angle_alpha    96.4051
_cell_angle_beta     107.233
_cell_angle_gamma    107.233

_space_group_name_H-M_alt    "P 1"
_space_group_IT_number       1

loop_
  _space_group_symop_operation_xyz
  'x, y, z'

loop_
  _atom_site_type_symbol
  _atom_site_label
  _atom_site_symmetry_multiplicity
  _atom_site_fract_x
  _atom_site_fract_y
  _atom_site_fract_z
  _atom_site_occupancy
  Co  Co1       1.0  0.25300  0.50300  0.00340  1.0000
  Co  Co2       1.0  0.50000  0.75000  0.25000  1.0000
  Co  Co3       1.0  0.74700  0.99700  0.49700  1.0000
  Co  Co4       1.0  0.25300  0.00340  0.50300  1.0000
  Co  Co5       1.0  0.50000  0.25000  0.75000  1.0000
  Co  Co6       1.0  0.74700  0.49700  0.99700  1.0000
  Cs  Cs1       1.0  0.87900  0.12400  0.12400  1.0000
  Cs  Cs2       1.0  0.63000  0.37600  0.37600  1.0000
  Cs  Cs3       1.0  0.37000  0.62400  0.62400  1.0000
  Cs  Cs4       1.0  0.12100  0.87600  0.87600  1.0000
  S   S1        1.0  0.62500  0.70500  0.04520  1.0000
  S   S2        1.0  0.12400  0.54500  0.20500  1.0000
  S   S3        1.0  0.37500  0.95500  0.29500  1.0000
  S   S4        1.0  0.87600  0.79500  0.45500  1.0000
  S   S5        1.0  0.12400  0.20500  0.54500  1.0000
  S   S6        1.0  0.62500  0.04520  0.70500  1.0000
  S   S7        1.0  0.87600  0.45500  0.79500  1.0000
  S   S8        1.0  0.37500  0.29500  0.95500  1.0000
