data_image0
_chemical_formula_structural       Co2O12Sr4Te2
_chemical_formula_sum              "Co2 O12 Sr4 Te2"
_cell_length_a       5.66195
_cell_length_b       5.60533
_cell_length_c       7.92046
_cell_angle_alpha    90
_cell_angle_beta     89.8938
_cell_angle_gamma    90

_space_group_name_H-M_alt    "P 1"
_space_group_IT_number       1

loop_
  _space_group_symop_operation_xyz
  'x, y, z'

loop_
  _atom_site_type_symbol
  _atom_site_label
  _atom_site_symmetry_multiplicity
  _atom_site_fract_x
  _atom_site_fract_y
  _atom_site_fract_z
  _atom_site_occupancy
  Co  Co1       1.0  0.50000  0.00000  0.00000  1.0000
  Co  Co2       1.0  0.00000  0.50000  0.50000  1.0000
  O   O1        1.0  0.77400  0.75600  0.03260  1.0000
  O   O2        1.0  0.74600  0.27100  0.03270  1.0000
  O   O3        1.0  0.06140  0.49700  0.24100  1.0000
  O   O4        1.0  0.43900  0.99700  0.25900  1.0000
  O   O5        1.0  0.75400  0.77100  0.46700  1.0000
  O   O6        1.0  0.72600  0.25600  0.46700  1.0000
  O   O7        1.0  0.27400  0.74400  0.53300  1.0000
  O   O8        1.0  0.24600  0.22900  0.53300  1.0000
  O   O9        1.0  0.56100  0.00318  0.74100  1.0000
  O   O10       1.0  0.93900  0.50300  0.75900  1.0000
  O   O11       1.0  0.25400  0.72900  0.96700  1.0000
  O   O12       1.0  0.22600  0.24400  0.96700  1.0000
  Sr  Sr1       1.0  0.99700  0.00844  0.25000  1.0000
  Sr  Sr2       1.0  0.50300  0.50800  0.25000  1.0000
  Sr  Sr3       1.0  0.49700  0.49200  0.75000  1.0000
  Sr  Sr4       1.0  0.00297  0.99200  0.75000  1.0000
  Te  Te1       1.0  0.00000  0.50000  0.00000  1.0000
  Te  Te2       1.0  0.50000  0.00000  0.50000  1.0000
