data_image0
_chemical_formula_structural       Pt6Th14
_chemical_formula_sum              "Pt6 Th14"
_cell_length_a       10.1442
_cell_length_b       10.1441
_cell_length_c       6.37261
_cell_angle_alpha    90
_cell_angle_beta     90
_cell_angle_gamma    120

_space_group_name_H-M_alt    "P 1"
_space_group_IT_number       1

loop_
  _space_group_symop_operation_xyz
  'x, y, z'

loop_
  _atom_site_type_symbol
  _atom_site_label
  _atom_site_symmetry_multiplicity
  _atom_site_fract_x
  _atom_site_fract_y
  _atom_site_fract_z
  _atom_site_occupancy
  Pt  Pt1       1.0  0.81200  0.62300  0.05860  1.0000
  Pt  Pt2       1.0  0.37700  0.18800  0.05860  1.0000
  Pt  Pt3       1.0  0.81200  0.18800  0.05860  1.0000
  Pt  Pt4       1.0  0.18800  0.37700  0.55900  1.0000
  Pt  Pt5       1.0  0.18800  0.81200  0.55900  1.0000
  Pt  Pt6       1.0  0.62300  0.81200  0.55900  1.0000
  Th  Th1       1.0  0.45800  0.91500  0.28100  1.0000
  Th  Th2       1.0  0.08470  0.54200  0.28100  1.0000
  Th  Th3       1.0  0.45800  0.54200  0.28100  1.0000
  Th  Th4       1.0  0.66700  0.33300  0.33600  1.0000
  Th  Th5       1.0  0.25700  0.12900  0.49600  1.0000
  Th  Th6       1.0  0.87100  0.12900  0.49600  1.0000
  Th  Th7       1.0  0.87100  0.74300  0.49600  1.0000
  Th  Th8       1.0  0.54200  0.08470  0.78100  1.0000
  Th  Th9       1.0  0.54200  0.45800  0.78100  1.0000
  Th  Th10      1.0  0.91500  0.45800  0.78100  1.0000
  Th  Th11      1.0  0.33300  0.66700  0.83600  1.0000
  Th  Th12      1.0  0.12900  0.25700  0.99600  1.0000
  Th  Th13      1.0  0.12900  0.87100  0.99600  1.0000
  Th  Th14      1.0  0.74300  0.87100  0.99600  1.0000
