data_image0
_chemical_formula_structural       B4Co4O10
_chemical_formula_sum              "B4 Co4 O10"
_cell_length_a       3.14029
_cell_length_b       6.11537
_cell_length_c       9.15212
_cell_angle_alpha    103.93
_cell_angle_beta     90.215
_cell_angle_gamma    92.6318

_space_group_name_H-M_alt    "P 1"
_space_group_IT_number       1

loop_
  _space_group_symop_operation_xyz
  'x, y, z'

loop_
  _atom_site_type_symbol
  _atom_site_label
  _atom_site_symmetry_multiplicity
  _atom_site_fract_x
  _atom_site_fract_y
  _atom_site_fract_z
  _atom_site_occupancy
  B   B1        1.0  0.33100  0.88200  0.17000  1.0000
  B   B2        1.0  0.70000  0.68300  0.35600  1.0000
  B   B3        1.0  0.30000  0.31700  0.64400  1.0000
  B   B4        1.0  0.66900  0.11800  0.83000  1.0000
  Co  Co1       1.0  0.23600  0.37300  0.10000  1.0000
  Co  Co2       1.0  0.72500  0.21600  0.35700  1.0000
  Co  Co3       1.0  0.27500  0.78400  0.64300  1.0000
  Co  Co4       1.0  0.76400  0.62700  0.90000  1.0000
  O   O1        1.0  0.26300  0.69700  0.05410  1.0000
  O   O2        1.0  0.20700  0.09330  0.18000  1.0000
  O   O3        1.0  0.74400  0.47900  0.25600  1.0000
  O   O4        1.0  0.55200  0.86300  0.30200  1.0000
  O   O5        1.0  0.22200  0.28000  0.49600  1.0000
  O   O6        1.0  0.77800  0.72000  0.50400  1.0000
  O   O7        1.0  0.44800  0.13700  0.69800  1.0000
  O   O8        1.0  0.25600  0.52100  0.74400  1.0000
  O   O9        1.0  0.79300  0.90700  0.82000  1.0000
  O   O10       1.0  0.73700  0.30300  0.94600  1.0000
