data_image0
_chemical_formula_structural       Co17Pr2
_chemical_formula_sum              "Co17 Pr2"
_cell_length_a       6.29948
_cell_length_b       6.29948
_cell_length_c       6.29948
_cell_angle_alpha    83.1436
_cell_angle_beta     96.8564
_cell_angle_gamma    96.8564

_space_group_name_H-M_alt    "P 1"
_space_group_IT_number       1

loop_
  _space_group_symop_operation_xyz
  'x, y, z'

loop_
  _atom_site_type_symbol
  _atom_site_label
  _atom_site_symmetry_multiplicity
  _atom_site_fract_x
  _atom_site_fract_y
  _atom_site_fract_z
  _atom_site_occupancy
  Co  Co1       1.0  0.50000  0.00000  0.00000  1.0000
  Co  Co2       1.0  0.28400  0.28400  0.00000  1.0000
  Co  Co3       1.0  0.71600  0.71600  1.00000  1.0000
  Co  Co4       1.0  0.00000  0.50000  0.00000  1.0000
  Co  Co5       1.0  0.90400  0.09600  0.09600  1.0000
  Co  Co6       1.0  0.34300  0.65700  0.14800  1.0000
  Co  Co7       1.0  1.00000  0.71600  0.28400  1.0000
  Co  Co8       1.0  0.28400  0.00000  0.28400  1.0000
  Co  Co9       1.0  0.14800  0.34300  0.34300  1.0000
  Co  Co10      1.0  0.65700  0.85200  0.34300  1.0000
  Co  Co11      1.0  0.00000  0.00000  0.50000  1.0000
  Co  Co12      1.0  0.34300  0.14800  0.65700  1.0000
  Co  Co13      1.0  0.85200  0.65700  0.65700  1.0000
  Co  Co14      1.0  0.00000  0.28400  0.71600  1.0000
  Co  Co15      1.0  0.71600  0.00000  0.71600  1.0000
  Co  Co16      1.0  0.65700  0.34300  0.85200  1.0000
  Co  Co17      1.0  0.09600  0.90400  0.90400  1.0000
  Pr  Pr1       1.0  0.65500  0.34500  0.34500  1.0000
  Pr  Pr2       1.0  0.34500  0.65500  0.65500  1.0000
