data_image0
_chemical_formula_structural       Ce2Co5Fe12
_chemical_formula_sum              "Ce2 Co5 Fe12"
_cell_length_a       6.41941
_cell_length_b       6.41941
_cell_length_c       6.41941
_cell_angle_alpha    97.0296
_cell_angle_beta     82.9704
_cell_angle_gamma    97.0296

_space_group_name_H-M_alt    "P 1"
_space_group_IT_number       1

loop_
  _space_group_symop_operation_xyz
  'x, y, z'

loop_
  _atom_site_type_symbol
  _atom_site_label
  _atom_site_symmetry_multiplicity
  _atom_site_fract_x
  _atom_site_fract_y
  _atom_site_fract_z
  _atom_site_occupancy
  Ce  Ce1       1.0  0.34300  0.65700  0.34300  1.0000
  Ce  Ce2       1.0  0.65700  0.34300  0.65700  1.0000
  Co  Co1       1.0  0.50000  0.00000  0.00000  1.0000
  Co  Co2       1.0  0.00000  0.50000  0.00000  1.0000
  Co  Co3       1.0  0.09260  0.90700  0.09260  1.0000
  Co  Co4       1.0  0.00000  0.00000  0.50000  1.0000
  Co  Co5       1.0  0.90700  0.09260  0.90700  1.0000
  Fe  Fe1       1.0  0.71400  0.71400  0.00000  1.0000
  Fe  Fe2       1.0  0.28600  0.28600  0.00000  1.0000
  Fe  Fe3       1.0  0.66200  0.33800  0.15100  1.0000
  Fe  Fe4       1.0  0.71400  0.00000  0.28600  1.0000
  Fe  Fe5       1.0  0.00000  0.28600  0.28600  1.0000
  Fe  Fe6       1.0  0.33800  0.15100  0.33800  1.0000
  Fe  Fe7       1.0  0.84900  0.66200  0.33800  1.0000
  Fe  Fe8       1.0  0.15100  0.33800  0.66200  1.0000
  Fe  Fe9       1.0  0.66200  0.84900  0.66200  1.0000
  Fe  Fe10      1.0  0.28600  1.00000  0.71400  1.0000
  Fe  Fe11      1.0  0.00000  0.71400  0.71400  1.0000
  Fe  Fe12      1.0  0.33800  0.66200  0.84900  1.0000
