data_image0
_chemical_formula_structural       Co9Ga6Pr3
_chemical_formula_sum              "Co9 Ga6 Pr3"
_cell_length_a       9.1243
_cell_length_b       9.1243
_cell_length_c       3.84951
_cell_angle_alpha    90
_cell_angle_beta     90
_cell_angle_gamma    119.998

_space_group_name_H-M_alt    "P 1"
_space_group_IT_number       1

loop_
  _space_group_symop_operation_xyz
  'x, y, z'

loop_
  _atom_site_type_symbol
  _atom_site_label
  _atom_site_symmetry_multiplicity
  _atom_site_fract_x
  _atom_site_fract_y
  _atom_site_fract_z
  _atom_site_occupancy
  Co  Co1       1.0  0.50000  0.00000  0.00000  1.0000
  Co  Co2       1.0  0.81800  0.18200  0.00000  1.0000
  Co  Co3       1.0  0.36400  0.18200  0.00000  1.0000
  Co  Co4       1.0  0.18200  0.36400  0.00000  1.0000
  Co  Co5       1.0  0.00000  0.50000  0.00000  1.0000
  Co  Co6       1.0  0.50000  0.50000  0.00000  1.0000
  Co  Co7       1.0  0.81800  0.63600  0.00000  1.0000
  Co  Co8       1.0  0.18200  0.81800  0.00000  1.0000
  Co  Co9       1.0  0.63600  0.81800  0.00000  1.0000
  Ga  Ga1       1.0  0.68300  0.00000  0.50000  1.0000
  Ga  Ga2       1.0  0.31700  0.00000  0.50000  1.0000
  Ga  Ga3       1.0  0.00000  0.31700  0.50000  1.0000
  Ga  Ga4       1.0  0.31700  0.31700  0.50000  1.0000
  Ga  Ga5       1.0  0.00000  0.68300  0.50000  1.0000
  Ga  Ga6       1.0  0.68300  0.68300  0.50000  1.0000
  Pr  Pr1       1.0  0.00000  1.00000  0.00000  1.0000
  Pr  Pr2       1.0  0.66700  0.33300  0.50000  1.0000
  Pr  Pr3       1.0  0.33300  0.66700  0.50000  1.0000
