data_image0
_chemical_formula_structural       Co15Ga2Nd2
_chemical_formula_sum              "Co15 Ga2 Nd2"
_cell_length_a       6.36165
_cell_length_b       6.36165
_cell_length_c       6.36165
_cell_angle_alpha    83.0418
_cell_angle_beta     96.9582
_cell_angle_gamma    96.9582

_space_group_name_H-M_alt    "P 1"
_space_group_IT_number       1

loop_
  _space_group_symop_operation_xyz
  'x, y, z'

loop_
  _atom_site_type_symbol
  _atom_site_label
  _atom_site_symmetry_multiplicity
  _atom_site_fract_x
  _atom_site_fract_y
  _atom_site_fract_z
  _atom_site_occupancy
  Co  Co1       1.0  0.71400  0.71400  0.00000  1.0000
  Co  Co2       1.0  0.00000  0.50000  0.00000  1.0000
  Co  Co3       1.0  0.28600  0.28600  0.00000  1.0000
  Co  Co4       1.0  0.50000  0.00000  0.00000  1.0000
  Co  Co5       1.0  0.34800  0.65200  0.14900  1.0000
  Co  Co6       1.0  0.00000  0.71400  0.28600  1.0000
  Co  Co7       1.0  0.28600  0.00000  0.28600  1.0000
  Co  Co8       1.0  0.65200  0.85100  0.34800  1.0000
  Co  Co9       1.0  0.14900  0.34800  0.34800  1.0000
  Co  Co10      1.0  0.00000  0.00000  0.50000  1.0000
  Co  Co11      1.0  0.34800  0.14900  0.65200  1.0000
  Co  Co12      1.0  0.85100  0.65200  0.65200  1.0000
  Co  Co13      1.0  1.00000  0.28600  0.71400  1.0000
  Co  Co14      1.0  0.71400  0.00000  0.71400  1.0000
  Co  Co15      1.0  0.65200  0.34800  0.85100  1.0000
  Ga  Ga1       1.0  0.89400  0.10600  0.10600  1.0000
  Ga  Ga2       1.0  0.10600  0.89400  0.89400  1.0000
  Nd  Nd1       1.0  0.64900  0.35100  0.35100  1.0000
  Nd  Nd2       1.0  0.35100  0.64900  0.64900  1.0000
