data_image0
_chemical_formula_structural       Ce2Co15Ga2
_chemical_formula_sum              "Ce2 Co15 Ga2"
_cell_length_a       6.384
_cell_length_b       6.384
_cell_length_c       6.384
_cell_angle_alpha    83.1577
_cell_angle_beta     96.8423
_cell_angle_gamma    96.8423

_space_group_name_H-M_alt    "P 1"
_space_group_IT_number       1

loop_
  _space_group_symop_operation_xyz
  'x, y, z'

loop_
  _atom_site_type_symbol
  _atom_site_label
  _atom_site_symmetry_multiplicity
  _atom_site_fract_x
  _atom_site_fract_y
  _atom_site_fract_z
  _atom_site_occupancy
  Ce  Ce1       1.0  0.64800  0.35200  0.35200  1.0000
  Ce  Ce2       1.0  0.35200  0.64800  0.64800  1.0000
  Co  Co1       1.0  0.50000  0.00000  0.00000  1.0000
  Co  Co2       1.0  0.28400  0.28400  0.00000  1.0000
  Co  Co3       1.0  0.00000  0.50000  0.00000  1.0000
  Co  Co4       1.0  0.71600  0.71600  0.00000  1.0000
  Co  Co5       1.0  0.34600  0.65400  0.14800  1.0000
  Co  Co6       1.0  0.28400  0.00000  0.28400  1.0000
  Co  Co7       1.0  1.00000  0.71600  0.28400  1.0000
  Co  Co8       1.0  0.65400  0.85200  0.34600  1.0000
  Co  Co9       1.0  0.14800  0.34600  0.34600  1.0000
  Co  Co10      1.0  0.00000  0.00000  0.50000  1.0000
  Co  Co11      1.0  0.85200  0.65400  0.65400  1.0000
  Co  Co12      1.0  0.34600  0.14800  0.65400  1.0000
  Co  Co13      1.0  0.71600  0.00000  0.71600  1.0000
  Co  Co14      1.0  0.00000  0.28400  0.71600  1.0000
  Co  Co15      1.0  0.65400  0.34600  0.85200  1.0000
  Ga  Ga1       1.0  0.89400  0.10600  0.10600  1.0000
  Ga  Ga2       1.0  0.10600  0.89400  0.89400  1.0000
