data_image0
_chemical_formula_structural       Ba6C6Co2N6
_chemical_formula_sum              "Ba6 C6 Co2 N6"
_cell_length_a       9.06216
_cell_length_b       9.06197
_cell_length_c       5.77626
_cell_angle_alpha    90
_cell_angle_beta     90
_cell_angle_gamma    120.001

_space_group_name_H-M_alt    "P 1"
_space_group_IT_number       1

loop_
  _space_group_symop_operation_xyz
  'x, y, z'

loop_
  _atom_site_type_symbol
  _atom_site_label
  _atom_site_symmetry_multiplicity
  _atom_site_fract_x
  _atom_site_fract_y
  _atom_site_fract_z
  _atom_site_occupancy
  Ba  Ba1       1.0  0.06930  0.37800  0.25000  1.0000
  Ba  Ba2       1.0  0.62200  0.69100  0.25000  1.0000
  Ba  Ba3       1.0  0.30900  0.93100  0.25000  1.0000
  Ba  Ba4       1.0  0.69100  0.06930  0.75000  1.0000
  Ba  Ba5       1.0  0.37800  0.30900  0.75000  1.0000
  Ba  Ba6       1.0  0.93100  0.62200  0.75000  1.0000
  C   C1        1.0  0.69600  0.15500  0.25000  1.0000
  C   C2        1.0  0.45900  0.30400  0.25000  1.0000
  C   C3        1.0  0.84500  0.54100  0.25000  1.0000
  C   C4        1.0  0.15500  0.45900  0.75000  1.0000
  C   C5        1.0  0.54100  0.69600  0.75000  1.0000
  C   C6        1.0  0.30400  0.84500  0.75000  1.0000
  Co  Co1       1.0  0.66700  0.33300  0.25000  1.0000
  Co  Co2       1.0  0.33300  0.66700  0.75000  1.0000
  N   N1        1.0  0.71900  0.03010  0.25000  1.0000
  N   N2        1.0  0.31100  0.28100  0.25000  1.0000
  N   N3        1.0  0.97000  0.68900  0.25000  1.0000
  N   N4        1.0  0.03010  0.31100  0.75000  1.0000
  N   N5        1.0  0.68900  0.71900  0.75000  1.0000
  N   N6        1.0  0.28100  0.97000  0.75000  1.0000
