data_image0
_chemical_formula_structural       Al2Co15Pr2
_chemical_formula_sum              "Al2 Co15 Pr2"
_cell_length_a       6.34454
_cell_length_b       6.34454
_cell_length_c       6.34454
_cell_angle_alpha    82.8884
_cell_angle_beta     97.1116
_cell_angle_gamma    97.1116

_space_group_name_H-M_alt    "P 1"
_space_group_IT_number       1

loop_
  _space_group_symop_operation_xyz
  'x, y, z'

loop_
  _atom_site_type_symbol
  _atom_site_label
  _atom_site_symmetry_multiplicity
  _atom_site_fract_x
  _atom_site_fract_y
  _atom_site_fract_z
  _atom_site_occupancy
  Al  Al1       1.0  0.89500  0.10500  0.10500  1.0000
  Al  Al2       1.0  0.10500  0.89500  0.89500  1.0000
  Co  Co1       1.0  0.00000  0.50000  0.00000  1.0000
  Co  Co2       1.0  0.28300  0.28300  0.00000  1.0000
  Co  Co3       1.0  0.71700  0.71700  1.00000  1.0000
  Co  Co4       1.0  0.50000  0.00000  0.00000  1.0000
  Co  Co5       1.0  0.34700  0.65300  0.14600  1.0000
  Co  Co6       1.0  0.28300  0.00000  0.28300  1.0000
  Co  Co7       1.0  0.00000  0.71700  0.28300  1.0000
  Co  Co8       1.0  0.14600  0.34700  0.34700  1.0000
  Co  Co9       1.0  0.65300  0.85400  0.34700  1.0000
  Co  Co10      1.0  0.00000  0.00000  0.50000  1.0000
  Co  Co11      1.0  0.34700  0.14600  0.65300  1.0000
  Co  Co12      1.0  0.85400  0.65300  0.65300  1.0000
  Co  Co13      1.0  0.00000  0.28300  0.71700  1.0000
  Co  Co14      1.0  0.71700  1.00000  0.71700  1.0000
  Co  Co15      1.0  0.65300  0.34700  0.85400  1.0000
  Pr  Pr1       1.0  0.64800  0.35200  0.35200  1.0000
  Pr  Pr2       1.0  0.35200  0.64800  0.64800  1.0000
