data_image0
_chemical_formula_structural       CoH6K2O8P2
_chemical_formula_sum              "Co1 H6 K2 O8 P2"
_cell_length_a       5.28407
_cell_length_b       6.73807
_cell_length_c       7.23288
_cell_angle_alpha    113.826
_cell_angle_beta     90
_cell_angle_gamma    113.086

_space_group_name_H-M_alt    "P 1"
_space_group_IT_number       1

loop_
  _space_group_symop_operation_xyz
  'x, y, z'

loop_
  _atom_site_type_symbol
  _atom_site_label
  _atom_site_symmetry_multiplicity
  _atom_site_fract_x
  _atom_site_fract_y
  _atom_site_fract_z
  _atom_site_occupancy
  Co  Co1       1.0  0.50000  0.00000  0.50000  1.0000
  H   H1        1.0  0.72600  0.45300  0.09980  1.0000
  H   H2        1.0  0.32000  0.94400  0.14600  1.0000
  H   H3        1.0  0.62400  0.94400  0.14600  1.0000
  H   H4        1.0  0.37600  0.05610  0.85400  1.0000
  H   H5        1.0  0.68000  0.05610  0.85400  1.0000
  H   H6        1.0  0.27400  0.54700  0.90000  1.0000
  K   K1        1.0  0.16400  0.32900  0.29100  1.0000
  K   K2        1.0  0.83600  0.67100  0.70900  1.0000
  O   O1        1.0  0.92400  0.84800  0.12700  1.0000
  O   O2        1.0  0.52000  0.03990  0.21600  1.0000
  O   O3        1.0  0.10100  0.72500  0.37800  1.0000
  O   O4        1.0  0.62400  0.72500  0.37800  1.0000
  O   O5        1.0  0.37600  0.27500  0.62200  1.0000
  O   O6        1.0  0.89900  0.27500  0.62200  1.0000
  O   O7        1.0  0.48000  0.96000  0.78400  1.0000
  O   O8        1.0  0.07610  0.15200  0.87300  1.0000
  P   P1        1.0  0.84800  0.69700  0.24900  1.0000
  P   P2        1.0  0.15200  0.30300  0.75100  1.0000
