data_image0
_chemical_formula_structural       Co6Ge10Y4
_chemical_formula_sum              "Co6 Ge10 Y4"
_cell_length_a       5.74923
_cell_length_b       8.08665
_cell_length_c       8.08665
_cell_angle_alpha    93.3531
_cell_angle_beta     109.719
_cell_angle_gamma    109.719

_space_group_name_H-M_alt    "P 1"
_space_group_IT_number       1

loop_
  _space_group_symop_operation_xyz
  'x, y, z'

loop_
  _atom_site_type_symbol
  _atom_site_label
  _atom_site_symmetry_multiplicity
  _atom_site_fract_x
  _atom_site_fract_y
  _atom_site_fract_z
  _atom_site_occupancy
  Co  Co1       1.0  0.25000  0.99700  0.00338  1.0000
  Co  Co2       1.0  0.38200  0.54000  0.26000  1.0000
  Co  Co3       1.0  0.11800  0.74000  0.46000  1.0000
  Co  Co4       1.0  0.88200  0.26000  0.54000  1.0000
  Co  Co5       1.0  0.61800  0.46000  0.74000  1.0000
  Co  Co6       1.0  0.75000  0.00338  0.99700  1.0000
  Ge  Ge1       1.0  0.17100  0.26100  0.07610  1.0000
  Ge  Ge2       1.0  0.25000  0.78300  0.21700  1.0000
  Ge  Ge3       1.0  0.75000  0.77200  0.22800  1.0000
  Ge  Ge4       1.0  0.67100  0.07610  0.26100  1.0000
  Ge  Ge5       1.0  0.75000  0.50800  0.49200  1.0000
  Ge  Ge6       1.0  0.25000  0.49200  0.50800  1.0000
  Ge  Ge7       1.0  0.32900  0.92400  0.73900  1.0000
  Ge  Ge8       1.0  0.25000  0.22800  0.77200  1.0000
  Ge  Ge9       1.0  0.75000  0.21700  0.78300  1.0000
  Ge  Ge10      1.0  0.82900  0.73900  0.92400  1.0000
  Y   Y1        1.0  0.76700  0.40600  0.12800  1.0000
  Y   Y2        1.0  0.26700  0.12800  0.40600  1.0000
  Y   Y3        1.0  0.73300  0.87200  0.59400  1.0000
  Y   Y4        1.0  0.23300  0.59400  0.87200  1.0000
