data_image0
_chemical_formula_structural       B6Ba2CoO12
_chemical_formula_sum              "B6 Ba2 Co1 O12"
_cell_length_a       6.83668
_cell_length_b       6.83668
_cell_length_c       6.83667
_cell_angle_alpha    117.86
_cell_angle_beta     62.1398
_cell_angle_gamma    117.86

_space_group_name_H-M_alt    "P 1"
_space_group_IT_number       1

loop_
  _space_group_symop_operation_xyz
  'x, y, z'

loop_
  _atom_site_type_symbol
  _atom_site_label
  _atom_site_symmetry_multiplicity
  _atom_site_fract_x
  _atom_site_fract_y
  _atom_site_fract_z
  _atom_site_occupancy
  B   B1        1.0  0.63700  0.64400  0.24100  1.0000
  B   B2        1.0  0.24100  0.36300  0.35600  1.0000
  B   B3        1.0  0.64400  0.24100  0.36300  1.0000
  B   B4        1.0  0.35600  0.75900  0.63700  1.0000
  B   B5        1.0  0.75900  0.63700  0.64400  1.0000
  B   B6        1.0  0.36300  0.35600  0.75900  1.0000
  Ba  Ba1       1.0  0.21200  0.78800  0.21200  1.0000
  Ba  Ba2       1.0  0.78800  0.21200  0.78800  1.0000
  Co  Co1       1.0  0.00000  0.00000  0.00000  1.0000
  O   O1        1.0  0.84400  0.68200  0.07900  1.0000
  O   O2        1.0  0.68200  0.07900  0.15600  1.0000
  O   O3        1.0  0.46300  0.42500  0.19400  1.0000
  O   O4        1.0  0.07900  0.15600  0.31800  1.0000
  O   O5        1.0  0.80600  0.46300  0.42500  1.0000
  O   O6        1.0  0.57500  0.80600  0.46300  1.0000
  O   O7        1.0  0.42500  0.19400  0.53700  1.0000
  O   O8        1.0  0.19400  0.53700  0.57500  1.0000
  O   O9        1.0  0.92100  0.84400  0.68200  1.0000
  O   O10       1.0  0.53700  0.57500  0.80600  1.0000
  O   O11       1.0  0.31800  0.92100  0.84400  1.0000
  O   O12       1.0  0.15600  0.31800  0.92100  1.0000
