data_image0
_chemical_formula_structural       Co6Gd4Si10
_chemical_formula_sum              "Co6 Gd4 Si10"
_cell_length_a       5.56842
_cell_length_b       7.89196
_cell_length_c       7.89196
_cell_angle_alpha    105.497
_cell_angle_beta     110.658
_cell_angle_gamma    69.3419

_space_group_name_H-M_alt    "P 1"
_space_group_IT_number       1

loop_
  _space_group_symop_operation_xyz
  'x, y, z'

loop_
  _atom_site_type_symbol
  _atom_site_label
  _atom_site_symmetry_multiplicity
  _atom_site_fract_x
  _atom_site_fract_y
  _atom_site_fract_z
  _atom_site_occupancy
  Co  Co1       1.0  0.25000  0.00000  0.00000  1.0000
  Co  Co2       1.0  0.75000  0.00000  0.00000  1.0000
  Co  Co3       1.0  0.36300  0.52800  0.25300  1.0000
  Co  Co4       1.0  0.86300  0.74700  0.47200  1.0000
  Co  Co5       1.0  0.13700  0.25300  0.52800  1.0000
  Co  Co6       1.0  0.63700  0.47200  0.74700  1.0000
  Gd  Gd1       1.0  0.86700  0.39900  0.13200  1.0000
  Gd  Gd2       1.0  0.63300  0.13200  0.39900  1.0000
  Gd  Gd3       1.0  0.36700  0.86800  0.60100  1.0000
  Gd  Gd4       1.0  0.13300  0.60100  0.86800  1.0000
  Si  Si1       1.0  0.39800  0.25800  0.05450  1.0000
  Si  Si2       1.0  0.47900  0.77100  0.22900  1.0000
  Si  Si3       1.0  0.97900  0.77100  0.22900  1.0000
  Si  Si4       1.0  0.10200  0.05450  0.25800  1.0000
  Si  Si5       1.0  0.25000  0.50000  0.50000  1.0000
  Si  Si6       1.0  0.75000  0.50000  0.50000  1.0000
  Si  Si7       1.0  0.89800  0.94500  0.74200  1.0000
  Si  Si8       1.0  0.02150  0.22900  0.77100  1.0000
  Si  Si9       1.0  0.52100  0.22900  0.77100  1.0000
  Si  Si10      1.0  0.60200  0.74200  0.94500  1.0000
