data_image0
_chemical_formula_structural       Co2La4O12Ru2
_chemical_formula_sum              "Co2 La4 O12 Ru2"
_cell_length_a       5.55629
_cell_length_b       5.66501
_cell_length_c       7.85719
_cell_angle_alpha    90
_cell_angle_beta     90.315
_cell_angle_gamma    90

_space_group_name_H-M_alt    "P 1"
_space_group_IT_number       1

loop_
  _space_group_symop_operation_xyz
  'x, y, z'

loop_
  _atom_site_type_symbol
  _atom_site_label
  _atom_site_symmetry_multiplicity
  _atom_site_fract_x
  _atom_site_fract_y
  _atom_site_fract_z
  _atom_site_occupancy
  Co  Co1       1.0  0.50000  0.00000  0.00000  1.0000
  Co  Co2       1.0  0.00000  0.50000  0.50000  1.0000
  La  La1       1.0  0.01060  0.05070  0.24900  1.0000
  La  La2       1.0  0.48900  0.55100  0.25100  1.0000
  La  La3       1.0  0.51100  0.44900  0.74900  1.0000
  La  La4       1.0  0.98900  0.94900  0.75100  1.0000
  O   O1        1.0  0.29200  0.29900  0.04390  1.0000
  O   O2        1.0  0.20000  0.78900  0.04820  1.0000
  O   O3        1.0  0.91200  0.48200  0.24900  1.0000
  O   O4        1.0  0.58800  0.98200  0.25100  1.0000
  O   O5        1.0  0.30000  0.28900  0.45200  1.0000
  O   O6        1.0  0.20800  0.79900  0.45600  1.0000
  O   O7        1.0  0.79200  0.20100  0.54400  1.0000
  O   O8        1.0  0.70000  0.71100  0.54800  1.0000
  O   O9        1.0  0.41200  0.01840  0.74900  1.0000
  O   O10       1.0  0.08770  0.51800  0.75100  1.0000
  O   O11       1.0  0.80000  0.21100  0.95200  1.0000
  O   O12       1.0  0.70800  0.70100  0.95600  1.0000
  Ru  Ru1       1.0  0.00000  0.50000  0.00000  1.0000
  Ru  Ru2       1.0  0.50000  0.00000  0.50000  1.0000
