data_image0
_chemical_formula_structural       Co2La2Na2O12W2
_chemical_formula_sum              "Co2 La2 Na2 O12 W2"
_cell_length_a       5.54189
_cell_length_b       5.51274
_cell_length_c       7.84332
_cell_angle_alpha    90
_cell_angle_beta     90.3296
_cell_angle_gamma    90

_space_group_name_H-M_alt    "P 1"
_space_group_IT_number       1

loop_
  _space_group_symop_operation_xyz
  'x, y, z'

loop_
  _atom_site_type_symbol
  _atom_site_label
  _atom_site_symmetry_multiplicity
  _atom_site_fract_x
  _atom_site_fract_y
  _atom_site_fract_z
  _atom_site_occupancy
  Co  Co1       1.0  0.74500  0.25000  0.24500  1.0000
  Co  Co2       1.0  0.25500  0.75000  0.75500  1.0000
  La  La1       1.0  0.74700  0.75000  0.49900  1.0000
  La  La2       1.0  0.25300  0.25000  0.50100  1.0000
  Na  Na1       1.0  0.76300  0.75000  0.00109  1.0000
  Na  Na2       1.0  0.23700  0.25000  0.99900  1.0000
  O   O1        1.0  0.34100  0.75000  0.00806  1.0000
  O   O2        1.0  0.00786  0.50500  0.21600  1.0000
  O   O3        1.0  0.00786  0.99500  0.21600  1.0000
  O   O4        1.0  0.48800  0.50700  0.30300  1.0000
  O   O5        1.0  0.48800  0.99300  0.30300  1.0000
  O   O6        1.0  0.17100  0.75000  0.49200  1.0000
  O   O7        1.0  0.82900  0.25000  0.50800  1.0000
  O   O8        1.0  0.51200  0.00738  0.69700  1.0000
  O   O9        1.0  0.51200  0.49300  0.69700  1.0000
  O   O10       1.0  0.99200  0.00533  0.78400  1.0000
  O   O11       1.0  0.99200  0.49500  0.78400  1.0000
  O   O12       1.0  0.65900  0.25000  0.99200  1.0000
  W   W1        1.0  0.24500  0.75000  0.23100  1.0000
  W   W2        1.0  0.75500  0.25000  0.76900  1.0000
