data_image0
_chemical_formula_structural       Co2K12S8
_chemical_formula_sum              "Co2 K12 S8"
_cell_length_a       9.76197
_cell_length_b       9.76164
_cell_length_c       7.64952
_cell_angle_alpha    90
_cell_angle_beta     90
_cell_angle_gamma    120.001

_space_group_name_H-M_alt    "P 1"
_space_group_IT_number       1

loop_
  _space_group_symop_operation_xyz
  'x, y, z'

loop_
  _atom_site_type_symbol
  _atom_site_label
  _atom_site_symmetry_multiplicity
  _atom_site_fract_x
  _atom_site_fract_y
  _atom_site_fract_z
  _atom_site_occupancy
  Co  Co1       1.0  0.33300  0.66700  0.25100  1.0000
  Co  Co2       1.0  0.66700  0.33300  0.75100  1.0000
  K   K1        1.0  0.29300  0.14600  0.04480  1.0000
  K   K2        1.0  0.85400  0.14600  0.04480  1.0000
  K   K3        1.0  0.85400  0.70700  0.04480  1.0000
  K   K4        1.0  0.52900  0.05760  0.36600  1.0000
  K   K5        1.0  0.52900  0.47100  0.36600  1.0000
  K   K6        1.0  0.94200  0.47100  0.36600  1.0000
  K   K7        1.0  0.14600  0.85400  0.54500  1.0000
  K   K8        1.0  0.70700  0.85400  0.54500  1.0000
  K   K9        1.0  0.14600  0.29300  0.54500  1.0000
  K   K10       1.0  0.47100  0.94200  0.86600  1.0000
  K   K11       1.0  0.05760  0.52900  0.86600  1.0000
  K   K12       1.0  0.47100  0.52900  0.86600  1.0000
  S   S1        1.0  0.66700  0.33300  0.06000  1.0000
  S   S2        1.0  0.20000  0.40000  0.15500  1.0000
  S   S3        1.0  0.20000  0.80000  0.15500  1.0000
  S   S4        1.0  0.60000  0.80000  0.15500  1.0000
  S   S5        1.0  0.33300  0.66700  0.56000  1.0000
  S   S6        1.0  0.80000  0.60000  0.65500  1.0000
  S   S7        1.0  0.40000  0.20000  0.65500  1.0000
  S   S8        1.0  0.80000  0.20000  0.65500  1.0000
