data_image0
_chemical_formula_structural       Co12P7Sm2
_chemical_formula_sum              "Co12 P7 Sm2"
_cell_length_a       9.02455
_cell_length_b       9.02447
_cell_length_c       3.61192
_cell_angle_alpha    90
_cell_angle_beta     90
_cell_angle_gamma    120

_space_group_name_H-M_alt    "P 1"
_space_group_IT_number       1

loop_
  _space_group_symop_operation_xyz
  'x, y, z'

loop_
  _atom_site_type_symbol
  _atom_site_label
  _atom_site_symmetry_multiplicity
  _atom_site_fract_x
  _atom_site_fract_y
  _atom_site_fract_z
  _atom_site_occupancy
  Co  Co1       1.0  0.43100  0.05850  0.00000  1.0000
  Co  Co2       1.0  0.15300  0.27200  0.00000  1.0000
  Co  Co3       1.0  0.94100  0.37300  0.00000  1.0000
  Co  Co4       1.0  0.62700  0.56900  0.00000  1.0000
  Co  Co5       1.0  0.11900  0.84700  0.00000  1.0000
  Co  Co6       1.0  0.72800  0.88100  0.00000  1.0000
  Co  Co7       1.0  0.22700  0.09930  0.50000  1.0000
  Co  Co8       1.0  0.90100  0.12800  0.50000  1.0000
  Co  Co9       1.0  0.38200  0.43300  0.50000  1.0000
  Co  Co10      1.0  0.05040  0.61800  0.50000  1.0000
  Co  Co11      1.0  0.87200  0.77300  0.50000  1.0000
  Co  Co12      1.0  0.56700  0.95000  0.50000  1.0000
  P   P1        1.0  0.00000  0.00000  0.00000  1.0000
  P   P2        1.0  0.70500  0.11000  0.00000  1.0000
  P   P3        1.0  0.40500  0.29500  0.00000  1.0000
  P   P4        1.0  0.89000  0.59500  0.00000  1.0000
  P   P5        1.0  0.10900  0.39900  0.50000  1.0000
  P   P6        1.0  0.60100  0.70900  0.50000  1.0000
  P   P7        1.0  0.29100  0.89100  0.50000  1.0000
  Sm  Sm1       1.0  0.33300  0.66700  0.00000  1.0000
  Sm  Sm2       1.0  0.66700  0.33300  0.50000  1.0000
