data_image0
_chemical_formula_structural       Co6Dy4Si10
_chemical_formula_sum              "Co6 Dy4 Si10"
_cell_length_a       5.48485
_cell_length_b       7.83093
_cell_length_c       7.83093
_cell_angle_alpha    93.4512
_cell_angle_beta     109.199
_cell_angle_gamma    109.199

_space_group_name_H-M_alt    "P 1"
_space_group_IT_number       1

loop_
  _space_group_symop_operation_xyz
  'x, y, z'

loop_
  _atom_site_type_symbol
  _atom_site_label
  _atom_site_symmetry_multiplicity
  _atom_site_fract_x
  _atom_site_fract_y
  _atom_site_fract_z
  _atom_site_occupancy
  Co  Co1       1.0  0.25000  0.99700  0.00342  1.0000
  Co  Co2       1.0  0.37300  0.54000  0.26300  1.0000
  Co  Co3       1.0  0.12700  0.73700  0.46000  1.0000
  Co  Co4       1.0  0.87300  0.26300  0.54000  1.0000
  Co  Co5       1.0  0.62700  0.46000  0.73700  1.0000
  Co  Co6       1.0  0.75000  0.00342  0.99700  1.0000
  Dy  Dy1       1.0  0.76300  0.40200  0.13000  1.0000
  Dy  Dy2       1.0  0.26300  0.13000  0.40200  1.0000
  Dy  Dy3       1.0  0.73700  0.87000  0.59800  1.0000
  Dy  Dy4       1.0  0.23700  0.59800  0.87000  1.0000
  Si  Si1       1.0  0.16500  0.26300  0.06400  1.0000
  Si  Si2       1.0  0.25000  0.78600  0.21400  1.0000
  Si  Si3       1.0  0.75000  0.77100  0.22900  1.0000
  Si  Si4       1.0  0.66500  0.06400  0.26300  1.0000
  Si  Si5       1.0  0.75000  0.51200  0.48800  1.0000
  Si  Si6       1.0  0.25000  0.48800  0.51200  1.0000
  Si  Si7       1.0  0.33500  0.93600  0.73700  1.0000
  Si  Si8       1.0  0.25000  0.22900  0.77100  1.0000
  Si  Si9       1.0  0.75000  0.21400  0.78600  1.0000
  Si  Si10      1.0  0.83500  0.73700  0.93600  1.0000
