data_image0
_chemical_formula_structural       Co12Nd2P7
_chemical_formula_sum              "Co12 Nd2 P7"
_cell_length_a       9.05244
_cell_length_b       9.05259
_cell_length_c       3.62462
_cell_angle_alpha    90
_cell_angle_beta     90
_cell_angle_gamma    120.001

_space_group_name_H-M_alt    "P 1"
_space_group_IT_number       1

loop_
  _space_group_symop_operation_xyz
  'x, y, z'

loop_
  _atom_site_type_symbol
  _atom_site_label
  _atom_site_symmetry_multiplicity
  _atom_site_fract_x
  _atom_site_fract_y
  _atom_site_fract_z
  _atom_site_occupancy
  Co  Co1       1.0  0.43100  0.05860  0.00000  1.0000
  Co  Co2       1.0  0.15200  0.27100  0.00000  1.0000
  Co  Co3       1.0  0.94100  0.37200  0.00000  1.0000
  Co  Co4       1.0  0.62800  0.56900  0.00000  1.0000
  Co  Co5       1.0  0.11900  0.84800  0.00000  1.0000
  Co  Co6       1.0  0.72900  0.88100  0.00000  1.0000
  Co  Co7       1.0  0.22500  0.09960  0.50000  1.0000
  Co  Co8       1.0  0.90000  0.12600  0.50000  1.0000
  Co  Co9       1.0  0.38200  0.43200  0.50000  1.0000
  Co  Co10      1.0  0.04980  0.61800  0.50000  1.0000
  Co  Co11      1.0  0.87400  0.77500  0.50000  1.0000
  Co  Co12      1.0  0.56800  0.95000  0.50000  1.0000
  Nd  Nd1       1.0  0.33300  0.66700  0.00000  1.0000
  Nd  Nd2       1.0  0.66700  0.33300  0.50000  1.0000
  P   P1        1.0  0.00000  0.00000  0.00000  1.0000
  P   P2        1.0  0.70400  0.10800  0.00000  1.0000
  P   P3        1.0  0.40300  0.29600  0.00000  1.0000
  P   P4        1.0  0.89200  0.59700  0.00000  1.0000
  P   P5        1.0  0.10600  0.39700  0.50000  1.0000
  P   P6        1.0  0.60300  0.70900  0.50000  1.0000
  P   P7        1.0  0.29100  0.89400  0.50000  1.0000
