data_image0
_chemical_formula_structural       Ca6Co4O12
_chemical_formula_sum              "Ca6 Co4 O12"
_cell_length_a       6.24758
_cell_length_b       6.24758
_cell_length_c       6.24758
_cell_angle_alpha    92.3305
_cell_angle_beta     92.3305
_cell_angle_gamma    92.3305

_space_group_name_H-M_alt    "P 1"
_space_group_IT_number       1

loop_
  _space_group_symop_operation_xyz
  'x, y, z'

loop_
  _atom_site_type_symbol
  _atom_site_label
  _atom_site_symmetry_multiplicity
  _atom_site_fract_x
  _atom_site_fract_y
  _atom_site_fract_z
  _atom_site_occupancy
  Ca  Ca1       1.0  0.38000  0.75000  0.12000  1.0000
  Ca  Ca2       1.0  0.88000  0.62000  0.25000  1.0000
  Ca  Ca3       1.0  0.75000  0.12000  0.38000  1.0000
  Ca  Ca4       1.0  0.25000  0.88000  0.62000  1.0000
  Ca  Ca5       1.0  0.12000  0.38000  0.75000  1.0000
  Ca  Ca6       1.0  0.62000  0.25000  0.88000  1.0000
  Co  Co1       1.0  0.00000  0.00000  0.00000  1.0000
  Co  Co2       1.0  0.25000  0.25000  0.25000  1.0000
  Co  Co3       1.0  0.50000  0.50000  0.50000  1.0000
  Co  Co4       1.0  0.75000  0.75000  0.75000  1.0000
  O   O1        1.0  0.70800  0.90600  0.03880  1.0000
  O   O2        1.0  0.96100  0.29200  0.09360  1.0000
  O   O3        1.0  0.53900  0.40600  0.20800  1.0000
  O   O4        1.0  0.09360  0.96100  0.29200  1.0000
  O   O5        1.0  0.20800  0.53900  0.40600  1.0000
  O   O6        1.0  0.59400  0.79200  0.46100  1.0000
  O   O7        1.0  0.40600  0.20800  0.53900  1.0000
  O   O8        1.0  0.79200  0.46100  0.59400  1.0000
  O   O9        1.0  0.90600  0.03880  0.70800  1.0000
  O   O10       1.0  0.46100  0.59400  0.79200  1.0000
  O   O11       1.0  0.03880  0.70800  0.90600  1.0000
  O   O12       1.0  0.29200  0.09360  0.96100  1.0000
