data_image0
_chemical_formula_structural       Co6Er4Si10
_chemical_formula_sum              "Co6 Er4 Si10"
_cell_length_a       5.49139
_cell_length_b       7.83249
_cell_length_c       7.83249
_cell_angle_alpha    88.7231
_cell_angle_beta     69.4789
_cell_angle_gamma    110.521

_space_group_name_H-M_alt    "P 1"
_space_group_IT_number       1

loop_
  _space_group_symop_operation_xyz
  'x, y, z'

loop_
  _atom_site_type_symbol
  _atom_site_label
  _atom_site_symmetry_multiplicity
  _atom_site_fract_x
  _atom_site_fract_y
  _atom_site_fract_z
  _atom_site_occupancy
  Co  Co1       1.0  0.25000  0.00000  0.00000  1.0000
  Co  Co2       1.0  0.75000  0.00000  0.00000  1.0000
  Co  Co3       1.0  0.60800  0.46900  0.25400  1.0000
  Co  Co4       1.0  0.89200  0.25400  0.46900  1.0000
  Co  Co5       1.0  0.10800  0.74600  0.53100  1.0000
  Co  Co6       1.0  0.39200  0.53100  0.74600  1.0000
  Er  Er1       1.0  0.23300  0.59800  0.13200  1.0000
  Er  Er2       1.0  0.73300  0.86800  0.40200  1.0000
  Er  Er3       1.0  0.26700  0.13200  0.59800  1.0000
  Er  Er4       1.0  0.76700  0.40200  0.86800  1.0000
  Si  Si1       1.0  0.84000  0.74000  0.06020  1.0000
  Si  Si2       1.0  0.25000  0.22500  0.22500  1.0000
  Si  Si3       1.0  0.75000  0.22500  0.22500  1.0000
  Si  Si4       1.0  0.34000  0.94000  0.26000  1.0000
  Si  Si5       1.0  0.25000  0.50000  0.50000  1.0000
  Si  Si6       1.0  0.75000  0.50000  0.50000  1.0000
  Si  Si7       1.0  0.66000  0.06020  0.74000  1.0000
  Si  Si8       1.0  0.25000  0.77500  0.77500  1.0000
  Si  Si9       1.0  0.75000  0.77500  0.77500  1.0000
  Si  Si10      1.0  0.16000  0.26000  0.94000  1.0000
