data_image0
_chemical_formula_structural       Co6Ge10Ho4
_chemical_formula_sum              "Co6 Ge10 Ho4"
_cell_length_a       5.72047
_cell_length_b       8.06819
_cell_length_c       8.06819
_cell_angle_alpha    93.5646
_cell_angle_beta     109.553
_cell_angle_gamma    109.553

_space_group_name_H-M_alt    "P 1"
_space_group_IT_number       1

loop_
  _space_group_symop_operation_xyz
  'x, y, z'

loop_
  _atom_site_type_symbol
  _atom_site_label
  _atom_site_symmetry_multiplicity
  _atom_site_fract_x
  _atom_site_fract_y
  _atom_site_fract_z
  _atom_site_occupancy
  Co  Co1       1.0  0.25000  0.99600  0.00384  1.0000
  Co  Co2       1.0  0.38100  0.54100  0.26000  1.0000
  Co  Co3       1.0  0.11900  0.74000  0.45900  1.0000
  Co  Co4       1.0  0.88100  0.26000  0.54100  1.0000
  Co  Co5       1.0  0.61900  0.45900  0.74000  1.0000
  Co  Co6       1.0  0.75000  0.00384  0.99600  1.0000
  Ge  Ge1       1.0  0.17200  0.26100  0.07740  1.0000
  Ge  Ge2       1.0  0.25000  0.78500  0.21500  1.0000
  Ge  Ge3       1.0  0.75000  0.77200  0.22800  1.0000
  Ge  Ge4       1.0  0.67200  0.07740  0.26100  1.0000
  Ge  Ge5       1.0  0.75000  0.50800  0.49200  1.0000
  Ge  Ge6       1.0  0.25000  0.49200  0.50800  1.0000
  Ge  Ge7       1.0  0.32800  0.92300  0.73900  1.0000
  Ge  Ge8       1.0  0.25000  0.22800  0.77200  1.0000
  Ge  Ge9       1.0  0.75000  0.21500  0.78500  1.0000
  Ge  Ge10      1.0  0.82800  0.73900  0.92300  1.0000
  Ho  Ho1       1.0  0.76800  0.40700  0.12800  1.0000
  Ho  Ho2       1.0  0.26800  0.12800  0.40700  1.0000
  Ho  Ho3       1.0  0.73200  0.87200  0.59300  1.0000
  Ho  Ho4       1.0  0.23200  0.59300  0.87200  1.0000
