data_image0
_chemical_formula_structural       Co2Nb6Se12
_chemical_formula_sum              "Co2 Nb6 Se12"
_cell_length_a       6.02324
_cell_length_b       6.02324
_cell_length_c       12.2837
_cell_angle_alpha    90
_cell_angle_beta     90
_cell_angle_gamma    120

_space_group_name_H-M_alt    "P 1"
_space_group_IT_number       1

loop_
  _space_group_symop_operation_xyz
  'x, y, z'

loop_
  _atom_site_type_symbol
  _atom_site_label
  _atom_site_symmetry_multiplicity
  _atom_site_fract_x
  _atom_site_fract_y
  _atom_site_fract_z
  _atom_site_occupancy
  Co  Co1       1.0  0.33300  0.66700  0.25000  1.0000
  Co  Co2       1.0  0.66700  0.33300  0.75000  1.0000
  Nb  Nb1       1.0  0.00000  0.00000  0.00000  1.0000
  Nb  Nb2       1.0  0.66700  0.33300  0.00107  1.0000
  Nb  Nb3       1.0  0.66700  0.33300  0.49900  1.0000
  Nb  Nb4       1.0  0.00000  0.00000  0.50000  1.0000
  Nb  Nb5       1.0  0.33300  0.66700  0.50100  1.0000
  Nb  Nb6       1.0  0.33300  0.66700  0.99900  1.0000
  Se  Se1       1.0  0.33300  0.00082  0.13700  1.0000
  Se  Se2       1.0  0.99900  0.33200  0.13700  1.0000
  Se  Se3       1.0  0.66800  0.66700  0.13700  1.0000
  Se  Se4       1.0  0.66800  0.00084  0.36300  1.0000
  Se  Se5       1.0  0.99900  0.66700  0.36300  1.0000
  Se  Se6       1.0  0.33300  0.33200  0.36300  1.0000
  Se  Se7       1.0  0.33200  0.33300  0.63700  1.0000
  Se  Se8       1.0  0.66700  0.99900  0.63700  1.0000
  Se  Se9       1.0  0.00084  0.66800  0.63700  1.0000
  Se  Se10      1.0  0.33200  0.99900  0.86300  1.0000
  Se  Se11      1.0  0.00082  0.33300  0.86300  1.0000
  Se  Se12      1.0  0.66700  0.66800  0.86300  1.0000
