data_image0
_chemical_formula_structural       C6Co2N6Sr6
_chemical_formula_sum              "C6 Co2 N6 Sr6"
_cell_length_a       8.67985
_cell_length_b       8.67985
_cell_length_c       5.38085
_cell_angle_alpha    90
_cell_angle_beta     90
_cell_angle_gamma    120

_space_group_name_H-M_alt    "P 1"
_space_group_IT_number       1

loop_
  _space_group_symop_operation_xyz
  'x, y, z'

loop_
  _atom_site_type_symbol
  _atom_site_label
  _atom_site_symmetry_multiplicity
  _atom_site_fract_x
  _atom_site_fract_y
  _atom_site_fract_z
  _atom_site_occupancy
  C   C1        1.0  0.14800  0.45200  0.25000  1.0000
  C   C2        1.0  0.54800  0.69600  0.25000  1.0000
  C   C3        1.0  0.30400  0.85200  0.25000  1.0000
  C   C4        1.0  0.69600  0.14800  0.75000  1.0000
  C   C5        1.0  0.45200  0.30400  0.75000  1.0000
  C   C6        1.0  0.85200  0.54800  0.75000  1.0000
  Co  Co1       1.0  0.33300  0.66700  0.25000  1.0000
  Co  Co2       1.0  0.66700  0.33300  0.75000  1.0000
  N   N1        1.0  0.02100  0.29600  0.25000  1.0000
  N   N2        1.0  0.70400  0.72500  0.25000  1.0000
  N   N3        1.0  0.27500  0.97900  0.25000  1.0000
  N   N4        1.0  0.72500  0.02100  0.75000  1.0000
  N   N5        1.0  0.29600  0.27500  0.75000  1.0000
  N   N6        1.0  0.97900  0.70400  0.75000  1.0000
  Sr  Sr1       1.0  0.69200  0.06560  0.25000  1.0000
  Sr  Sr2       1.0  0.37400  0.30800  0.25000  1.0000
  Sr  Sr3       1.0  0.93400  0.62600  0.25000  1.0000
  Sr  Sr4       1.0  0.06560  0.37400  0.75000  1.0000
  Sr  Sr5       1.0  0.62600  0.69200  0.75000  1.0000
  Sr  Sr6       1.0  0.30800  0.93400  0.75000  1.0000
