data_image0
_chemical_formula_structural       Co2H2O10P2Zn2
_chemical_formula_sum              "Co2 H2 O10 P2 Zn2"
_cell_length_a       5.19718
_cell_length_b       5.52959
_cell_length_c       7.26501
_cell_angle_alpha    95.265
_cell_angle_beta     99.8053
_cell_angle_gamma    92.3791

_space_group_name_H-M_alt    "P 1"
_space_group_IT_number       1

loop_
  _space_group_symop_operation_xyz
  'x, y, z'

loop_
  _atom_site_type_symbol
  _atom_site_label
  _atom_site_symmetry_multiplicity
  _atom_site_fract_x
  _atom_site_fract_y
  _atom_site_fract_z
  _atom_site_occupancy
  Co  Co1       1.0  0.00000  0.50000  0.00000  1.0000
  Co  Co2       1.0  0.00000  0.00000  0.00000  1.0000
  H   H1        1.0  0.88800  0.73600  0.28400  1.0000
  H   H2        1.0  0.11200  0.26400  0.71600  1.0000
  O   O1        1.0  0.71500  0.24800  0.06330  1.0000
  O   O2        1.0  0.25600  0.27500  0.14000  1.0000
  O   O3        1.0  0.03490  0.77600  0.21900  1.0000
  O   O4        1.0  0.63000  0.54800  0.33000  1.0000
  O   O5        1.0  0.60600  0.09750  0.36200  1.0000
  O   O6        1.0  0.39400  0.90300  0.63800  1.0000
  O   O7        1.0  0.37000  0.45200  0.67000  1.0000
  O   O8        1.0  0.96500  0.22400  0.78100  1.0000
  O   O9        1.0  0.74400  0.72500  0.86000  1.0000
  O   O10       1.0  0.28500  0.75200  0.93700  1.0000
  P   P1        1.0  0.55200  0.29400  0.21900  1.0000
  P   P2        1.0  0.44800  0.70600  0.78100  1.0000
  Zn  Zn1       1.0  0.37700  0.79000  0.36500  1.0000
  Zn  Zn2       1.0  0.62300  0.21000  0.63500  1.0000
