data_image0
_chemical_formula_structural       Co6Ge10Pr4
_chemical_formula_sum              "Co6 Ge10 Pr4"
_cell_length_a       5.91116
_cell_length_b       8.2647
_cell_length_c       8.2647
_cell_angle_alpha    91.8766
_cell_angle_beta     110.954
_cell_angle_gamma    110.954

_space_group_name_H-M_alt    "P 1"
_space_group_IT_number       1

loop_
  _space_group_symop_operation_xyz
  'x, y, z'

loop_
  _atom_site_type_symbol
  _atom_site_label
  _atom_site_symmetry_multiplicity
  _atom_site_fract_x
  _atom_site_fract_y
  _atom_site_fract_z
  _atom_site_occupancy
  Co  Co1       1.0  0.25000  0.00000  0.00000  1.0000
  Co  Co2       1.0  0.75000  0.00000  0.00000  1.0000
  Co  Co3       1.0  0.39000  0.52600  0.25500  1.0000
  Co  Co4       1.0  0.11000  0.74500  0.47400  1.0000
  Co  Co5       1.0  0.89000  0.25500  0.52600  1.0000
  Co  Co6       1.0  0.61000  0.47400  0.74500  1.0000
  Ge  Ge1       1.0  0.15600  0.25500  0.05740  1.0000
  Ge  Ge2       1.0  0.25000  0.76400  0.23600  1.0000
  Ge  Ge3       1.0  0.75000  0.76400  0.23600  1.0000
  Ge  Ge4       1.0  0.65600  0.05740  0.25500  1.0000
  Ge  Ge5       1.0  0.25000  0.50000  0.50000  1.0000
  Ge  Ge6       1.0  0.75000  0.50000  0.50000  1.0000
  Ge  Ge7       1.0  0.34400  0.94300  0.74500  1.0000
  Ge  Ge8       1.0  0.25000  0.23600  0.76400  1.0000
  Ge  Ge9       1.0  0.75000  0.23600  0.76400  1.0000
  Ge  Ge10      1.0  0.84400  0.74500  0.94300  1.0000
  Pr  Pr1       1.0  0.76200  0.39600  0.12900  1.0000
  Pr  Pr2       1.0  0.26200  0.12900  0.39600  1.0000
  Pr  Pr3       1.0  0.73800  0.87100  0.60400  1.0000
  Pr  Pr4       1.0  0.23800  0.60400  0.87100  1.0000
