data_image0
_chemical_formula_structural       Co2Cs4F12Na2
_chemical_formula_sum              "Co2 Cs4 F12 Na2"
_cell_length_a       6.07223
_cell_length_b       6.07223
_cell_length_c       10.471
_cell_angle_alpha    106.855
_cell_angle_beta     90
_cell_angle_gamma    120

_space_group_name_H-M_alt    "P 1"
_space_group_IT_number       1

loop_
  _space_group_symop_operation_xyz
  'x, y, z'

loop_
  _atom_site_type_symbol
  _atom_site_label
  _atom_site_symmetry_multiplicity
  _atom_site_fract_x
  _atom_site_fract_y
  _atom_site_fract_z
  _atom_site_occupancy
  Co  Co1       1.0  0.00000  0.00000  0.00000  1.0000
  Co  Co2       1.0  0.50000  0.00000  0.50000  1.0000
  Cs  Cs1       1.0  0.71600  0.43300  0.14900  1.0000
  Cs  Cs2       1.0  0.12700  0.25500  0.38200  1.0000
  Cs  Cs3       1.0  0.87300  0.74500  0.61800  1.0000
  Cs  Cs4       1.0  0.28400  0.56700  0.85100  1.0000
  F   F1        1.0  0.18800  0.92300  0.11100  1.0000
  F   F2        1.0  0.18800  0.37600  0.11100  1.0000
  F   F3        1.0  0.73500  0.92300  0.11100  1.0000
  F   F4        1.0  0.16400  0.77400  0.38400  1.0000
  F   F5        1.0  0.61000  0.77400  0.38400  1.0000
  F   F6        1.0  0.61000  0.22100  0.38400  1.0000
  F   F7        1.0  0.39000  0.77900  0.61600  1.0000
  F   F8        1.0  0.39000  0.22600  0.61600  1.0000
  F   F9        1.0  0.83600  0.22600  0.61600  1.0000
  F   F10       1.0  0.26500  0.07690  0.88900  1.0000
  F   F11       1.0  0.81200  0.62400  0.88900  1.0000
  F   F12       1.0  0.81200  0.07690  0.88900  1.0000
  Na  Na1       1.0  0.40500  0.80900  0.21400  1.0000
  Na  Na2       1.0  0.59500  0.19100  0.78600  1.0000
