data_image0
_chemical_formula_structural       Ce2Co12P7
_chemical_formula_sum              "Ce2 Co12 P7"
_cell_length_a       9.096
_cell_length_b       9.09577
_cell_length_c       3.6473
_cell_angle_alpha    90
_cell_angle_beta     90
_cell_angle_gamma    119.999

_space_group_name_H-M_alt    "P 1"
_space_group_IT_number       1

loop_
  _space_group_symop_operation_xyz
  'x, y, z'

loop_
  _atom_site_type_symbol
  _atom_site_label
  _atom_site_symmetry_multiplicity
  _atom_site_fract_x
  _atom_site_fract_y
  _atom_site_fract_z
  _atom_site_occupancy
  Ce  Ce1       1.0  0.33300  0.66700  0.00000  1.0000
  Ce  Ce2       1.0  0.66700  0.33300  0.50000  1.0000
  Co  Co1       1.0  0.43000  0.05780  0.00000  1.0000
  Co  Co2       1.0  0.15000  0.27000  0.00000  1.0000
  Co  Co3       1.0  0.94200  0.37200  0.00000  1.0000
  Co  Co4       1.0  0.62800  0.57000  0.00000  1.0000
  Co  Co5       1.0  0.12000  0.85000  0.00000  1.0000
  Co  Co6       1.0  0.73000  0.88000  0.00000  1.0000
  Co  Co7       1.0  0.22400  0.09940  0.50000  1.0000
  Co  Co8       1.0  0.90100  0.12400  0.50000  1.0000
  Co  Co9       1.0  0.38000  0.43000  0.50000  1.0000
  Co  Co10      1.0  0.04930  0.62000  0.50000  1.0000
  Co  Co11      1.0  0.87600  0.77600  0.50000  1.0000
  Co  Co12      1.0  0.57000  0.95100  0.50000  1.0000
  P   P1        1.0  0.00000  0.00000  0.00000  1.0000
  P   P2        1.0  0.70500  0.10500  0.00000  1.0000
  P   P3        1.0  0.40100  0.29500  0.00000  1.0000
  P   P4        1.0  0.89500  0.59900  0.00000  1.0000
  P   P5        1.0  0.10300  0.39500  0.50000  1.0000
  P   P6        1.0  0.60500  0.70800  0.50000  1.0000
  P   P7        1.0  0.29200  0.89700  0.50000  1.0000
