data_image0
_chemical_formula_structural       Co12P7Zr2
_chemical_formula_sum              "Co12 P7 Zr2"
_cell_length_a       8.88405
_cell_length_b       8.88487
_cell_length_c       3.54268
_cell_angle_alpha    90
_cell_angle_beta     90
_cell_angle_gamma    119.998

_space_group_name_H-M_alt    "P 1"
_space_group_IT_number       1

loop_
  _space_group_symop_operation_xyz
  'x, y, z'

loop_
  _atom_site_type_symbol
  _atom_site_label
  _atom_site_symmetry_multiplicity
  _atom_site_fract_x
  _atom_site_fract_y
  _atom_site_fract_z
  _atom_site_occupancy
  Co  Co1       1.0  0.43700  0.06300  0.00000  1.0000
  Co  Co2       1.0  0.15900  0.27700  0.00000  1.0000
  Co  Co3       1.0  0.93700  0.37400  0.00000  1.0000
  Co  Co4       1.0  0.62600  0.56300  0.00000  1.0000
  Co  Co5       1.0  0.11800  0.84100  0.00000  1.0000
  Co  Co6       1.0  0.72300  0.88200  0.00000  1.0000
  Co  Co7       1.0  0.22600  0.09690  0.50000  1.0000
  Co  Co8       1.0  0.90300  0.12900  0.50000  1.0000
  Co  Co9       1.0  0.38600  0.43800  0.50000  1.0000
  Co  Co10      1.0  0.05240  0.61400  0.50000  1.0000
  Co  Co11      1.0  0.87100  0.77400  0.50000  1.0000
  Co  Co12      1.0  0.56200  0.94800  0.50000  1.0000
  P   P1        1.0  0.00000  0.00000  0.00000  1.0000
  P   P2        1.0  0.70700  0.11700  0.00000  1.0000
  P   P3        1.0  0.41000  0.29300  0.00000  1.0000
  P   P4        1.0  0.88300  0.59000  0.00000  1.0000
  P   P5        1.0  0.11600  0.40500  0.50000  1.0000
  P   P6        1.0  0.59500  0.71100  0.50000  1.0000
  P   P7        1.0  0.28900  0.88300  0.50000  1.0000
  Zr  Zr1       1.0  0.33300  0.66700  0.00000  1.0000
  Zr  Zr2       1.0  0.66700  0.33300  0.50000  1.0000
