data_image0
_chemical_formula_structural       Co12Nb2P7
_chemical_formula_sum              "Co12 Nb2 P7"
_cell_length_a       8.82264
_cell_length_b       8.82369
_cell_length_c       3.51349
_cell_angle_alpha    90
_cell_angle_beta     90
_cell_angle_gamma    119.992

_space_group_name_H-M_alt    "P 1"
_space_group_IT_number       1

loop_
  _space_group_symop_operation_xyz
  'x, y, z'

loop_
  _atom_site_type_symbol
  _atom_site_label
  _atom_site_symmetry_multiplicity
  _atom_site_fract_x
  _atom_site_fract_y
  _atom_site_fract_z
  _atom_site_occupancy
  Co  Co1       1.0  0.44100  0.06390  0.00000  1.0000
  Co  Co2       1.0  0.16300  0.28100  0.00000  1.0000
  Co  Co3       1.0  0.93600  0.37700  0.00000  1.0000
  Co  Co4       1.0  0.62300  0.55900  0.00000  1.0000
  Co  Co5       1.0  0.11800  0.83700  0.00000  1.0000
  Co  Co6       1.0  0.71900  0.88200  0.00000  1.0000
  Co  Co7       1.0  0.21800  0.09110  0.50000  1.0000
  Co  Co8       1.0  0.90900  0.12700  0.50000  1.0000
  Co  Co9       1.0  0.38900  0.44000  0.50000  1.0000
  Co  Co10      1.0  0.05100  0.61000  0.50000  1.0000
  Co  Co11      1.0  0.87300  0.78200  0.50000  1.0000
  Co  Co12      1.0  0.56000  0.94900  0.50000  1.0000
  Nb  Nb1       1.0  0.33300  0.66700  0.00000  1.0000
  Nb  Nb2       1.0  0.66700  0.33300  0.50000  1.0000
  P   P1        1.0  0.00000  0.00000  0.00000  1.0000
  P   P2        1.0  0.71100  0.12100  0.00000  1.0000
  P   P3        1.0  0.41100  0.28900  0.00000  1.0000
  P   P4        1.0  0.87900  0.58900  0.00000  1.0000
  P   P5        1.0  0.12000  0.40700  0.50000  1.0000
  P   P6        1.0  0.59300  0.71300  0.50000  1.0000
  P   P7        1.0  0.28700  0.88000  0.50000  1.0000
