data_image0
_chemical_formula_structural       Co6Sc4Si10
_chemical_formula_sum              "Co6 Sc4 Si10"
_cell_length_a       5.32555
_cell_length_b       7.6517
_cell_length_c       7.6517
_cell_angle_alpha    94.1428
_cell_angle_beta     108.653
_cell_angle_gamma    108.653

_space_group_name_H-M_alt    "P 1"
_space_group_IT_number       1

loop_
  _space_group_symop_operation_xyz
  'x, y, z'

loop_
  _atom_site_type_symbol
  _atom_site_label
  _atom_site_symmetry_multiplicity
  _atom_site_fract_x
  _atom_site_fract_y
  _atom_site_fract_z
  _atom_site_occupancy
  Co  Co1       1.0  0.25000  0.99800  0.00168  1.0000
  Co  Co2       1.0  0.37200  0.54400  0.26400  1.0000
  Co  Co3       1.0  0.12800  0.73600  0.45600  1.0000
  Co  Co4       1.0  0.87200  0.26400  0.54400  1.0000
  Co  Co5       1.0  0.62800  0.45600  0.73600  1.0000
  Co  Co6       1.0  0.75000  0.00168  0.99800  1.0000
  Sc  Sc1       1.0  0.76400  0.40800  0.12800  1.0000
  Sc  Sc2       1.0  0.26400  0.12800  0.40800  1.0000
  Sc  Sc3       1.0  0.73600  0.87200  0.59200  1.0000
  Sc  Sc4       1.0  0.23600  0.59200  0.87200  1.0000
  Si  Si1       1.0  0.17100  0.26600  0.07490  1.0000
  Si  Si2       1.0  0.25000  0.79200  0.20800  1.0000
  Si  Si3       1.0  0.75000  0.77300  0.22700  1.0000
  Si  Si4       1.0  0.67100  0.07490  0.26600  1.0000
  Si  Si5       1.0  0.75000  0.51400  0.48600  1.0000
  Si  Si6       1.0  0.25000  0.48600  0.51400  1.0000
  Si  Si7       1.0  0.32900  0.92500  0.73400  1.0000
  Si  Si8       1.0  0.25000  0.22700  0.77300  1.0000
  Si  Si9       1.0  0.75000  0.20800  0.79200  1.0000
  Si  Si10      1.0  0.82900  0.73400  0.92500  1.0000
