data_image0
_chemical_formula_structural       Co2Nd4O12Pt2
_chemical_formula_sum              "Co2 Nd4 O12 Pt2"
_cell_length_a       5.44154
_cell_length_b       5.79213
_cell_length_c       7.74831
_cell_angle_alpha    90
_cell_angle_beta     89.854
_cell_angle_gamma    90

_space_group_name_H-M_alt    "P 1"
_space_group_IT_number       1

loop_
  _space_group_symop_operation_xyz
  'x, y, z'

loop_
  _atom_site_type_symbol
  _atom_site_label
  _atom_site_symmetry_multiplicity
  _atom_site_fract_x
  _atom_site_fract_y
  _atom_site_fract_z
  _atom_site_occupancy
  Co  Co1       1.0  0.50000  0.00000  0.00000  1.0000
  Co  Co2       1.0  0.00000  0.50000  0.50000  1.0000
  Nd  Nd1       1.0  0.97900  0.07000  0.25000  1.0000
  Nd  Nd2       1.0  0.52100  0.57000  0.25000  1.0000
  Nd  Nd3       1.0  0.47900  0.43000  0.75000  1.0000
  Nd  Nd4       1.0  0.02080  0.93000  0.75000  1.0000
  O   O1        1.0  0.69400  0.30400  0.05060  1.0000
  O   O2        1.0  0.81200  0.79900  0.05300  1.0000
  O   O3        1.0  0.39600  0.97000  0.24800  1.0000
  O   O4        1.0  0.10400  0.47000  0.25200  1.0000
  O   O5        1.0  0.68800  0.29900  0.44700  1.0000
  O   O6        1.0  0.80600  0.80400  0.44900  1.0000
  O   O7        1.0  0.19400  0.19600  0.55100  1.0000
  O   O8        1.0  0.31200  0.70100  0.55300  1.0000
  O   O9        1.0  0.89600  0.53000  0.74800  1.0000
  O   O10       1.0  0.60400  0.02980  0.75200  1.0000
  O   O11       1.0  0.18800  0.20100  0.94700  1.0000
  O   O12       1.0  0.30600  0.69600  0.94900  1.0000
  Pt  Pt1       1.0  0.00000  0.50000  0.00000  1.0000
  Pt  Pt2       1.0  0.50000  0.00000  0.50000  1.0000
