data_image0
_chemical_formula_structural       Ba2CaCu2O12Sm2Ti2
_chemical_formula_sum              "Ba2 Ca1 Cu2 O12 Sm2 Ti2"
_cell_length_a       3.85227
_cell_length_b       3.85227
_cell_length_c       18.6
_cell_angle_alpha    95.944
_cell_angle_beta     95.944
_cell_angle_gamma    90

_space_group_name_H-M_alt    "P 1"
_space_group_IT_number       1

loop_
  _space_group_symop_operation_xyz
  'x, y, z'

loop_
  _atom_site_type_symbol
  _atom_site_label
  _atom_site_symmetry_multiplicity
  _atom_site_fract_x
  _atom_site_fract_y
  _atom_site_fract_z
  _atom_site_occupancy
  Ba  Ba1       1.0  0.09320  0.09320  0.18600  1.0000
  Ba  Ba2       1.0  0.90700  0.90700  0.81400  1.0000
  Ca  Ca1       1.0  0.00000  0.00000  0.00000  1.0000
  Cu  Cu1       1.0  0.54000  0.54000  0.08000  1.0000
  Cu  Cu2       1.0  0.46000  0.46000  0.92000  1.0000
  O   O1        1.0  0.54200  0.04170  0.08340  1.0000
  O   O2        1.0  0.04170  0.54200  0.08340  1.0000
  O   O3        1.0  0.61400  0.61400  0.22800  1.0000
  O   O4        1.0  0.67300  0.17300  0.34500  1.0000
  O   O5        1.0  0.17300  0.67300  0.34500  1.0000
  O   O6        1.0  0.72600  0.72600  0.45300  1.0000
  O   O7        1.0  0.27400  0.27400  0.54700  1.0000
  O   O8        1.0  0.82700  0.32700  0.65500  1.0000
  O   O9        1.0  0.32700  0.82700  0.65500  1.0000
  O   O10       1.0  0.38600  0.38600  0.77200  1.0000
  O   O11       1.0  0.95800  0.45800  0.91700  1.0000
  O   O12       1.0  0.45800  0.95800  0.91700  1.0000
  Sm  Sm1       1.0  0.21300  0.21300  0.42600  1.0000
  Sm  Sm2       1.0  0.78700  0.78700  0.57400  1.0000
  Ti  Ti1       1.0  0.66300  0.66300  0.32500  1.0000
  Ti  Ti2       1.0  0.33700  0.33700  0.67500  1.0000
