data_image0
_chemical_formula_structural       Co12P7Tm2
_chemical_formula_sum              "Co12 P7 Tm2"
_cell_length_a       8.96525
_cell_length_b       8.96485
_cell_length_c       3.56082
_cell_angle_alpha    90
_cell_angle_beta     90
_cell_angle_gamma    119.996

_space_group_name_H-M_alt    "P 1"
_space_group_IT_number       1

loop_
  _space_group_symop_operation_xyz
  'x, y, z'

loop_
  _atom_site_type_symbol
  _atom_site_label
  _atom_site_symmetry_multiplicity
  _atom_site_fract_x
  _atom_site_fract_y
  _atom_site_fract_z
  _atom_site_occupancy
  Co  Co1       1.0  0.43500  0.05980  0.00000  1.0000
  Co  Co2       1.0  0.15500  0.27400  0.00000  1.0000
  Co  Co3       1.0  0.94000  0.37500  0.00000  1.0000
  Co  Co4       1.0  0.62500  0.56500  0.00000  1.0000
  Co  Co5       1.0  0.11900  0.84500  0.00000  1.0000
  Co  Co6       1.0  0.72600  0.88100  0.00000  1.0000
  Co  Co7       1.0  0.23400  0.10100  0.50000  1.0000
  Co  Co8       1.0  0.89900  0.13200  0.50000  1.0000
  Co  Co9       1.0  0.38300  0.43600  0.50000  1.0000
  Co  Co10      1.0  0.05340  0.61700  0.50000  1.0000
  Co  Co11      1.0  0.86800  0.76600  0.50000  1.0000
  Co  Co12      1.0  0.56400  0.94700  0.50000  1.0000
  P   P1        1.0  0.00000  0.00000  0.00000  1.0000
  P   P2        1.0  0.70700  0.11500  0.00000  1.0000
  P   P3        1.0  0.40700  0.29300  0.00000  1.0000
  P   P4        1.0  0.88500  0.59300  0.00000  1.0000
  P   P5        1.0  0.11300  0.40400  0.50000  1.0000
  P   P6        1.0  0.59600  0.70900  0.50000  1.0000
  P   P7        1.0  0.29100  0.88700  0.50000  1.0000
  Tm  Tm1       1.0  0.33300  0.66700  0.00000  1.0000
  Tm  Tm2       1.0  0.66700  0.33300  0.50000  1.0000
