data_image0
_chemical_formula_structural       Co12P7Ti2
_chemical_formula_sum              "Co12 P7 Ti2"
_cell_length_a       8.82159
_cell_length_b       8.8212
_cell_length_c       3.4853
_cell_angle_alpha    90
_cell_angle_beta     90
_cell_angle_gamma    120.004

_space_group_name_H-M_alt    "P 1"
_space_group_IT_number       1

loop_
  _space_group_symop_operation_xyz
  'x, y, z'

loop_
  _atom_site_type_symbol
  _atom_site_label
  _atom_site_symmetry_multiplicity
  _atom_site_fract_x
  _atom_site_fract_y
  _atom_site_fract_z
  _atom_site_occupancy
  Co  Co1       1.0  0.43800  0.06520  0.00000  1.0000
  Co  Co2       1.0  0.16200  0.28000  0.00000  1.0000
  Co  Co3       1.0  0.93500  0.37300  0.00000  1.0000
  Co  Co4       1.0  0.62700  0.56200  0.00000  1.0000
  Co  Co5       1.0  0.11800  0.83800  0.00000  1.0000
  Co  Co6       1.0  0.72000  0.88200  0.00000  1.0000
  Co  Co7       1.0  0.22500  0.09440  0.50000  1.0000
  Co  Co8       1.0  0.90600  0.13000  0.50000  1.0000
  Co  Co9       1.0  0.38800  0.44100  0.50000  1.0000
  Co  Co10      1.0  0.05300  0.61200  0.50000  1.0000
  Co  Co11      1.0  0.87000  0.77500  0.50000  1.0000
  Co  Co12      1.0  0.55900  0.94700  0.50000  1.0000
  P   P1        1.0  0.00000  0.00000  0.00000  1.0000
  P   P2        1.0  0.70600  0.12200  0.00000  1.0000
  P   P3        1.0  0.41500  0.29400  0.00000  1.0000
  P   P4        1.0  0.87800  0.58500  0.00000  1.0000
  P   P5        1.0  0.12200  0.41000  0.50000  1.0000
  P   P6        1.0  0.59000  0.71200  0.50000  1.0000
  P   P7        1.0  0.28800  0.87800  0.50000  1.0000
  Ti  Ti1       1.0  0.33300  0.66700  0.00000  1.0000
  Ti  Ti2       1.0  0.66700  0.33300  0.50000  1.0000
