data_image0
_chemical_formula_structural       Co12P7Yb2
_chemical_formula_sum              "Co12 P7 Yb2"
_cell_length_a       8.98013
_cell_length_b       8.97964
_cell_length_c       3.54776
_cell_angle_alpha    90
_cell_angle_beta     90
_cell_angle_gamma    119.998

_space_group_name_H-M_alt    "P 1"
_space_group_IT_number       1

loop_
  _space_group_symop_operation_xyz
  'x, y, z'

loop_
  _atom_site_type_symbol
  _atom_site_label
  _atom_site_symmetry_multiplicity
  _atom_site_fract_x
  _atom_site_fract_y
  _atom_site_fract_z
  _atom_site_occupancy
  Co  Co1       1.0  0.43400  0.05820  0.00000  1.0000
  Co  Co2       1.0  0.15400  0.27300  0.00000  1.0000
  Co  Co3       1.0  0.94200  0.37600  0.00000  1.0000
  Co  Co4       1.0  0.62400  0.56600  0.00000  1.0000
  Co  Co5       1.0  0.11900  0.84600  0.00000  1.0000
  Co  Co6       1.0  0.72700  0.88100  0.00000  1.0000
  Co  Co7       1.0  0.23400  0.10200  0.50000  1.0000
  Co  Co8       1.0  0.89800  0.13300  0.50000  1.0000
  Co  Co9       1.0  0.38300  0.43600  0.50000  1.0000
  Co  Co10      1.0  0.05260  0.61700  0.50000  1.0000
  Co  Co11      1.0  0.86800  0.76600  0.50000  1.0000
  Co  Co12      1.0  0.56400  0.94700  0.50000  1.0000
  P   P1        1.0  0.00000  0.00000  0.00000  1.0000
  P   P2        1.0  0.70800  0.11400  0.00000  1.0000
  P   P3        1.0  0.40700  0.29200  0.00000  1.0000
  P   P4        1.0  0.88600  0.59300  0.00000  1.0000
  P   P5        1.0  0.11200  0.40300  0.50000  1.0000
  P   P6        1.0  0.59700  0.70900  0.50000  1.0000
  P   P7        1.0  0.29100  0.88800  0.50000  1.0000
  Yb  Yb1       1.0  0.33300  0.66700  0.00000  1.0000
  Yb  Yb2       1.0  0.66700  0.33300  0.50000  1.0000
