data_image0
_chemical_formula_structural       Co12P7Sc2
_chemical_formula_sum              "Co12 P7 Sc2"
_cell_length_a       8.90797
_cell_length_b       8.90823
_cell_length_c       3.50932
_cell_angle_alpha    90
_cell_angle_beta     90
_cell_angle_gamma    120.001

_space_group_name_H-M_alt    "P 1"
_space_group_IT_number       1

loop_
  _space_group_symop_operation_xyz
  'x, y, z'

loop_
  _atom_site_type_symbol
  _atom_site_label
  _atom_site_symmetry_multiplicity
  _atom_site_fract_x
  _atom_site_fract_y
  _atom_site_fract_z
  _atom_site_occupancy
  Co  Co1       1.0  0.43700  0.06210  0.00000  1.0000
  Co  Co2       1.0  0.15600  0.27500  0.00000  1.0000
  Co  Co3       1.0  0.93800  0.37500  0.00000  1.0000
  Co  Co4       1.0  0.62500  0.56300  0.00000  1.0000
  Co  Co5       1.0  0.11900  0.84400  0.00000  1.0000
  Co  Co6       1.0  0.72500  0.88100  0.00000  1.0000
  Co  Co7       1.0  0.23500  0.10100  0.50000  1.0000
  Co  Co8       1.0  0.89900  0.13300  0.50000  1.0000
  Co  Co9       1.0  0.38300  0.43800  0.50000  1.0000
  Co  Co10      1.0  0.05450  0.61700  0.50000  1.0000
  Co  Co11      1.0  0.86700  0.76500  0.50000  1.0000
  Co  Co12      1.0  0.56200  0.94500  0.50000  1.0000
  P   P1        1.0  0.00000  0.00000  0.00000  1.0000
  P   P2        1.0  0.70700  0.11800  0.00000  1.0000
  P   P3        1.0  0.41100  0.29300  0.00000  1.0000
  P   P4        1.0  0.88200  0.58900  0.00000  1.0000
  P   P5        1.0  0.11700  0.40800  0.50000  1.0000
  P   P6        1.0  0.59200  0.70900  0.50000  1.0000
  P   P7        1.0  0.29100  0.88300  0.50000  1.0000
  Sc  Sc1       1.0  0.33300  0.66700  0.00000  1.0000
  Sc  Sc2       1.0  0.66700  0.33300  0.50000  1.0000
