data_image0
_chemical_formula_structural       Co6Er4Ge10
_chemical_formula_sum              "Co6 Er4 Ge10"
_cell_length_a       5.71281
_cell_length_b       8.05699
_cell_length_c       8.05699
_cell_angle_alpha    93.4646
_cell_angle_beta     109.586
_cell_angle_gamma    109.586

_space_group_name_H-M_alt    "P 1"
_space_group_IT_number       1

loop_
  _space_group_symop_operation_xyz
  'x, y, z'

loop_
  _atom_site_type_symbol
  _atom_site_label
  _atom_site_symmetry_multiplicity
  _atom_site_fract_x
  _atom_site_fract_y
  _atom_site_fract_z
  _atom_site_occupancy
  Co  Co1       1.0  0.25000  0.99700  0.00306  1.0000
  Co  Co2       1.0  0.38200  0.54100  0.26000  1.0000
  Co  Co3       1.0  0.11800  0.74000  0.45900  1.0000
  Co  Co4       1.0  0.88200  0.26000  0.54100  1.0000
  Co  Co5       1.0  0.61800  0.45900  0.74000  1.0000
  Co  Co6       1.0  0.75000  0.00306  0.99700  1.0000
  Er  Er1       1.0  0.76800  0.40800  0.12800  1.0000
  Er  Er2       1.0  0.26800  0.12800  0.40800  1.0000
  Er  Er3       1.0  0.73200  0.87200  0.59200  1.0000
  Er  Er4       1.0  0.23200  0.59200  0.87200  1.0000
  Ge  Ge1       1.0  0.17200  0.26100  0.07810  1.0000
  Ge  Ge2       1.0  0.25000  0.78500  0.21500  1.0000
  Ge  Ge3       1.0  0.75000  0.77300  0.22700  1.0000
  Ge  Ge4       1.0  0.67200  0.07810  0.26100  1.0000
  Ge  Ge5       1.0  0.75000  0.50800  0.49200  1.0000
  Ge  Ge6       1.0  0.25000  0.49200  0.50800  1.0000
  Ge  Ge7       1.0  0.32800  0.92200  0.73900  1.0000
  Ge  Ge8       1.0  0.25000  0.22700  0.77300  1.0000
  Ge  Ge9       1.0  0.75000  0.21500  0.78500  1.0000
  Ge  Ge10      1.0  0.82800  0.73900  0.92200  1.0000
