data_image0
_chemical_formula_structural       Co2Na12S8
_chemical_formula_sum              "Co2 Na12 S8"
_cell_length_a       8.87145
_cell_length_b       8.87146
_cell_length_c       6.86111
_cell_angle_alpha    90
_cell_angle_beta     90
_cell_angle_gamma    120

_space_group_name_H-M_alt    "P 1"
_space_group_IT_number       1

loop_
  _space_group_symop_operation_xyz
  'x, y, z'

loop_
  _atom_site_type_symbol
  _atom_site_label
  _atom_site_symmetry_multiplicity
  _atom_site_fract_x
  _atom_site_fract_y
  _atom_site_fract_z
  _atom_site_occupancy
  Co  Co1       1.0  0.33300  0.66700  0.25100  1.0000
  Co  Co2       1.0  0.66700  0.33300  0.75100  1.0000
  Na  Na1       1.0  0.29400  0.14700  0.03970  1.0000
  Na  Na2       1.0  0.85300  0.14700  0.03970  1.0000
  Na  Na3       1.0  0.85300  0.70600  0.03970  1.0000
  Na  Na4       1.0  0.53100  0.06210  0.36600  1.0000
  Na  Na5       1.0  0.53100  0.46900  0.36600  1.0000
  Na  Na6       1.0  0.93800  0.46900  0.36600  1.0000
  Na  Na7       1.0  0.14700  0.85300  0.54000  1.0000
  Na  Na8       1.0  0.70600  0.85300  0.54000  1.0000
  Na  Na9       1.0  0.14700  0.29400  0.54000  1.0000
  Na  Na10      1.0  0.46900  0.93800  0.86600  1.0000
  Na  Na11      1.0  0.06210  0.53100  0.86600  1.0000
  Na  Na12      1.0  0.46900  0.53100  0.86600  1.0000
  S   S1        1.0  0.66700  0.33300  0.08710  1.0000
  S   S2        1.0  0.19000  0.38000  0.14400  1.0000
  S   S3        1.0  0.19000  0.81000  0.14400  1.0000
  S   S4        1.0  0.62000  0.81000  0.14400  1.0000
  S   S5        1.0  0.33300  0.66700  0.58700  1.0000
  S   S6        1.0  0.81000  0.62000  0.64400  1.0000
  S   S7        1.0  0.38000  0.19000  0.64400  1.0000
  S   S8        1.0  0.81000  0.19000  0.64400  1.0000
