data_image0
_chemical_formula_structural       Co8Si12
_chemical_formula_sum              "Co8 Si12"
_cell_length_a       5.35344
_cell_length_b       5.35344
_cell_length_c       8.42655
_cell_angle_alpha    90
_cell_angle_beta     90
_cell_angle_gamma    90

_space_group_name_H-M_alt    "P 1"
_space_group_IT_number       1

loop_
  _space_group_symop_operation_xyz
  'x, y, z'

loop_
  _atom_site_type_symbol
  _atom_site_label
  _atom_site_symmetry_multiplicity
  _atom_site_fract_x
  _atom_site_fract_y
  _atom_site_fract_z
  _atom_site_occupancy
  Co  Co1       1.0  0.00000  0.00000  0.00000  1.0000
  Co  Co2       1.0  0.50000  0.00000  0.13000  1.0000
  Co  Co3       1.0  0.50000  0.50000  0.25000  1.0000
  Co  Co4       1.0  0.00000  0.50000  0.37000  1.0000
  Co  Co5       1.0  0.00000  0.00000  0.50000  1.0000
  Co  Co6       1.0  0.50000  0.00000  0.63000  1.0000
  Co  Co7       1.0  0.50000  0.50000  0.75000  1.0000
  Co  Co8       1.0  0.00000  0.50000  0.87000  1.0000
  Si  Si1       1.0  0.20500  0.34800  0.09060  1.0000
  Si  Si2       1.0  0.79500  0.65200  0.09060  1.0000
  Si  Si3       1.0  0.82900  0.17100  0.25000  1.0000
  Si  Si4       1.0  0.17100  0.82900  0.25000  1.0000
  Si  Si5       1.0  0.34800  0.20500  0.40900  1.0000
  Si  Si6       1.0  0.65200  0.79500  0.40900  1.0000
  Si  Si7       1.0  0.79500  0.34800  0.59100  1.0000
  Si  Si8       1.0  0.20500  0.65200  0.59100  1.0000
  Si  Si9       1.0  0.17100  0.17100  0.75000  1.0000
  Si  Si10      1.0  0.82900  0.82900  0.75000  1.0000
  Si  Si11      1.0  0.65200  0.20500  0.90900  1.0000
  Si  Si12      1.0  0.34800  0.79500  0.90900  1.0000
