data_image0
_chemical_formula_structural       Co6Ho4Si10
_chemical_formula_sum              "Co6 Ho4 Si10"
_cell_length_a       5.50117
_cell_length_b       7.84838
_cell_length_c       7.84838
_cell_angle_alpha    105.602
_cell_angle_beta     110.516
_cell_angle_gamma    69.4842

_space_group_name_H-M_alt    "P 1"
_space_group_IT_number       1

loop_
  _space_group_symop_operation_xyz
  'x, y, z'

loop_
  _atom_site_type_symbol
  _atom_site_label
  _atom_site_symmetry_multiplicity
  _atom_site_fract_x
  _atom_site_fract_y
  _atom_site_fract_z
  _atom_site_occupancy
  Co  Co1       1.0  0.25000  0.00000  0.00000  1.0000
  Co  Co2       1.0  0.75000  0.00000  0.00000  1.0000
  Co  Co3       1.0  0.36100  0.53100  0.25400  1.0000
  Co  Co4       1.0  0.86100  0.74600  0.46900  1.0000
  Co  Co5       1.0  0.13900  0.25400  0.53100  1.0000
  Co  Co6       1.0  0.63900  0.46900  0.74600  1.0000
  Ho  Ho1       1.0  0.86600  0.40100  0.13300  1.0000
  Ho  Ho2       1.0  0.63400  0.13300  0.40100  1.0000
  Ho  Ho3       1.0  0.36600  0.86700  0.59900  1.0000
  Ho  Ho4       1.0  0.13400  0.59900  0.86700  1.0000
  Si  Si1       1.0  0.40000  0.25900  0.05940  1.0000
  Si  Si2       1.0  0.47500  0.77500  0.22500  1.0000
  Si  Si3       1.0  0.97500  0.77500  0.22500  1.0000
  Si  Si4       1.0  0.10000  0.05940  0.25900  1.0000
  Si  Si5       1.0  0.25000  0.50000  0.50000  1.0000
  Si  Si6       1.0  0.75000  0.50000  0.50000  1.0000
  Si  Si7       1.0  0.90000  0.94100  0.74100  1.0000
  Si  Si8       1.0  0.02480  0.22500  0.77500  1.0000
  Si  Si9       1.0  0.52500  0.22500  0.77500  1.0000
  Si  Si10      1.0  0.60000  0.74100  0.94100  1.0000
