data_image0
_chemical_formula_structural       Co4Er10Te4
_chemical_formula_sum              "Co4 Er10 Te4"
_cell_length_a       3.91173
_cell_length_b       7.71977
_cell_length_c       14.9339
_cell_angle_alpha    90
_cell_angle_beta     90
_cell_angle_gamma    75.3237

_space_group_name_H-M_alt    "P 1"
_space_group_IT_number       1

loop_
  _space_group_symop_operation_xyz
  'x, y, z'

loop_
  _atom_site_type_symbol
  _atom_site_label
  _atom_site_symmetry_multiplicity
  _atom_site_fract_x
  _atom_site_fract_y
  _atom_site_fract_z
  _atom_site_occupancy
  Co  Co1       1.0  0.18100  0.63900  0.25000  1.0000
  Co  Co2       1.0  0.58800  0.82400  0.25000  1.0000
  Co  Co3       1.0  0.41200  0.17600  0.75000  1.0000
  Co  Co4       1.0  0.81900  0.36100  0.75000  1.0000
  Er  Er1       1.0  0.03840  0.92300  0.12700  1.0000
  Er  Er2       1.0  0.74100  0.51700  0.13100  1.0000
  Er  Er3       1.0  0.39300  0.21300  0.25000  1.0000
  Er  Er4       1.0  0.74100  0.51700  0.36900  1.0000
  Er  Er5       1.0  0.03840  0.92300  0.37300  1.0000
  Er  Er6       1.0  0.96200  0.07680  0.62700  1.0000
  Er  Er7       1.0  0.25900  0.48300  0.63100  1.0000
  Er  Er8       1.0  0.60700  0.78700  0.75000  1.0000
  Er  Er9       1.0  0.25900  0.48300  0.86900  1.0000
  Er  Er10      1.0  0.96200  0.07680  0.87300  1.0000
  Te  Te1       1.0  0.38200  0.23600  0.03800  1.0000
  Te  Te2       1.0  0.38200  0.23600  0.46200  1.0000
  Te  Te3       1.0  0.61800  0.76400  0.53800  1.0000
  Te  Te4       1.0  0.61800  0.76400  0.96200  1.0000
