data_image0
_chemical_formula_structural       Co2La4O12Ti2
_chemical_formula_sum              "Co2 La4 O12 Ti2"
_cell_length_a       5.54367
_cell_length_b       5.61183
_cell_length_c       7.84831
_cell_angle_alpha    90
_cell_angle_beta     90.0688
_cell_angle_gamma    90

_space_group_name_H-M_alt    "P 1"
_space_group_IT_number       1

loop_
  _space_group_symop_operation_xyz
  'x, y, z'

loop_
  _atom_site_type_symbol
  _atom_site_label
  _atom_site_symmetry_multiplicity
  _atom_site_fract_x
  _atom_site_fract_y
  _atom_site_fract_z
  _atom_site_occupancy
  Co  Co1       1.0  0.00000  0.50000  0.00000  1.0000
  Co  Co2       1.0  0.50000  0.00000  0.50000  1.0000
  La  La1       1.0  0.99200  0.03710  0.25000  1.0000
  La  La2       1.0  0.50800  0.53700  0.25000  1.0000
  La  La3       1.0  0.49200  0.46300  0.75000  1.0000
  La  La4       1.0  0.00841  0.96300  0.75000  1.0000
  O   O1        1.0  0.78100  0.79500  0.04410  1.0000
  O   O2        1.0  0.70400  0.28100  0.04680  1.0000
  O   O3        1.0  0.41500  0.97700  0.24300  1.0000
  O   O4        1.0  0.08490  0.47700  0.25700  1.0000
  O   O5        1.0  0.79600  0.78100  0.45300  1.0000
  O   O6        1.0  0.71900  0.29500  0.45600  1.0000
  O   O7        1.0  0.28100  0.70500  0.54400  1.0000
  O   O8        1.0  0.20400  0.21900  0.54700  1.0000
  O   O9        1.0  0.91500  0.52300  0.74300  1.0000
  O   O10       1.0  0.58500  0.02260  0.75700  1.0000
  O   O11       1.0  0.29600  0.71900  0.95300  1.0000
  O   O12       1.0  0.21900  0.20500  0.95600  1.0000
  Ti  Ti1       1.0  0.50000  0.00000  0.00000  1.0000
  Ti  Ti2       1.0  0.00000  0.50000  0.50000  1.0000
