data_image0
_chemical_formula_structural       Co6Ge10Nd4
_chemical_formula_sum              "Co6 Ge10 Nd4"
_cell_length_a       5.84856
_cell_length_b       8.23079
_cell_length_c       8.22969
_cell_angle_alpha    93.1212
_cell_angle_beta     110.008
_cell_angle_gamma    110.013

_space_group_name_H-M_alt    "P 1"
_space_group_IT_number       1

loop_
  _space_group_symop_operation_xyz
  'x, y, z'

loop_
  _atom_site_type_symbol
  _atom_site_label
  _atom_site_symmetry_multiplicity
  _atom_site_fract_x
  _atom_site_fract_y
  _atom_site_fract_z
  _atom_site_occupancy
  Co  Co1       1.0  0.25000  0.99700  0.00332  1.0000
  Co  Co2       1.0  0.38300  0.53700  0.26100  1.0000
  Co  Co3       1.0  0.11700  0.74000  0.46200  1.0000
  Co  Co4       1.0  0.88300  0.26000  0.53800  1.0000
  Co  Co5       1.0  0.61700  0.46300  0.74000  1.0000
  Co  Co6       1.0  0.75000  0.00331  0.99700  1.0000
  Ge  Ge1       1.0  0.16700  0.25900  0.06890  1.0000
  Ge  Ge2       1.0  0.25000  0.78000  0.22000  1.0000
  Ge  Ge3       1.0  0.75100  0.77000  0.23000  1.0000
  Ge  Ge4       1.0  0.66700  0.06940  0.25800  1.0000
  Ge  Ge5       1.0  0.75000  0.50600  0.49400  1.0000
  Ge  Ge6       1.0  0.25100  0.49400  0.50700  1.0000
  Ge  Ge7       1.0  0.33200  0.93000  0.74100  1.0000
  Ge  Ge8       1.0  0.25000  0.23000  0.77000  1.0000
  Ge  Ge9       1.0  0.75100  0.22000  0.78000  1.0000
  Ge  Ge10      1.0  0.83200  0.74100  0.93100  1.0000
  Nd  Nd1       1.0  0.76600  0.40300  0.12900  1.0000
  Nd  Nd2       1.0  0.26600  0.12900  0.40300  1.0000
  Nd  Nd3       1.0  0.73400  0.87100  0.59700  1.0000
  Nd  Nd4       1.0  0.23400  0.59700  0.87000  1.0000
