data_image0
_chemical_formula_structural       Co2K12Se8
_chemical_formula_sum              "Co2 K12 Se8"
_cell_length_a       10.2107
_cell_length_b       10.2108
_cell_length_c       7.92564
_cell_angle_alpha    90
_cell_angle_beta     90
_cell_angle_gamma    120

_space_group_name_H-M_alt    "P 1"
_space_group_IT_number       1

loop_
  _space_group_symop_operation_xyz
  'x, y, z'

loop_
  _atom_site_type_symbol
  _atom_site_label
  _atom_site_symmetry_multiplicity
  _atom_site_fract_x
  _atom_site_fract_y
  _atom_site_fract_z
  _atom_site_occupancy
  Co  Co1       1.0  0.33300  0.66700  0.25100  1.0000
  Co  Co2       1.0  0.66700  0.33300  0.75100  1.0000
  K   K1        1.0  0.85300  0.70600  0.04700  1.0000
  K   K2        1.0  0.29400  0.14700  0.04700  1.0000
  K   K3        1.0  0.85300  0.14700  0.04700  1.0000
  K   K4        1.0  0.52700  0.05420  0.36600  1.0000
  K   K5        1.0  0.52700  0.47300  0.36600  1.0000
  K   K6        1.0  0.94600  0.47300  0.36600  1.0000
  K   K7        1.0  0.14700  0.29400  0.54700  1.0000
  K   K8        1.0  0.14700  0.85300  0.54700  1.0000
  K   K9        1.0  0.70600  0.85300  0.54700  1.0000
  K   K10       1.0  0.47300  0.94600  0.86600  1.0000
  K   K11       1.0  0.05410  0.52700  0.86600  1.0000
  K   K12       1.0  0.47300  0.52700  0.86600  1.0000
  Se  Se1       1.0  0.66700  0.33300  0.06460  1.0000
  Se  Se2       1.0  0.19900  0.39800  0.15200  1.0000
  Se  Se3       1.0  0.19900  0.80100  0.15200  1.0000
  Se  Se4       1.0  0.60200  0.80100  0.15200  1.0000
  Se  Se5       1.0  0.33300  0.66700  0.56500  1.0000
  Se  Se6       1.0  0.80100  0.60200  0.65200  1.0000
  Se  Se7       1.0  0.39800  0.19900  0.65200  1.0000
  Se  Se8       1.0  0.80100  0.19900  0.65200  1.0000
