data_image0
_chemical_formula_structural       Cl2CoH12O6
_chemical_formula_sum              "Cl2 Co1 H12 O6"
_cell_length_a       6.12779
_cell_length_b       6.12779
_cell_length_c       6.36713
_cell_angle_alpha    116.569
_cell_angle_beta     63.4306
_cell_angle_gamma    112.283

_space_group_name_H-M_alt    "P 1"
_space_group_IT_number       1

loop_
  _space_group_symop_operation_xyz
  'x, y, z'

loop_
  _atom_site_type_symbol
  _atom_site_label
  _atom_site_symmetry_multiplicity
  _atom_site_fract_x
  _atom_site_fract_y
  _atom_site_fract_z
  _atom_site_occupancy
  Cl  Cl1       1.0  0.71900  0.28100  0.17300  1.0000
  Cl  Cl2       1.0  0.28100  0.71900  0.82700  1.0000
  Co  Co1       1.0  0.00000  0.00000  0.00000  1.0000
  H   H1        1.0  0.26800  0.73200  0.15900  1.0000
  H   H2        1.0  0.33400  0.21600  0.23600  1.0000
  H   H3        1.0  0.78400  0.66600  0.23600  1.0000
  H   H4        1.0  0.20400  0.42300  0.28500  1.0000
  H   H5        1.0  0.57700  0.79600  0.28500  1.0000
  H   H6        1.0  0.17800  0.82200  0.45700  1.0000
  H   H7        1.0  0.82200  0.17800  0.54300  1.0000
  H   H8        1.0  0.42300  0.20400  0.71500  1.0000
  H   H9        1.0  0.79600  0.57700  0.71500  1.0000
  H   H10       1.0  0.21600  0.33400  0.76400  1.0000
  H   H11       1.0  0.66600  0.78400  0.76400  1.0000
  H   H12       1.0  0.73200  0.26800  0.84100  1.0000
  O   O1        1.0  0.17200  0.24100  0.26200  1.0000
  O   O2        1.0  0.75900  0.82800  0.26200  1.0000
  O   O3        1.0  0.28300  0.71700  0.30200  1.0000
  O   O4        1.0  0.71700  0.28300  0.69800  1.0000
  O   O5        1.0  0.24100  0.17200  0.73800  1.0000
  O   O6        1.0  0.82800  0.75900  0.73800  1.0000
