data_image0
_chemical_formula_structural       Co6Si10Tm4
_chemical_formula_sum              "Co6 Si10 Tm4"
_cell_length_a       5.48205
_cell_length_b       7.80855
_cell_length_c       7.80855
_cell_angle_alpha    89.0375
_cell_angle_beta     69.4497
_cell_angle_gamma    110.55

_space_group_name_H-M_alt    "P 1"
_space_group_IT_number       1

loop_
  _space_group_symop_operation_xyz
  'x, y, z'

loop_
  _atom_site_type_symbol
  _atom_site_label
  _atom_site_symmetry_multiplicity
  _atom_site_fract_x
  _atom_site_fract_y
  _atom_site_fract_z
  _atom_site_occupancy
  Co  Co1       1.0  0.25000  0.00000  0.00000  1.0000
  Co  Co2       1.0  0.75000  0.00000  0.00000  1.0000
  Co  Co3       1.0  0.60900  0.47100  0.25200  1.0000
  Co  Co4       1.0  0.89100  0.25200  0.47100  1.0000
  Co  Co5       1.0  0.10900  0.74800  0.52900  1.0000
  Co  Co6       1.0  0.39100  0.52900  0.74800  1.0000
  Si  Si1       1.0  0.84000  0.74100  0.06010  1.0000
  Si  Si2       1.0  0.25000  0.22600  0.22600  1.0000
  Si  Si3       1.0  0.75000  0.22600  0.22600  1.0000
  Si  Si4       1.0  0.34000  0.94000  0.25900  1.0000
  Si  Si5       1.0  0.25000  0.50000  0.50000  1.0000
  Si  Si6       1.0  0.75000  0.50000  0.50000  1.0000
  Si  Si7       1.0  0.66000  0.06010  0.74100  1.0000
  Si  Si8       1.0  0.25000  0.77400  0.77400  1.0000
  Si  Si9       1.0  0.75000  0.77400  0.77400  1.0000
  Si  Si10      1.0  0.16000  0.25900  0.94000  1.0000
  Tm  Tm1       1.0  0.23300  0.59800  0.13200  1.0000
  Tm  Tm2       1.0  0.73300  0.86800  0.40200  1.0000
  Tm  Tm3       1.0  0.26700  0.13200  0.59800  1.0000
  Tm  Tm4       1.0  0.76700  0.40200  0.86800  1.0000
