data_image0
_chemical_formula_structural       Co2Sn12Yb6
_chemical_formula_sum              "Co2 Sn12 Yb6"
_cell_length_a       8.32846
_cell_length_b       4.72081
_cell_length_c       13.3005
_cell_angle_alpha    90
_cell_angle_beta     90
_cell_angle_gamma    106.464

_space_group_name_H-M_alt    "P 1"
_space_group_IT_number       1

loop_
  _space_group_symop_operation_xyz
  'x, y, z'

loop_
  _atom_site_type_symbol
  _atom_site_label
  _atom_site_symmetry_multiplicity
  _atom_site_fract_x
  _atom_site_fract_y
  _atom_site_fract_z
  _atom_site_occupancy
  Co  Co1       1.0  0.58900  0.29400  0.25000  1.0000
  Co  Co2       1.0  0.41100  0.70600  0.75000  1.0000
  Sn  Sn1       1.0  0.49100  0.24500  0.07070  1.0000
  Sn  Sn2       1.0  0.14600  0.57300  0.07720  1.0000
  Sn  Sn3       1.0  0.90700  0.45400  0.25000  1.0000
  Sn  Sn4       1.0  0.46300  0.73100  0.25000  1.0000
  Sn  Sn5       1.0  0.14600  0.57300  0.42300  1.0000
  Sn  Sn6       1.0  0.49100  0.24500  0.42900  1.0000
  Sn  Sn7       1.0  0.50900  0.75500  0.57100  1.0000
  Sn  Sn8       1.0  0.85400  0.42700  0.57700  1.0000
  Sn  Sn9       1.0  0.53700  0.26900  0.75000  1.0000
  Sn  Sn10      1.0  0.09260  0.54600  0.75000  1.0000
  Sn  Sn11      1.0  0.85400  0.42700  0.92300  1.0000
  Sn  Sn12      1.0  0.50900  0.75500  0.92900  1.0000
  Yb  Yb1       1.0  0.80400  0.90200  0.09760  1.0000
  Yb  Yb2       1.0  0.19600  0.09820  0.25000  1.0000
  Yb  Yb3       1.0  0.80400  0.90200  0.40200  1.0000
  Yb  Yb4       1.0  0.19600  0.09800  0.59800  1.0000
  Yb  Yb5       1.0  0.80400  0.90200  0.75000  1.0000
  Yb  Yb6       1.0  0.19600  0.09800  0.90200  1.0000
