data_image0
_chemical_formula_structural       Cl4Co2H12N4
_chemical_formula_sum              "Cl4 Co2 H12 N4"
_cell_length_a       6.68608
_cell_length_b       6.68608
_cell_length_c       6.68608
_cell_angle_alpha    107.287
_cell_angle_beta     113.089
_cell_angle_gamma    108.1

_space_group_name_H-M_alt    "P 1"
_space_group_IT_number       1

loop_
  _space_group_symop_operation_xyz
  'x, y, z'

loop_
  _atom_site_type_symbol
  _atom_site_label
  _atom_site_symmetry_multiplicity
  _atom_site_fract_x
  _atom_site_fract_y
  _atom_site_fract_z
  _atom_site_occupancy
  Cl  Cl1       1.0  0.79400  0.78500  0.00840  1.0000
  Cl  Cl2       1.0  0.27700  0.78500  0.49200  1.0000
  Cl  Cl3       1.0  0.72300  0.21500  0.50800  1.0000
  Cl  Cl4       1.0  0.20600  0.21500  0.99200  1.0000
  Co  Co1       1.0  0.25700  0.00670  0.25000  1.0000
  Co  Co2       1.0  0.74300  0.99300  0.75000  1.0000
  H   H1        1.0  0.44100  0.77300  0.05270  1.0000
  H   H2        1.0  0.85200  0.42100  0.06860  1.0000
  H   H3        1.0  0.77900  0.22700  0.16800  1.0000
  H   H4        1.0  0.55900  0.61100  0.33200  1.0000
  H   H5        1.0  0.85200  0.78400  0.43100  1.0000
  H   H6        1.0  0.22100  0.38900  0.44700  1.0000
  H   H7        1.0  0.77900  0.61100  0.55300  1.0000
  H   H8        1.0  0.14800  0.21600  0.56900  1.0000
  H   H9        1.0  0.44100  0.38900  0.66800  1.0000
  H   H10       1.0  0.22100  0.77300  0.83200  1.0000
  H   H11       1.0  0.14800  0.57900  0.93100  1.0000
  H   H12       1.0  0.55900  0.22700  0.94700  1.0000
  N   N1        1.0  0.73500  0.24600  0.01160  1.0000
  N   N2        1.0  0.73500  0.72300  0.48800  1.0000
  N   N3        1.0  0.26500  0.27700  0.51200  1.0000
  N   N4        1.0  0.26500  0.75400  0.98800  1.0000
