data_image0
_chemical_formula_structural       Co6Th14
_chemical_formula_sum              "Co6 Th14"
_cell_length_a       9.73804
_cell_length_b       9.7383
_cell_length_c       6.16217
_cell_angle_alpha    90
_cell_angle_beta     90
_cell_angle_gamma    119.999

_space_group_name_H-M_alt    "P 1"
_space_group_IT_number       1

loop_
  _space_group_symop_operation_xyz
  'x, y, z'

loop_
  _atom_site_type_symbol
  _atom_site_label
  _atom_site_symmetry_multiplicity
  _atom_site_fract_x
  _atom_site_fract_y
  _atom_site_fract_z
  _atom_site_occupancy
  Co  Co1       1.0  0.37000  0.18500  0.29900  1.0000
  Co  Co2       1.0  0.81500  0.18500  0.29900  1.0000
  Co  Co3       1.0  0.81500  0.63000  0.29900  1.0000
  Co  Co4       1.0  0.18500  0.37000  0.79900  1.0000
  Co  Co5       1.0  0.18500  0.81500  0.79900  1.0000
  Co  Co6       1.0  0.63000  0.81500  0.79900  1.0000
  Th  Th1       1.0  0.33300  0.66700  0.04590  1.0000
  Th  Th2       1.0  0.54400  0.45600  0.04980  1.0000
  Th  Th3       1.0  0.91200  0.45600  0.04980  1.0000
  Th  Th4       1.0  0.54400  0.08810  0.04980  1.0000
  Th  Th5       1.0  0.12600  0.87400  0.24600  1.0000
  Th  Th6       1.0  0.74800  0.87400  0.24600  1.0000
  Th  Th7       1.0  0.12600  0.25200  0.24600  1.0000
  Th  Th8       1.0  0.66700  0.33300  0.54600  1.0000
  Th  Th9       1.0  0.08810  0.54400  0.55000  1.0000
  Th  Th10      1.0  0.45600  0.54400  0.55000  1.0000
  Th  Th11      1.0  0.45600  0.91200  0.55000  1.0000
  Th  Th12      1.0  0.25200  0.12600  0.74600  1.0000
  Th  Th13      1.0  0.87400  0.12600  0.74600  1.0000
  Th  Th14      1.0  0.87400  0.74800  0.74600  1.0000
