data_image0
_chemical_formula_structural       CoI12Pr7
_chemical_formula_sum              "Co1 I12 Pr7"
_cell_length_a       10.0396
_cell_length_b       10.0396
_cell_length_c       10.0396
_cell_angle_alpha    107.256
_cell_angle_beta     107.256
_cell_angle_gamma    107.256

_space_group_name_H-M_alt    "P 1"
_space_group_IT_number       1

loop_
  _space_group_symop_operation_xyz
  'x, y, z'

loop_
  _atom_site_type_symbol
  _atom_site_label
  _atom_site_symmetry_multiplicity
  _atom_site_fract_x
  _atom_site_fract_y
  _atom_site_fract_z
  _atom_site_occupancy
  Co  Co1       1.0  0.00000  0.00000  0.00000  1.0000
  I   I1        1.0  0.68300  0.22800  0.07500  1.0000
  I   I2        1.0  0.39100  0.47100  0.15700  1.0000
  I   I3        1.0  0.07500  0.68300  0.22800  1.0000
  I   I4        1.0  0.77200  0.92500  0.31700  1.0000
  I   I5        1.0  0.47100  0.15700  0.39100  1.0000
  I   I6        1.0  0.15700  0.39100  0.47100  1.0000
  I   I7        1.0  0.84300  0.60900  0.52900  1.0000
  I   I8        1.0  0.52900  0.84300  0.60900  1.0000
  I   I9        1.0  0.22800  0.07500  0.68300  1.0000
  I   I10       1.0  0.92500  0.31700  0.77200  1.0000
  I   I11       1.0  0.60900  0.52900  0.84300  1.0000
  I   I12       1.0  0.31700  0.77200  0.92500  1.0000
  Pr  Pr1       1.0  0.30100  0.09960  0.02930  1.0000
  Pr  Pr2       1.0  0.02930  0.30100  0.09960  1.0000
  Pr  Pr3       1.0  0.09960  0.02930  0.30100  1.0000
  Pr  Pr4       1.0  0.50000  0.50000  0.50000  1.0000
  Pr  Pr5       1.0  0.90000  0.97100  0.69900  1.0000
  Pr  Pr6       1.0  0.97100  0.69900  0.90000  1.0000
  Pr  Pr7       1.0  0.69900  0.90000  0.97100  1.0000
