data_image0
_chemical_formula_structural       B4Co6O12
_chemical_formula_sum              "B4 Co6 O12"
_cell_length_a       4.5298
_cell_length_b       5.4199
_cell_length_c       8.43378
_cell_angle_alpha    90
_cell_angle_beta     90
_cell_angle_gamma    90

_space_group_name_H-M_alt    "P 1"
_space_group_IT_number       1

loop_
  _space_group_symop_operation_xyz
  'x, y, z'

loop_
  _atom_site_type_symbol
  _atom_site_label
  _atom_site_symmetry_multiplicity
  _atom_site_fract_x
  _atom_site_fract_y
  _atom_site_fract_z
  _atom_site_occupancy
  B   B1        1.0  0.54400  0.25700  0.00000  1.0000
  B   B2        1.0  0.45600  0.74300  0.00000  1.0000
  B   B3        1.0  0.04430  0.24300  0.50000  1.0000
  B   B4        1.0  0.95600  0.75700  0.50000  1.0000
  Co  Co1       1.0  0.00000  0.00000  0.00000  1.0000
  Co  Co2       1.0  0.00000  0.50000  0.18800  1.0000
  Co  Co3       1.0  0.50000  0.00000  0.31200  1.0000
  Co  Co4       1.0  0.50000  0.50000  0.50000  1.0000
  Co  Co5       1.0  0.50000  0.00000  0.68800  1.0000
  Co  Co6       1.0  0.00000  0.50000  0.81200  1.0000
  O   O1        1.0  0.25000  0.32000  0.00000  1.0000
  O   O2        1.0  0.75000  0.68000  0.00000  1.0000
  O   O3        1.0  0.70100  0.20900  0.13900  1.0000
  O   O4        1.0  0.29900  0.79100  0.13900  1.0000
  O   O5        1.0  0.20100  0.29100  0.36100  1.0000
  O   O6        1.0  0.79900  0.70900  0.36100  1.0000
  O   O7        1.0  0.75000  0.18000  0.50000  1.0000
  O   O8        1.0  0.25000  0.82000  0.50000  1.0000
  O   O9        1.0  0.20100  0.29100  0.63900  1.0000
  O   O10       1.0  0.79900  0.70900  0.63900  1.0000
  O   O11       1.0  0.70100  0.20900  0.86100  1.0000
  O   O12       1.0  0.29900  0.79100  0.86100  1.0000
