data_image0
_chemical_formula_structural       I12La6LiOs
_chemical_formula_sum              "I12 La6 Li1 Os1"
_cell_length_a       9.83692
_cell_length_b       9.83692
_cell_length_c       9.83692
_cell_angle_alpha    107.256
_cell_angle_beta     107.256
_cell_angle_gamma    107.256

_space_group_name_H-M_alt    "P 1"
_space_group_IT_number       1

loop_
  _space_group_symop_operation_xyz
  'x, y, z'

loop_
  _atom_site_type_symbol
  _atom_site_label
  _atom_site_symmetry_multiplicity
  _atom_site_fract_x
  _atom_site_fract_y
  _atom_site_fract_z
  _atom_site_occupancy
  I   I1        1.0  0.13500  0.30100  0.01690  1.0000
  I   I2        1.0  0.51000  0.74100  0.07260  1.0000
  I   I3        1.0  0.30100  0.01690  0.13500  1.0000
  I   I4        1.0  0.92700  0.49000  0.25900  1.0000
  I   I5        1.0  0.01690  0.13500  0.30100  1.0000
  I   I6        1.0  0.25900  0.92700  0.49000  1.0000
  I   I7        1.0  0.74100  0.07260  0.51000  1.0000
  I   I8        1.0  0.98300  0.86500  0.69900  1.0000
  I   I9        1.0  0.07260  0.51000  0.74100  1.0000
  I   I10       1.0  0.69900  0.98300  0.86500  1.0000
  I   I11       1.0  0.49000  0.25900  0.92700  1.0000
  I   I12       1.0  0.86500  0.69900  0.98300  1.0000
  La  La1       1.0  0.19000  0.67200  0.14000  1.0000
  La  La2       1.0  0.67200  0.14000  0.19000  1.0000
  La  La3       1.0  0.86000  0.81000  0.32800  1.0000
  La  La4       1.0  0.14000  0.19000  0.67200  1.0000
  La  La5       1.0  0.32800  0.86000  0.81000  1.0000
  La  La6       1.0  0.81000  0.32800  0.86000  1.0000
  Li  Li1       1.0  0.50000  0.50000  0.50000  1.0000
  Os  Os1       1.0  0.00000  0.00000  0.00000  1.0000
