data_image0
_chemical_formula_structural       Ba4Co2Ir2O12
_chemical_formula_sum              "Ba4 Co2 Ir2 O12"
_cell_length_a       5.71918
_cell_length_b       5.71918
_cell_length_c       10.0358
_cell_angle_alpha    106.555
_cell_angle_beta     106.555
_cell_angle_gamma    60

_space_group_name_H-M_alt    "P 1"
_space_group_IT_number       1

loop_
  _space_group_symop_operation_xyz
  'x, y, z'

loop_
  _atom_site_type_symbol
  _atom_site_label
  _atom_site_symmetry_multiplicity
  _atom_site_fract_x
  _atom_site_fract_y
  _atom_site_fract_z
  _atom_site_occupancy
  Ba  Ba1       1.0  0.71200  0.71200  0.13500  1.0000
  Ba  Ba2       1.0  0.12900  0.12900  0.38600  1.0000
  Ba  Ba3       1.0  0.87100  0.87100  0.61400  1.0000
  Ba  Ba4       1.0  0.28800  0.28800  0.86500  1.0000
  Co  Co1       1.0  0.00000  0.00000  0.00000  1.0000
  Co  Co2       1.0  0.50000  0.50000  0.50000  1.0000
  Ir  Ir1       1.0  0.41100  0.41100  0.23200  1.0000
  Ir  Ir2       1.0  0.58900  0.58900  0.76800  1.0000
  O   O1        1.0  0.20800  0.20800  0.12000  1.0000
  O   O2        1.0  0.70300  0.20800  0.12000  1.0000
  O   O3        1.0  0.20800  0.70300  0.12000  1.0000
  O   O4        1.0  0.60900  0.15300  0.37200  1.0000
  O   O5        1.0  0.60900  0.60900  0.37200  1.0000
  O   O6        1.0  0.15300  0.60900  0.37200  1.0000
  O   O7        1.0  0.84700  0.39100  0.62800  1.0000
  O   O8        1.0  0.39100  0.39100  0.62800  1.0000
  O   O9        1.0  0.39100  0.84700  0.62800  1.0000
  O   O10       1.0  0.79200  0.29700  0.88000  1.0000
  O   O11       1.0  0.29700  0.79200  0.88000  1.0000
  O   O12       1.0  0.79200  0.79200  0.88000  1.0000
