data_image0
_chemical_formula_structural       Ce4Co6Ge10
_chemical_formula_sum              "Ce4 Co6 Ge10"
_cell_length_a       5.97226
_cell_length_b       8.31533
_cell_length_c       8.31533
_cell_angle_alpha    91.933
_cell_angle_beta     111.046
_cell_angle_gamma    111.046

_space_group_name_H-M_alt    "P 1"
_space_group_IT_number       1

loop_
  _space_group_symop_operation_xyz
  'x, y, z'

loop_
  _atom_site_type_symbol
  _atom_site_label
  _atom_site_symmetry_multiplicity
  _atom_site_fract_x
  _atom_site_fract_y
  _atom_site_fract_z
  _atom_site_occupancy
  Ce  Ce1       1.0  0.75900  0.39200  0.12600  1.0000
  Ce  Ce2       1.0  0.25900  0.12600  0.39200  1.0000
  Ce  Ce3       1.0  0.74100  0.87400  0.60800  1.0000
  Ce  Ce4       1.0  0.24100  0.60800  0.87400  1.0000
  Co  Co1       1.0  0.25000  0.00000  0.00000  1.0000
  Co  Co2       1.0  0.75000  0.00000  0.00000  1.0000
  Co  Co3       1.0  0.38800  0.52200  0.25400  1.0000
  Co  Co4       1.0  0.11200  0.74600  0.47800  1.0000
  Co  Co5       1.0  0.88800  0.25400  0.52200  1.0000
  Co  Co6       1.0  0.61200  0.47800  0.74600  1.0000
  Ge  Ge1       1.0  0.15100  0.25200  0.05140  1.0000
  Ge  Ge2       1.0  0.25000  0.75900  0.24100  1.0000
  Ge  Ge3       1.0  0.75000  0.75900  0.24100  1.0000
  Ge  Ge4       1.0  0.65100  0.05140  0.25200  1.0000
  Ge  Ge5       1.0  0.25000  0.50000  0.50000  1.0000
  Ge  Ge6       1.0  0.75000  0.50000  0.50000  1.0000
  Ge  Ge7       1.0  0.34900  0.94900  0.74800  1.0000
  Ge  Ge8       1.0  0.25000  0.24100  0.75900  1.0000
  Ge  Ge9       1.0  0.75000  0.24100  0.75900  1.0000
  Ge  Ge10      1.0  0.84900  0.74800  0.94900  1.0000
