data_image0
_chemical_formula_structural       CoH4K2O10Se2
_chemical_formula_sum              "Co1 H4 K2 O10 Se2"
_cell_length_a       6.40424
_cell_length_b       7.25669
_cell_length_c       5.51406
_cell_angle_alpha    96.9063
_cell_angle_beta     105.431
_cell_angle_gamma    110.087

_space_group_name_H-M_alt    "P 1"
_space_group_IT_number       1

loop_
  _space_group_symop_operation_xyz
  'x, y, z'

loop_
  _atom_site_type_symbol
  _atom_site_label
  _atom_site_symmetry_multiplicity
  _atom_site_fract_x
  _atom_site_fract_y
  _atom_site_fract_z
  _atom_site_occupancy
  Co  Co1       1.0  0.00000  0.00000  0.00000  1.0000
  H   H1        1.0  0.98900  0.68400  0.14000  1.0000
  H   H2        1.0  0.15100  0.39400  0.15200  1.0000
  H   H3        1.0  0.84900  0.60600  0.84800  1.0000
  H   H4        1.0  0.01060  0.31600  0.86000  1.0000
  K   K1        1.0  0.67900  0.26100  0.28200  1.0000
  K   K2        1.0  0.32100  0.73900  0.71800  1.0000
  O   O1        1.0  0.00000  0.29100  0.03120  1.0000
  O   O2        1.0  0.71800  0.90900  0.13700  1.0000
  O   O3        1.0  0.41900  0.60400  0.26600  1.0000
  O   O4        1.0  0.25700  0.06760  0.36300  1.0000
  O   O5        1.0  0.88600  0.66200  0.39900  1.0000
  O   O6        1.0  0.11400  0.33800  0.60100  1.0000
  O   O7        1.0  0.74300  0.93200  0.63700  1.0000
  O   O8        1.0  0.58100  0.39600  0.73400  1.0000
  O   O9        1.0  0.28200  0.09100  0.86300  1.0000
  O   O10       1.0  0.00000  0.70900  0.96900  1.0000
  Se  Se1       1.0  0.69300  0.77200  0.36200  1.0000
  Se  Se2       1.0  0.30700  0.22800  0.63800  1.0000
