data_image0
_chemical_formula_structural       Co12Eu2P7
_chemical_formula_sum              "Co12 Eu2 P7"
_cell_length_a       9.03632
_cell_length_b       9.03652
_cell_length_c       3.57126
_cell_angle_alpha    90
_cell_angle_beta     90
_cell_angle_gamma    119.994

_space_group_name_H-M_alt    "P 1"
_space_group_IT_number       1

loop_
  _space_group_symop_operation_xyz
  'x, y, z'

loop_
  _atom_site_type_symbol
  _atom_site_label
  _atom_site_symmetry_multiplicity
  _atom_site_fract_x
  _atom_site_fract_y
  _atom_site_fract_z
  _atom_site_occupancy
  Co  Co1       1.0  0.43400  0.05800  0.00000  1.0000
  Co  Co2       1.0  0.15100  0.27100  0.00000  1.0000
  Co  Co3       1.0  0.94200  0.37600  0.00000  1.0000
  Co  Co4       1.0  0.62400  0.56600  0.00000  1.0000
  Co  Co5       1.0  0.12000  0.84900  0.00000  1.0000
  Co  Co6       1.0  0.72900  0.88000  0.00000  1.0000
  Co  Co7       1.0  0.23400  0.10400  0.50000  1.0000
  Co  Co8       1.0  0.89600  0.13000  0.50000  1.0000
  Co  Co9       1.0  0.38200  0.43400  0.50000  1.0000
  Co  Co10      1.0  0.05140  0.61800  0.50000  1.0000
  Co  Co11      1.0  0.87000  0.76600  0.50000  1.0000
  Co  Co12      1.0  0.56600  0.94900  0.50000  1.0000
  Eu  Eu1       1.0  0.33300  0.66700  0.00000  1.0000
  Eu  Eu2       1.0  0.66700  0.33300  0.50000  1.0000
  P   P1        1.0  0.00000  0.00000  0.00000  1.0000
  P   P2        1.0  0.70700  0.11000  0.00000  1.0000
  P   P3        1.0  0.40300  0.29300  0.00000  1.0000
  P   P4        1.0  0.89000  0.59700  0.00000  1.0000
  P   P5        1.0  0.10700  0.39900  0.50000  1.0000
  P   P6        1.0  0.60100  0.70800  0.50000  1.0000
  P   P7        1.0  0.29200  0.89300  0.50000  1.0000
