data_image0
_chemical_formula_structural       Co6Si10U4
_chemical_formula_sum              "Co6 Si10 U4"
_cell_length_a       5.57132
_cell_length_b       7.80877
_cell_length_c       7.80877
_cell_angle_alpha    89.8069
_cell_angle_beta     110.9
_cell_angle_gamma    110.9

_space_group_name_H-M_alt    "P 1"
_space_group_IT_number       1

loop_
  _space_group_symop_operation_xyz
  'x, y, z'

loop_
  _atom_site_type_symbol
  _atom_site_label
  _atom_site_symmetry_multiplicity
  _atom_site_fract_x
  _atom_site_fract_y
  _atom_site_fract_z
  _atom_site_occupancy
  Co  Co1       1.0  0.25000  0.00000  0.00000  1.0000
  Co  Co2       1.0  0.75000  0.00000  0.00000  1.0000
  Co  Co3       1.0  0.38600  0.52400  0.24700  1.0000
  Co  Co4       1.0  0.11400  0.75300  0.47600  1.0000
  Co  Co5       1.0  0.88600  0.24700  0.52400  1.0000
  Co  Co6       1.0  0.61400  0.47600  0.75300  1.0000
  Si  Si1       1.0  0.15300  0.25600  0.05070  1.0000
  Si  Si2       1.0  0.25000  0.77100  0.22900  1.0000
  Si  Si3       1.0  0.75000  0.77100  0.22900  1.0000
  Si  Si4       1.0  0.65300  0.05070  0.25600  1.0000
  Si  Si5       1.0  0.25000  0.50000  0.50000  1.0000
  Si  Si6       1.0  0.75000  0.50000  0.50000  1.0000
  Si  Si7       1.0  0.34700  0.94900  0.74400  1.0000
  Si  Si8       1.0  0.25000  0.22900  0.77100  1.0000
  Si  Si9       1.0  0.75000  0.22900  0.77100  1.0000
  Si  Si10      1.0  0.84700  0.74400  0.94900  1.0000
  U   U1        1.0  0.76600  0.40200  0.13100  1.0000
  U   U2        1.0  0.26600  0.13100  0.40200  1.0000
  U   U3        1.0  0.73400  0.86900  0.59800  1.0000
  U   U4        1.0  0.23400  0.59800  0.86900  1.0000
