data_image0
_chemical_formula_structural       Co6Gd4Ge10
_chemical_formula_sum              "Co6 Gd4 Ge10"
_cell_length_a       5.76988
_cell_length_b       8.11558
_cell_length_c       8.11558
_cell_angle_alpha    93.3258
_cell_angle_beta     109.788
_cell_angle_gamma    109.788

_space_group_name_H-M_alt    "P 1"
_space_group_IT_number       1

loop_
  _space_group_symop_operation_xyz
  'x, y, z'

loop_
  _atom_site_type_symbol
  _atom_site_label
  _atom_site_symmetry_multiplicity
  _atom_site_fract_x
  _atom_site_fract_y
  _atom_site_fract_z
  _atom_site_occupancy
  Co  Co1       1.0  0.25000  0.99600  0.00389  1.0000
  Co  Co2       1.0  0.38100  0.53900  0.26000  1.0000
  Co  Co3       1.0  0.11900  0.74000  0.46100  1.0000
  Co  Co4       1.0  0.88100  0.26000  0.53900  1.0000
  Co  Co5       1.0  0.61900  0.46100  0.74000  1.0000
  Co  Co6       1.0  0.75000  0.00389  0.99600  1.0000
  Gd  Gd1       1.0  0.76700  0.40500  0.12800  1.0000
  Gd  Gd2       1.0  0.26700  0.12800  0.40500  1.0000
  Gd  Gd3       1.0  0.73300  0.87200  0.59500  1.0000
  Gd  Gd4       1.0  0.23300  0.59500  0.87200  1.0000
  Ge  Ge1       1.0  0.17100  0.26000  0.07420  1.0000
  Ge  Ge2       1.0  0.25000  0.78200  0.21800  1.0000
  Ge  Ge3       1.0  0.75000  0.77100  0.22900  1.0000
  Ge  Ge4       1.0  0.67100  0.07420  0.26000  1.0000
  Ge  Ge5       1.0  0.75000  0.50800  0.49200  1.0000
  Ge  Ge6       1.0  0.25000  0.49200  0.50800  1.0000
  Ge  Ge7       1.0  0.32900  0.92600  0.74000  1.0000
  Ge  Ge8       1.0  0.25000  0.22900  0.77100  1.0000
  Ge  Ge9       1.0  0.75000  0.21800  0.78200  1.0000
  Ge  Ge10      1.0  0.82900  0.74000  0.92600  1.0000
