data_image0
_chemical_formula_structural       Co4GaY4
_chemical_formula_sum              "Co4 Ga1 Y4"
_cell_length_a       4.07058
_cell_length_b       5.47997
_cell_length_c       8.89758
_cell_angle_alpha    108.845
_cell_angle_beta     90
_cell_angle_gamma    111.802

_space_group_name_H-M_alt    "P 1"
_space_group_IT_number       1

loop_
  _space_group_symop_operation_xyz
  'x, y, z'

loop_
  _atom_site_type_symbol
  _atom_site_label
  _atom_site_symmetry_multiplicity
  _atom_site_fract_x
  _atom_site_fract_y
  _atom_site_fract_z
  _atom_site_occupancy
  Co  Co1       1.0  0.09020  0.18000  0.12000  1.0000
  Co  Co2       1.0  0.03720  0.07450  0.35400  1.0000
  Co  Co3       1.0  0.96300  0.92600  0.64600  1.0000
  Co  Co4       1.0  0.91000  0.82000  0.88000  1.0000
  Ga  Ga1       1.0  0.50000  0.00000  0.50000  1.0000
  Y   Y1        1.0  0.39100  0.78100  0.11500  1.0000
  Y   Y2        1.0  0.74600  0.49100  0.33900  1.0000
  Y   Y3        1.0  0.25400  0.50900  0.66100  1.0000
  Y   Y4        1.0  0.60900  0.21900  0.88500  1.0000
