data_image0
_chemical_formula_structural       Co2O12Pr4Pt2
_chemical_formula_sum              "Co2 O12 Pr4 Pt2"
_cell_length_a       5.48036
_cell_length_b       5.76891
_cell_length_c       7.82221
_cell_angle_alpha    90
_cell_angle_beta     89.9701
_cell_angle_gamma    90

_space_group_name_H-M_alt    "P 1"
_space_group_IT_number       1

loop_
  _space_group_symop_operation_xyz
  'x, y, z'

loop_
  _atom_site_type_symbol
  _atom_site_label
  _atom_site_symmetry_multiplicity
  _atom_site_fract_x
  _atom_site_fract_y
  _atom_site_fract_z
  _atom_site_occupancy
  Co  Co1       1.0  0.50000  0.00000  0.00000  1.0000
  Co  Co2       1.0  0.00000  0.50000  0.50000  1.0000
  O   O1        1.0  0.69800  0.30100  0.04950  1.0000
  O   O2        1.0  0.80500  0.79500  0.05100  1.0000
  O   O3        1.0  0.40200  0.97100  0.24900  1.0000
  O   O4        1.0  0.09820  0.47100  0.25100  1.0000
  O   O5        1.0  0.69500  0.29500  0.44900  1.0000
  O   O6        1.0  0.80200  0.80100  0.45000  1.0000
  O   O7        1.0  0.19800  0.19900  0.55000  1.0000
  O   O8        1.0  0.30500  0.70500  0.55100  1.0000
  O   O9        1.0  0.90200  0.52900  0.74900  1.0000
  O   O10       1.0  0.59800  0.02890  0.75100  1.0000
  O   O11       1.0  0.19500  0.20500  0.94900  1.0000
  O   O12       1.0  0.30200  0.69900  0.95000  1.0000
  Pr  Pr1       1.0  0.98200  0.06260  0.25000  1.0000
  Pr  Pr2       1.0  0.51800  0.56300  0.25000  1.0000
  Pr  Pr3       1.0  0.48200  0.43700  0.75000  1.0000
  Pr  Pr4       1.0  0.01760  0.93700  0.75000  1.0000
  Pt  Pt1       1.0  0.00000  0.50000  0.00000  1.0000
  Pt  Pt2       1.0  0.50000  0.00000  0.50000  1.0000
