data_image0
_chemical_formula_structural       Co4Gd12
_chemical_formula_sum              "Co4 Gd12"
_cell_length_a       6.97334
_cell_length_b       9.56252
_cell_length_c       6.27127
_cell_angle_alpha    90
_cell_angle_beta     90
_cell_angle_gamma    90

_space_group_name_H-M_alt    "P 1"
_space_group_IT_number       1

loop_
  _space_group_symop_operation_xyz
  'x, y, z'

loop_
  _atom_site_type_symbol
  _atom_site_label
  _atom_site_symmetry_multiplicity
  _atom_site_fract_x
  _atom_site_fract_y
  _atom_site_fract_z
  _atom_site_occupancy
  Co  Co1       1.0  0.88700  0.25000  0.05230  1.0000
  Co  Co2       1.0  0.38700  0.25000  0.44800  1.0000
  Co  Co3       1.0  0.61300  0.75000  0.55200  1.0000
  Co  Co4       1.0  0.11300  0.75000  0.94800  1.0000
  Gd  Gd1       1.0  0.45600  0.75000  0.14400  1.0000
  Gd  Gd2       1.0  0.17400  0.06840  0.17600  1.0000
  Gd  Gd3       1.0  0.17400  0.43200  0.17600  1.0000
  Gd  Gd4       1.0  0.67400  0.06840  0.32400  1.0000
  Gd  Gd5       1.0  0.67400  0.43200  0.32400  1.0000
  Gd  Gd6       1.0  0.95600  0.75000  0.35600  1.0000
  Gd  Gd7       1.0  0.04380  0.25000  0.64400  1.0000
  Gd  Gd8       1.0  0.32600  0.56800  0.67600  1.0000
  Gd  Gd9       1.0  0.32600  0.93200  0.67600  1.0000
  Gd  Gd10      1.0  0.82600  0.56800  0.82400  1.0000
  Gd  Gd11      1.0  0.82600  0.93200  0.82400  1.0000
  Gd  Gd12      1.0  0.54400  0.25000  0.85600  1.0000
