data_image0
_chemical_formula_structural       Co2La4O12Pt2
_chemical_formula_sum              "Co2 La4 O12 Pt2"
_cell_length_a       5.5624
_cell_length_b       5.70518
_cell_length_c       7.88943
_cell_angle_alpha    90
_cell_angle_beta     90.0342
_cell_angle_gamma    90

_space_group_name_H-M_alt    "P 1"
_space_group_IT_number       1

loop_
  _space_group_symop_operation_xyz
  'x, y, z'

loop_
  _atom_site_type_symbol
  _atom_site_label
  _atom_site_symmetry_multiplicity
  _atom_site_fract_x
  _atom_site_fract_y
  _atom_site_fract_z
  _atom_site_occupancy
  Co  Co1       1.0  0.50000  0.00000  0.00000  1.0000
  Co  Co2       1.0  0.00000  0.50000  0.50000  1.0000
  La  La1       1.0  0.98800  0.04980  0.25000  1.0000
  La  La2       1.0  0.51200  0.55000  0.25000  1.0000
  La  La3       1.0  0.48800  0.45000  0.75000  1.0000
  La  La4       1.0  0.01240  0.95000  0.75000  1.0000
  O   O1        1.0  0.70300  0.29700  0.04760  1.0000
  O   O2        1.0  0.79800  0.79200  0.05010  1.0000
  O   O3        1.0  0.09260  0.47400  0.25000  1.0000
  O   O4        1.0  0.40700  0.97400  0.25000  1.0000
  O   O5        1.0  0.70200  0.29200  0.45000  1.0000
  O   O6        1.0  0.79700  0.79700  0.45200  1.0000
  O   O7        1.0  0.20300  0.20300  0.54800  1.0000
  O   O8        1.0  0.29800  0.70800  0.55000  1.0000
  O   O9        1.0  0.59300  0.02640  0.75000  1.0000
  O   O10       1.0  0.90700  0.52600  0.75000  1.0000
  O   O11       1.0  0.20200  0.20800  0.95000  1.0000
  O   O12       1.0  0.29700  0.70300  0.95200  1.0000
  Pt  Pt1       1.0  0.00000  0.50000  0.00000  1.0000
  Pt  Pt2       1.0  0.50000  0.00000  0.50000  1.0000
