data_image0
_chemical_formula_structural       CoGd7I12
_chemical_formula_sum              "Co1 Gd7 I12"
_cell_length_a       9.79857
_cell_length_b       9.79857
_cell_length_c       9.79857
_cell_angle_alpha    106.78
_cell_angle_beta     106.78
_cell_angle_gamma    106.78

_space_group_name_H-M_alt    "P 1"
_space_group_IT_number       1

loop_
  _space_group_symop_operation_xyz
  'x, y, z'

loop_
  _atom_site_type_symbol
  _atom_site_label
  _atom_site_symmetry_multiplicity
  _atom_site_fract_x
  _atom_site_fract_y
  _atom_site_fract_z
  _atom_site_occupancy
  Co  Co1       1.0  0.00000  0.00000  0.00000  1.0000
  Gd  Gd1       1.0  0.29000  0.09260  0.02130  1.0000
  Gd  Gd2       1.0  0.02130  0.29000  0.09260  1.0000
  Gd  Gd3       1.0  0.09260  0.02130  0.29000  1.0000
  Gd  Gd4       1.0  0.50000  0.50000  0.50000  1.0000
  Gd  Gd5       1.0  0.90700  0.97900  0.71000  1.0000
  Gd  Gd6       1.0  0.97900  0.71000  0.90700  1.0000
  Gd  Gd7       1.0  0.71000  0.90700  0.97900  1.0000
  I   I1        1.0  0.67700  0.22500  0.07140  1.0000
  I   I2        1.0  0.38500  0.46300  0.16000  1.0000
  I   I3        1.0  0.07140  0.67700  0.22500  1.0000
  I   I4        1.0  0.77500  0.92900  0.32300  1.0000
  I   I5        1.0  0.46300  0.16000  0.38500  1.0000
  I   I6        1.0  0.16000  0.38500  0.46300  1.0000
  I   I7        1.0  0.84000  0.61500  0.53700  1.0000
  I   I8        1.0  0.53700  0.84000  0.61500  1.0000
  I   I9        1.0  0.22500  0.07140  0.67700  1.0000
  I   I10       1.0  0.92900  0.32300  0.77500  1.0000
  I   I11       1.0  0.61500  0.53700  0.84000  1.0000
  I   I12       1.0  0.32300  0.77500  0.92900  1.0000
