data_image0
_chemical_formula_structural       Co12P7Pr2
_chemical_formula_sum              "Co12 P7 Pr2"
_cell_length_a       9.07938
_cell_length_b       9.07988
_cell_length_c       3.63914
_cell_angle_alpha    90
_cell_angle_beta     90
_cell_angle_gamma    120.002

_space_group_name_H-M_alt    "P 1"
_space_group_IT_number       1

loop_
  _space_group_symop_operation_xyz
  'x, y, z'

loop_
  _atom_site_type_symbol
  _atom_site_label
  _atom_site_symmetry_multiplicity
  _atom_site_fract_x
  _atom_site_fract_y
  _atom_site_fract_z
  _atom_site_occupancy
  Co  Co1       1.0  0.43000  0.05840  0.00000  1.0000
  Co  Co2       1.0  0.15100  0.27000  0.00000  1.0000
  Co  Co3       1.0  0.94200  0.37200  0.00000  1.0000
  Co  Co4       1.0  0.62800  0.57000  0.00000  1.0000
  Co  Co5       1.0  0.11900  0.84900  0.00000  1.0000
  Co  Co6       1.0  0.73000  0.88100  0.00000  1.0000
  Co  Co7       1.0  0.22500  0.09960  0.50000  1.0000
  Co  Co8       1.0  0.90000  0.12500  0.50000  1.0000
  Co  Co9       1.0  0.38100  0.43100  0.50000  1.0000
  Co  Co10      1.0  0.04970  0.61900  0.50000  1.0000
  Co  Co11      1.0  0.87500  0.77500  0.50000  1.0000
  Co  Co12      1.0  0.56900  0.95000  0.50000  1.0000
  P   P1        1.0  0.00000  0.00000  0.00000  1.0000
  P   P2        1.0  0.70400  0.10700  0.00000  1.0000
  P   P3        1.0  0.40200  0.29600  0.00000  1.0000
  P   P4        1.0  0.89300  0.59800  0.00000  1.0000
  P   P5        1.0  0.10400  0.39600  0.50000  1.0000
  P   P6        1.0  0.60400  0.70800  0.50000  1.0000
  P   P7        1.0  0.29200  0.89600  0.50000  1.0000
  Pr  Pr1       1.0  0.33300  0.66700  0.00000  1.0000
  Pr  Pr2       1.0  0.66700  0.33300  0.50000  1.0000
