data_image0
_chemical_formula_structural       Co2H4K2O10P2
_chemical_formula_sum              "Co2 H4 K2 O10 P2"
_cell_length_a       5.56023
_cell_length_b       7.83491
_cell_length_c       5.18779
_cell_angle_alpha    90
_cell_angle_beta     90
_cell_angle_gamma    90

_space_group_name_H-M_alt    "P 1"
_space_group_IT_number       1

loop_
  _space_group_symop_operation_xyz
  'x, y, z'

loop_
  _atom_site_type_symbol
  _atom_site_label
  _atom_site_symmetry_multiplicity
  _atom_site_fract_x
  _atom_site_fract_y
  _atom_site_fract_z
  _atom_site_occupancy
  Co  Co1       1.0  0.50000  0.06050  0.32500  1.0000
  Co  Co2       1.0  0.00000  0.93900  0.82500  1.0000
  H   H1        1.0  0.14500  0.78900  0.22300  1.0000
  H   H2        1.0  0.85500  0.78900  0.22300  1.0000
  H   H3        1.0  0.35500  0.21100  0.72300  1.0000
  H   H4        1.0  0.64500  0.21100  0.72300  1.0000
  K   K1        1.0  0.50000  0.48900  0.11600  1.0000
  K   K2        1.0  0.00000  0.51100  0.61600  1.0000
  O   O1        1.0  0.00000  0.45800  0.10800  1.0000
  O   O2        1.0  0.00000  0.86000  0.21700  1.0000
  O   O3        1.0  0.22700  0.20500  0.27000  1.0000
  O   O4        1.0  0.77300  0.20500  0.27000  1.0000
  O   O5        1.0  0.50000  0.81200  0.34200  1.0000
  O   O6        1.0  0.50000  0.54200  0.60800  1.0000
  O   O7        1.0  0.50000  0.14000  0.71700  1.0000
  O   O8        1.0  0.27300  0.79500  0.77000  1.0000
  O   O9        1.0  0.72700  0.79500  0.77000  1.0000
  O   O10       1.0  0.00000  0.18800  0.84200  1.0000
  P   P1        1.0  0.00000  0.26400  0.12500  1.0000
  P   P2        1.0  0.50000  0.73600  0.62500  1.0000
