data_image0
_chemical_formula_structural       Co4Se12U4
_chemical_formula_sum              "Co4 Se12 U4"
_cell_length_a       7.18865
_cell_length_b       9.02034
_cell_length_c       6.15853
_cell_angle_alpha    90
_cell_angle_beta     90
_cell_angle_gamma    90

_space_group_name_H-M_alt    "P 1"
_space_group_IT_number       1

loop_
  _space_group_symop_operation_xyz
  'x, y, z'

loop_
  _atom_site_type_symbol
  _atom_site_label
  _atom_site_symmetry_multiplicity
  _atom_site_fract_x
  _atom_site_fract_y
  _atom_site_fract_z
  _atom_site_occupancy
  Co  Co1       1.0  0.00000  0.00000  0.00000  1.0000
  Co  Co2       1.0  0.00000  0.50000  0.00000  1.0000
  Co  Co3       1.0  0.50000  0.00000  0.50000  1.0000
  Co  Co4       1.0  0.50000  0.50000  0.50000  1.0000
  Se  Se1       1.0  0.96700  0.75000  0.14900  1.0000
  Se  Se2       1.0  0.67700  0.05040  0.15300  1.0000
  Se  Se3       1.0  0.67700  0.45000  0.15300  1.0000
  Se  Se4       1.0  0.17700  0.05040  0.34700  1.0000
  Se  Se5       1.0  0.17700  0.45000  0.34700  1.0000
  Se  Se6       1.0  0.46700  0.75000  0.35100  1.0000
  Se  Se7       1.0  0.53300  0.25000  0.64900  1.0000
  Se  Se8       1.0  0.82300  0.55000  0.65300  1.0000
  Se  Se9       1.0  0.82300  0.95000  0.65300  1.0000
  Se  Se10      1.0  0.32300  0.55000  0.84700  1.0000
  Se  Se11      1.0  0.32300  0.95000  0.84700  1.0000
  Se  Se12      1.0  0.03330  0.25000  0.85100  1.0000
  U   U1        1.0  0.36900  0.25000  0.07620  1.0000
  U   U2        1.0  0.86900  0.25000  0.42400  1.0000
  U   U3        1.0  0.13100  0.75000  0.57600  1.0000
  U   U4        1.0  0.63100  0.75000  0.92400  1.0000
