data_image0
_chemical_formula_structural       Co6Si10Y4
_chemical_formula_sum              "Co6 Si10 Y4"
_cell_length_a       5.53179
_cell_length_b       7.86587
_cell_length_c       7.86587
_cell_angle_alpha    91.2304
_cell_angle_beta     110.587
_cell_angle_gamma    110.587

_space_group_name_H-M_alt    "P 1"
_space_group_IT_number       1

loop_
  _space_group_symop_operation_xyz
  'x, y, z'

loop_
  _atom_site_type_symbol
  _atom_site_label
  _atom_site_symmetry_multiplicity
  _atom_site_fract_x
  _atom_site_fract_y
  _atom_site_fract_z
  _atom_site_occupancy
  Co  Co1       1.0  0.25000  0.00000  0.00000  1.0000
  Co  Co2       1.0  0.75000  0.00000  0.00000  1.0000
  Co  Co3       1.0  0.39200  0.52900  0.25400  1.0000
  Co  Co4       1.0  0.10800  0.74600  0.47100  1.0000
  Co  Co5       1.0  0.89200  0.25400  0.52900  1.0000
  Co  Co6       1.0  0.60800  0.47100  0.74600  1.0000
  Si  Si1       1.0  0.15800  0.25900  0.05710  1.0000
  Si  Si2       1.0  0.25000  0.77300  0.22700  1.0000
  Si  Si3       1.0  0.75000  0.77300  0.22700  1.0000
  Si  Si4       1.0  0.65800  0.05710  0.25900  1.0000
  Si  Si5       1.0  0.25000  0.50000  0.50000  1.0000
  Si  Si6       1.0  0.75000  0.50000  0.50000  1.0000
  Si  Si7       1.0  0.34200  0.94300  0.74100  1.0000
  Si  Si8       1.0  0.25000  0.22700  0.77300  1.0000
  Si  Si9       1.0  0.75000  0.22700  0.77300  1.0000
  Si  Si10      1.0  0.84200  0.74100  0.94300  1.0000
  Y   Y1        1.0  0.76600  0.40000  0.13200  1.0000
  Y   Y2        1.0  0.26600  0.13200  0.40000  1.0000
  Y   Y3        1.0  0.73400  0.86800  0.60000  1.0000
  Y   Y4        1.0  0.23400  0.60000  0.86800  1.0000
