data_image0
_chemical_formula_structural       As16Ge8
_chemical_formula_sum              "As16 Ge8"
_cell_length_a       15.3358
_cell_length_b       10.5362
_cell_length_c       3.77836
_cell_angle_alpha    90
_cell_angle_beta     90
_cell_angle_gamma    90

_space_group_name_H-M_alt    "P 1"
_space_group_IT_number       1

loop_
  _space_group_symop_operation_xyz
  'x, y, z'

loop_
  _atom_site_type_symbol
  _atom_site_label
  _atom_site_symmetry_multiplicity
  _atom_site_fract_x
  _atom_site_fract_y
  _atom_site_fract_z
  _atom_site_occupancy
  As  As1       1.0  0.79800  0.14800  0.00000  1.0000
  As  As2       1.0  0.04670  0.23100  0.00000  1.0000
  As  As3       1.0  0.54700  0.26900  0.00000  1.0000
  As  As4       1.0  0.29800  0.35200  0.00000  1.0000
  As  As5       1.0  0.70200  0.64800  0.00000  1.0000
  As  As6       1.0  0.45300  0.73100  0.00000  1.0000
  As  As7       1.0  0.95300  0.76900  0.00000  1.0000
  As  As8       1.0  0.20200  0.85200  0.00000  1.0000
  As  As9       1.0  0.39800  0.05970  0.50000  1.0000
  As  As10      1.0  0.11700  0.10900  0.50000  1.0000
  As  As11      1.0  0.61700  0.39100  0.50000  1.0000
  As  As12      1.0  0.89800  0.44000  0.50000  1.0000
  As  As13      1.0  0.10200  0.56000  0.50000  1.0000
  As  As14      1.0  0.38300  0.60900  0.50000  1.0000
  As  As15      1.0  0.88300  0.89100  0.50000  1.0000
  As  As16      1.0  0.60200  0.94000  0.50000  1.0000
  Ge  Ge1       1.0  0.64400  0.07960  0.00000  1.0000
  Ge  Ge2       1.0  0.14400  0.42000  0.00000  1.0000
  Ge  Ge3       1.0  0.85600  0.58000  0.00000  1.0000
  Ge  Ge4       1.0  0.35600  0.92000  0.00000  1.0000
  Ge  Ge5       1.0  0.27000  0.20500  0.50000  1.0000
  Ge  Ge6       1.0  0.77000  0.29500  0.50000  1.0000
  Ge  Ge7       1.0  0.23000  0.70500  0.50000  1.0000
  Ge  Ge8       1.0  0.73000  0.79500  0.50000  1.0000
