data_image0
_chemical_formula_structural       K4O14P2Sb3
_chemical_formula_sum              "K4 O14 P2 Sb3"
_cell_length_a       7.24491
_cell_length_b       7.24491
_cell_length_c       9.49218
_cell_angle_alpha    112.434
_cell_angle_beta     67.5656
_cell_angle_gamma    120

_space_group_name_H-M_alt    "P 1"
_space_group_IT_number       1

loop_
  _space_group_symop_operation_xyz
  'x, y, z'

loop_
  _atom_site_type_symbol
  _atom_site_label
  _atom_site_symmetry_multiplicity
  _atom_site_fract_x
  _atom_site_fract_y
  _atom_site_fract_z
  _atom_site_occupancy
  K   K1        1.0  0.92700  0.07290  0.21900  1.0000
  K   K2        1.0  0.56000  0.44000  0.32100  1.0000
  K   K3        1.0  0.44000  0.56000  0.67900  1.0000
  K   K4        1.0  0.07290  0.92700  0.78100  1.0000
  O   O1        1.0  0.77700  0.62100  0.06710  1.0000
  O   O2        1.0  0.37900  0.22300  0.06710  1.0000
  O   O3        1.0  0.77700  0.22300  0.06710  1.0000
  O   O4        1.0  0.37100  0.98000  0.23800  1.0000
  O   O5        1.0  0.01980  0.62900  0.23800  1.0000
  O   O6        1.0  0.37100  0.62900  0.23800  1.0000
  O   O7        1.0  0.17300  0.82700  0.48200  1.0000
  O   O8        1.0  0.82700  0.17300  0.51800  1.0000
  O   O9        1.0  0.62900  0.37100  0.76200  1.0000
  O   O10       1.0  0.98000  0.37100  0.76200  1.0000
  O   O11       1.0  0.62900  0.01980  0.76200  1.0000
  O   O12       1.0  0.22300  0.77700  0.93300  1.0000
  O   O13       1.0  0.62100  0.77700  0.93300  1.0000
  O   O14       1.0  0.22300  0.37900  0.93300  1.0000
  P   P1        1.0  0.23100  0.76900  0.30700  1.0000
  P   P2        1.0  0.76900  0.23100  0.69300  1.0000
  Sb  Sb1       1.0  0.50000  0.00000  0.00000  1.0000
  Sb  Sb2       1.0  0.50000  0.50000  0.00000  1.0000
  Sb  Sb3       1.0  0.00000  0.50000  0.00000  1.0000
