data_image0
_chemical_formula_structural       Cs4F8O8P4
_chemical_formula_sum              "Cs4 F8 O8 P4"
_cell_length_a       8.10786
_cell_length_b       6.61891
_cell_length_c       7.73482
_cell_angle_alpha    90
_cell_angle_beta     90
_cell_angle_gamma    90

_space_group_name_H-M_alt    "P 1"
_space_group_IT_number       1

loop_
  _space_group_symop_operation_xyz
  'x, y, z'

loop_
  _atom_site_type_symbol
  _atom_site_label
  _atom_site_symmetry_multiplicity
  _atom_site_fract_x
  _atom_site_fract_y
  _atom_site_fract_z
  _atom_site_occupancy
  Cs  Cs1       1.0  0.13600  0.25000  0.14300  1.0000
  Cs  Cs2       1.0  0.63600  0.25000  0.35700  1.0000
  Cs  Cs3       1.0  0.36400  0.75000  0.64300  1.0000
  Cs  Cs4       1.0  0.86400  0.75000  0.85700  1.0000
  F   F1        1.0  0.24200  0.75000  0.04250  1.0000
  F   F2        1.0  0.53500  0.75000  0.04610  1.0000
  F   F3        1.0  0.03520  0.75000  0.45400  1.0000
  F   F4        1.0  0.74200  0.75000  0.45800  1.0000
  F   F5        1.0  0.25800  0.25000  0.54200  1.0000
  F   F6        1.0  0.96500  0.25000  0.54600  1.0000
  F   F7        1.0  0.46500  0.25000  0.95400  1.0000
  F   F8        1.0  0.75800  0.25000  0.95800  1.0000
  O   O1        1.0  0.88500  0.55300  0.22600  1.0000
  O   O2        1.0  0.88500  0.94700  0.22600  1.0000
  O   O3        1.0  0.38500  0.55300  0.27400  1.0000
  O   O4        1.0  0.38500  0.94700  0.27400  1.0000
  O   O5        1.0  0.61500  0.05330  0.72600  1.0000
  O   O6        1.0  0.61500  0.44700  0.72600  1.0000
  O   O7        1.0  0.11500  0.05330  0.77400  1.0000
  O   O8        1.0  0.11500  0.44700  0.77400  1.0000
  P   P1        1.0  0.38700  0.75000  0.18200  1.0000
  P   P2        1.0  0.88700  0.75000  0.31800  1.0000
  P   P3        1.0  0.11300  0.25000  0.68200  1.0000
  P   P4        1.0  0.61300  0.25000  0.81800  1.0000
