data_image0
_chemical_formula_structural       F16Fe4Na4
_chemical_formula_sum              "F16 Fe4 Na4"
_cell_length_a       7.46071
_cell_length_b       5.19951
_cell_length_c       7.34977
_cell_angle_alpha    90
_cell_angle_beta     100.211
_cell_angle_gamma    90

_space_group_name_H-M_alt    "P 1"
_space_group_IT_number       1

loop_
  _space_group_symop_operation_xyz
  'x, y, z'

loop_
  _atom_site_type_symbol
  _atom_site_label
  _atom_site_symmetry_multiplicity
  _atom_site_fract_x
  _atom_site_fract_y
  _atom_site_fract_z
  _atom_site_occupancy
  F   F1        1.0  0.16000  0.11900  0.05690  1.0000
  F   F2        1.0  0.68000  0.48700  0.11300  1.0000
  F   F3        1.0  0.61300  0.97300  0.17700  1.0000
  F   F4        1.0  0.05740  0.59000  0.18900  1.0000
  F   F5        1.0  0.94300  0.09000  0.31100  1.0000
  F   F6        1.0  0.38700  0.47300  0.32300  1.0000
  F   F7        1.0  0.32000  0.98700  0.38700  1.0000
  F   F8        1.0  0.84000  0.61900  0.44300  1.0000
  F   F9        1.0  0.16000  0.38100  0.55700  1.0000
  F   F10       1.0  0.68000  0.01320  0.61300  1.0000
  F   F11       1.0  0.61300  0.52700  0.67700  1.0000
  F   F12       1.0  0.05740  0.91000  0.68900  1.0000
  F   F13       1.0  0.94300  0.41000  0.81100  1.0000
  F   F14       1.0  0.38700  0.02710  0.82300  1.0000
  F   F15       1.0  0.32000  0.51300  0.88700  1.0000
  F   F16       1.0  0.84000  0.88100  0.94300  1.0000
  Fe  Fe1       1.0  0.82600  0.76900  0.19400  1.0000
  Fe  Fe2       1.0  0.17400  0.26900  0.30600  1.0000
  Fe  Fe3       1.0  0.82600  0.73100  0.69400  1.0000
  Fe  Fe4       1.0  0.17400  0.23100  0.80600  1.0000
  Na  Na1       1.0  0.35000  0.78000  0.11300  1.0000
  Na  Na2       1.0  0.65000  0.28000  0.38700  1.0000
  Na  Na3       1.0  0.35000  0.72000  0.61300  1.0000
  Na  Na4       1.0  0.65000  0.22000  0.88700  1.0000
