data_image0
_chemical_formula_structural       Co4P12Pr
_chemical_formula_sum              "Co4 P12 Pr1"
_cell_length_a       6.7532
_cell_length_b       6.7532
_cell_length_c       6.7532
_cell_angle_alpha    109.471
_cell_angle_beta     109.471
_cell_angle_gamma    109.471

_space_group_name_H-M_alt    "P 1"
_space_group_IT_number       1

loop_
  _space_group_symop_operation_xyz
  'x, y, z'

loop_
  _atom_site_type_symbol
  _atom_site_label
  _atom_site_symmetry_multiplicity
  _atom_site_fract_x
  _atom_site_fract_y
  _atom_site_fract_z
  _atom_site_occupancy
  Co  Co1       1.0  0.50000  0.00000  0.00000  1.0000
  Co  Co2       1.0  0.00000  0.50000  0.00000  1.0000
  Co  Co3       1.0  0.00000  0.00000  0.50000  1.0000
  Co  Co4       1.0  0.50000  0.50000  0.50000  1.0000
  P   P1        1.0  0.50400  0.35500  0.15000  1.0000
  P   P2        1.0  0.79500  0.64500  0.15000  1.0000
  P   P3        1.0  0.35500  0.85000  0.20500  1.0000
  P   P4        1.0  0.15000  0.50400  0.35500  1.0000
  P   P5        1.0  0.85000  0.20500  0.35500  1.0000
  P   P6        1.0  0.64500  0.85000  0.49600  1.0000
  P   P7        1.0  0.35500  0.15000  0.50400  1.0000
  P   P8        1.0  0.85000  0.49600  0.64500  1.0000
  P   P9        1.0  0.15000  0.79500  0.64500  1.0000
  P   P10       1.0  0.64500  0.15000  0.79500  1.0000
  P   P11       1.0  0.20500  0.35500  0.85000  1.0000
  P   P12       1.0  0.49600  0.64500  0.85000  1.0000
  Pr  Pr1       1.0  0.00000  0.00000  0.00000  1.0000
