data_image0
_chemical_formula_structural       Co4NdP12
_chemical_formula_sum              "Co4 Nd1 P12"
_cell_length_a       6.74724
_cell_length_b       6.74724
_cell_length_c       6.74724
_cell_angle_alpha    109.471
_cell_angle_beta     109.471
_cell_angle_gamma    109.471

_space_group_name_H-M_alt    "P 1"
_space_group_IT_number       1

loop_
  _space_group_symop_operation_xyz
  'x, y, z'

loop_
  _atom_site_type_symbol
  _atom_site_label
  _atom_site_symmetry_multiplicity
  _atom_site_fract_x
  _atom_site_fract_y
  _atom_site_fract_z
  _atom_site_occupancy
  Co  Co1       1.0  0.50000  0.00000  0.00000  1.0000
  Co  Co2       1.0  0.00000  0.50000  0.00000  1.0000
  Co  Co3       1.0  0.00000  0.00000  0.50000  1.0000
  Co  Co4       1.0  0.50000  0.50000  0.50000  1.0000
  Nd  Nd1       1.0  0.00000  0.00000  0.00000  1.0000
  P   P1        1.0  0.35400  0.50300  0.14900  1.0000
  P   P2        1.0  0.64600  0.79500  0.14900  1.0000
  P   P3        1.0  0.85100  0.35400  0.20500  1.0000
  P   P4        1.0  0.20500  0.85100  0.35400  1.0000
  P   P5        1.0  0.50300  0.14900  0.35400  1.0000
  P   P6        1.0  0.85100  0.64600  0.49700  1.0000
  P   P7        1.0  0.14900  0.35400  0.50300  1.0000
  P   P8        1.0  0.79500  0.14900  0.64600  1.0000
  P   P9        1.0  0.49700  0.85100  0.64600  1.0000
  P   P10       1.0  0.14900  0.64600  0.79500  1.0000
  P   P11       1.0  0.35400  0.20500  0.85100  1.0000
  P   P12       1.0  0.64600  0.49700  0.85100  1.0000
