data_image0
_chemical_formula_structural       Cl8In8Te8
_chemical_formula_sum              "Cl8 In8 Te8"
_cell_length_a       7.65722
_cell_length_b       14.3369
_cell_length_c       7.27017
_cell_angle_alpha    90
_cell_angle_beta     93.055
_cell_angle_gamma    90

_space_group_name_H-M_alt    "P 1"
_space_group_IT_number       1

loop_
  _space_group_symop_operation_xyz
  'x, y, z'

loop_
  _atom_site_type_symbol
  _atom_site_label
  _atom_site_symmetry_multiplicity
  _atom_site_fract_x
  _atom_site_fract_y
  _atom_site_fract_z
  _atom_site_occupancy
  Cl  Cl1       1.0  0.93600  0.76500  0.01220  1.0000
  Cl  Cl2       1.0  0.60800  0.89800  0.22500  1.0000
  Cl  Cl3       1.0  0.39200  0.39800  0.27500  1.0000
  Cl  Cl4       1.0  0.06410  0.26500  0.48800  1.0000
  Cl  Cl5       1.0  0.93600  0.73500  0.51200  1.0000
  Cl  Cl6       1.0  0.60800  0.60200  0.72500  1.0000
  Cl  Cl7       1.0  0.39200  0.10200  0.77500  1.0000
  Cl  Cl8       1.0  0.06410  0.23500  0.98800  1.0000
  In  In1       1.0  0.81900  0.31200  0.12700  1.0000
  In  In2       1.0  0.79700  0.02370  0.13000  1.0000
  In  In3       1.0  0.20300  0.52400  0.37000  1.0000
  In  In4       1.0  0.18100  0.81200  0.37300  1.0000
  In  In5       1.0  0.81900  0.18800  0.62700  1.0000
  In  In6       1.0  0.79700  0.47600  0.63000  1.0000
  In  In7       1.0  0.20300  0.97600  0.87000  1.0000
  In  In8       1.0  0.18100  0.68800  0.87300  1.0000
  Te  Te1       1.0  0.39100  0.67200  0.22200  1.0000
  Te  Te2       1.0  0.84300  0.50000  0.24200  1.0000
  Te  Te3       1.0  0.15700  0.00000  0.25800  1.0000
  Te  Te4       1.0  0.60900  0.17200  0.27800  1.0000
  Te  Te5       1.0  0.39100  0.82800  0.72200  1.0000
  Te  Te6       1.0  0.84300  0.00000  0.74200  1.0000
  Te  Te7       1.0  0.15700  0.50000  0.75800  1.0000
  Te  Te8       1.0  0.60900  0.32800  0.77800  1.0000
