data_image0
_chemical_formula_structural       Co6Nd14
_chemical_formula_sum              "Co6 Nd14"
_cell_length_a       9.84432
_cell_length_b       9.844
_cell_length_c       6.34339
_cell_angle_alpha    90
_cell_angle_beta     90
_cell_angle_gamma    120.001

_space_group_name_H-M_alt    "P 1"
_space_group_IT_number       1

loop_
  _space_group_symop_operation_xyz
  'x, y, z'

loop_
  _atom_site_type_symbol
  _atom_site_label
  _atom_site_symmetry_multiplicity
  _atom_site_fract_x
  _atom_site_fract_y
  _atom_site_fract_z
  _atom_site_occupancy
  Co  Co1       1.0  0.81200  0.62500  0.29900  1.0000
  Co  Co2       1.0  0.37500  0.18800  0.29900  1.0000
  Co  Co3       1.0  0.81200  0.18800  0.29900  1.0000
  Co  Co4       1.0  0.18800  0.37500  0.79900  1.0000
  Co  Co5       1.0  0.18800  0.81200  0.79900  1.0000
  Co  Co6       1.0  0.62500  0.81200  0.79900  1.0000
  Nd  Nd1       1.0  0.33300  0.66700  0.01790  1.0000
  Nd  Nd2       1.0  0.54000  0.07920  0.05890  1.0000
  Nd  Nd3       1.0  0.54000  0.46000  0.05890  1.0000
  Nd  Nd4       1.0  0.92100  0.46000  0.05890  1.0000
  Nd  Nd5       1.0  0.12600  0.25100  0.24600  1.0000
  Nd  Nd6       1.0  0.12600  0.87400  0.24600  1.0000
  Nd  Nd7       1.0  0.74900  0.87400  0.24600  1.0000
  Nd  Nd8       1.0  0.66700  0.33300  0.51800  1.0000
  Nd  Nd9       1.0  0.46000  0.92100  0.55900  1.0000
  Nd  Nd10      1.0  0.07920  0.54000  0.55900  1.0000
  Nd  Nd11      1.0  0.46000  0.54000  0.55900  1.0000
  Nd  Nd12      1.0  0.87400  0.74900  0.74600  1.0000
  Nd  Nd13      1.0  0.25100  0.12600  0.74600  1.0000
  Nd  Nd14      1.0  0.87400  0.12600  0.74600  1.0000
