data_image0
_chemical_formula_structural       Br20Pa4
_chemical_formula_sum              "Br20 Pa4"
_cell_length_a       8.9505
_cell_length_b       11.8089
_cell_length_c       9.39815
_cell_angle_alpha    90
_cell_angle_beta     91.1885
_cell_angle_gamma    90

_space_group_name_H-M_alt    "P 1"
_space_group_IT_number       1

loop_
  _space_group_symop_operation_xyz
  'x, y, z'

loop_
  _atom_site_type_symbol
  _atom_site_label
  _atom_site_symmetry_multiplicity
  _atom_site_fract_x
  _atom_site_fract_y
  _atom_site_fract_z
  _atom_site_occupancy
  Br  Br1       1.0  0.66700  0.12300  0.06830  1.0000
  Br  Br2       1.0  0.63300  0.62600  0.07200  1.0000
  Br  Br3       1.0  0.96200  0.89000  0.13500  1.0000
  Br  Br4       1.0  0.95500  0.35900  0.13700  1.0000
  Br  Br5       1.0  0.23900  0.12800  0.23300  1.0000
  Br  Br6       1.0  0.26100  0.62800  0.26700  1.0000
  Br  Br7       1.0  0.54500  0.85900  0.36300  1.0000
  Br  Br8       1.0  0.53800  0.39000  0.36500  1.0000
  Br  Br9       1.0  0.86700  0.12600  0.42800  1.0000
  Br  Br10      1.0  0.83300  0.62300  0.43200  1.0000
  Br  Br11      1.0  0.16700  0.37700  0.56800  1.0000
  Br  Br12      1.0  0.13300  0.87400  0.57200  1.0000
  Br  Br13      1.0  0.46200  0.61000  0.63500  1.0000
  Br  Br14      1.0  0.45500  0.14100  0.63700  1.0000
  Br  Br15      1.0  0.73900  0.37200  0.73300  1.0000
  Br  Br16      1.0  0.76100  0.87200  0.76700  1.0000
  Br  Br17      1.0  0.04520  0.64100  0.86300  1.0000
  Br  Br18      1.0  0.03800  0.11000  0.86500  1.0000
  Br  Br19      1.0  0.36700  0.37400  0.92800  1.0000
  Br  Br20      1.0  0.33300  0.87700  0.93200  1.0000
  Pa  Pa1       1.0  0.95000  0.13500  0.15900  1.0000
  Pa  Pa2       1.0  0.55000  0.63500  0.34100  1.0000
  Pa  Pa3       1.0  0.45000  0.36500  0.65900  1.0000
  Pa  Pa4       1.0  0.04960  0.86500  0.84100  1.0000
