data_image0
_chemical_formula_structural       F8I4K4O8
_chemical_formula_sum              "F8 I4 K4 O8"
_cell_length_a       8.11
_cell_length_b       5.6743
_cell_length_c       8.303
_cell_angle_alpha    90
_cell_angle_beta     90
_cell_angle_gamma    90

_space_group_name_H-M_alt    "P 1"
_space_group_IT_number       1

loop_
  _space_group_symop_operation_xyz
  'x, y, z'

loop_
  _atom_site_type_symbol
  _atom_site_label
  _atom_site_symmetry_multiplicity
  _atom_site_fract_x
  _atom_site_fract_y
  _atom_site_fract_z
  _atom_site_occupancy
  F   F1        1.0  0.92100  0.33200  0.09080  1.0000
  F   F2        1.0  0.42100  0.66800  0.09080  1.0000
  F   F3        1.0  0.90000  0.30300  0.43600  1.0000
  F   F4        1.0  0.40000  0.69700  0.43600  1.0000
  F   F5        1.0  0.57900  0.33200  0.59100  1.0000
  F   F6        1.0  0.07930  0.66800  0.59100  1.0000
  F   F7        1.0  0.60000  0.30300  0.93600  1.0000
  F   F8        1.0  0.10000  0.69700  0.93600  1.0000
  I   I1        1.0  0.01800  0.01290  0.01860  1.0000
  I   I2        1.0  0.51800  0.98700  0.01860  1.0000
  I   I3        1.0  0.48200  0.01290  0.51900  1.0000
  I   I4        1.0  0.98200  0.98700  0.51900  1.0000
  K   K1        1.0  0.18700  0.47400  0.26400  1.0000
  K   K2        1.0  0.68700  0.52600  0.26400  1.0000
  K   K3        1.0  0.31300  0.47400  0.76400  1.0000
  K   K4        1.0  0.81300  0.52600  0.76400  1.0000
  O   O1        1.0  0.21800  0.15600  0.00264  1.0000
  O   O2        1.0  0.71800  0.84400  0.00264  1.0000
  O   O3        1.0  0.53500  0.09860  0.22300  1.0000
  O   O4        1.0  0.03540  0.90100  0.22300  1.0000
  O   O5        1.0  0.28200  0.15600  0.50300  1.0000
  O   O6        1.0  0.78200  0.84400  0.50300  1.0000
  O   O7        1.0  0.96500  0.09860  0.72300  1.0000
  O   O8        1.0  0.46500  0.90100  0.72300  1.0000
