data_image0
_chemical_formula_structural       B6Co4O13
_chemical_formula_sum              "B6 Co4 O13"
_cell_length_a       6.4708
_cell_length_b       6.4708
_cell_length_c       6.4708
_cell_angle_alpha    109.471
_cell_angle_beta     109.471
_cell_angle_gamma    109.471

_space_group_name_H-M_alt    "P 1"
_space_group_IT_number       1

loop_
  _space_group_symop_operation_xyz
  'x, y, z'

loop_
  _atom_site_type_symbol
  _atom_site_label
  _atom_site_symmetry_multiplicity
  _atom_site_fract_x
  _atom_site_fract_y
  _atom_site_fract_z
  _atom_site_occupancy
  B   B1        1.0  0.75000  0.50000  0.25000  1.0000
  B   B2        1.0  0.50000  0.75000  0.25000  1.0000
  B   B3        1.0  0.75000  0.25000  0.50000  1.0000
  B   B4        1.0  0.25000  0.75000  0.50000  1.0000
  B   B5        1.0  0.50000  0.25000  0.75000  1.0000
  B   B6        1.0  0.25000  0.50000  0.75000  1.0000
  Co  Co1       1.0  0.30600  0.00000  0.00000  1.0000
  Co  Co2       1.0  0.00000  0.30600  0.00000  1.0000
  Co  Co3       1.0  0.00000  0.00000  0.30600  1.0000
  Co  Co4       1.0  0.69400  0.69400  0.69400  1.0000
  O   O1        1.0  0.00000  0.00000  0.00000  1.0000
  O   O2        1.0  0.55700  0.27500  0.00000  1.0000
  O   O3        1.0  0.27500  0.55700  0.00000  1.0000
  O   O4        1.0  0.55700  0.00000  0.27500  1.0000
  O   O5        1.0  0.00000  0.55700  0.27500  1.0000
  O   O6        1.0  0.72500  0.72500  0.28200  1.0000
  O   O7        1.0  0.71800  0.44300  0.44300  1.0000
  O   O8        1.0  0.44300  0.71800  0.44300  1.0000
  O   O9        1.0  0.27500  0.00000  0.55700  1.0000
  O   O10       1.0  0.00000  0.27500  0.55700  1.0000
  O   O11       1.0  0.44300  0.44300  0.71800  1.0000
  O   O12       1.0  0.72500  0.28200  0.72500  1.0000
  O   O13       1.0  0.28200  0.72500  0.72500  1.0000
