data_image0
_chemical_formula_structural       Cd6Cs4K4O10
_chemical_formula_sum              "Cd6 Cs4 K4 O10"
_cell_length_a       9.88626
_cell_length_b       9.19474
_cell_length_c       6.56265
_cell_angle_alpha    108.276
_cell_angle_beta     113.826
_cell_angle_gamma    100.148

_space_group_name_H-M_alt    "P 1"
_space_group_IT_number       1

loop_
  _space_group_symop_operation_xyz
  'x, y, z'

loop_
  _atom_site_type_symbol
  _atom_site_label
  _atom_site_symmetry_multiplicity
  _atom_site_fract_x
  _atom_site_fract_y
  _atom_site_fract_z
  _atom_site_occupancy
  Cd  Cd1       1.0  0.90700  0.85800  0.03430  1.0000
  Cd  Cd2       1.0  0.50300  0.18500  0.10100  1.0000
  Cd  Cd3       1.0  0.82800  0.17000  0.39600  1.0000
  Cd  Cd4       1.0  0.17200  0.83000  0.60400  1.0000
  Cd  Cd5       1.0  0.49700  0.81500  0.89900  1.0000
  Cd  Cd6       1.0  0.09310  0.14200  0.96600  1.0000
  Cs  Cs1       1.0  0.34900  0.57900  0.29100  1.0000
  Cs  Cs2       1.0  0.74800  0.70800  0.35700  1.0000
  Cs  Cs3       1.0  0.25200  0.29200  0.64300  1.0000
  Cs  Cs4       1.0  0.65100  0.42100  0.70900  1.0000
  K   K1        1.0  0.98100  0.43000  0.22300  1.0000
  K   K2        1.0  0.30500  0.94800  0.24700  1.0000
  K   K3        1.0  0.69500  0.05230  0.75300  1.0000
  K   K4        1.0  0.01950  0.57000  0.77700  1.0000
  O   O1        1.0  0.96300  0.12400  0.19600  1.0000
  O   O2        1.0  0.02010  0.71300  0.20000  1.0000
  O   O3        1.0  0.34700  0.25600  0.24300  1.0000
  O   O4        1.0  0.59400  0.99600  0.28000  1.0000
  O   O5        1.0  0.74100  0.37000  0.30300  1.0000
  O   O6        1.0  0.25900  0.63000  0.69700  1.0000
  O   O7        1.0  0.40600  0.00403  0.72000  1.0000
  O   O8        1.0  0.65300  0.74400  0.75700  1.0000
  O   O9        1.0  0.98000  0.28700  0.80000  1.0000
  O   O10       1.0  0.03720  0.87600  0.80400  1.0000
