data_image0
_chemical_formula_structural       B4Cs4F16
_chemical_formula_sum              "B4 Cs4 F16"
_cell_length_a       7.28664
_cell_length_b       9.28003
_cell_length_c       5.49237
_cell_angle_alpha    90
_cell_angle_beta     90
_cell_angle_gamma    90

_space_group_name_H-M_alt    "P 1"
_space_group_IT_number       1

loop_
  _space_group_symop_operation_xyz
  'x, y, z'

loop_
  _atom_site_type_symbol
  _atom_site_label
  _atom_site_symmetry_multiplicity
  _atom_site_fract_x
  _atom_site_fract_y
  _atom_site_fract_z
  _atom_site_occupancy
  B   B1        1.0  0.70000  0.05190  0.25000  1.0000
  B   B2        1.0  0.80000  0.55200  0.25000  1.0000
  B   B3        1.0  0.20000  0.44800  0.75000  1.0000
  B   B4        1.0  0.30000  0.94800  0.75000  1.0000
  Cs  Cs1       1.0  0.16200  0.19200  0.25000  1.0000
  Cs  Cs2       1.0  0.33800  0.69200  0.25000  1.0000
  Cs  Cs3       1.0  0.66200  0.30800  0.75000  1.0000
  Cs  Cs4       1.0  0.83800  0.80800  0.75000  1.0000
  F   F1        1.0  0.81100  0.07120  0.04030  1.0000
  F   F2        1.0  0.68900  0.57100  0.04030  1.0000
  F   F3        1.0  0.55900  0.15700  0.25000  1.0000
  F   F4        1.0  0.87300  0.41200  0.25000  1.0000
  F   F5        1.0  0.94100  0.65700  0.25000  1.0000
  F   F6        1.0  0.62700  0.91200  0.25000  1.0000
  F   F7        1.0  0.81100  0.07120  0.46000  1.0000
  F   F8        1.0  0.68900  0.57100  0.46000  1.0000
  F   F9        1.0  0.31100  0.42900  0.54000  1.0000
  F   F10       1.0  0.18900  0.92900  0.54000  1.0000
  F   F11       1.0  0.37300  0.08850  0.75000  1.0000
  F   F12       1.0  0.05930  0.34300  0.75000  1.0000
  F   F13       1.0  0.12700  0.58800  0.75000  1.0000
  F   F14       1.0  0.44100  0.84300  0.75000  1.0000
  F   F15       1.0  0.31100  0.42900  0.96000  1.0000
  F   F16       1.0  0.18900  0.92900  0.96000  1.0000
