data_image0
_chemical_formula_structural       Br16K4Tl4
_chemical_formula_sum              "Br16 K4 Tl4"
_cell_length_a       8.12033
_cell_length_b       10.7946
_cell_length_c       10.7683
_cell_angle_alpha    90
_cell_angle_beta     90
_cell_angle_gamma    90

_space_group_name_H-M_alt    "P 1"
_space_group_IT_number       1

loop_
  _space_group_symop_operation_xyz
  'x, y, z'

loop_
  _atom_site_type_symbol
  _atom_site_label
  _atom_site_symmetry_multiplicity
  _atom_site_fract_x
  _atom_site_fract_y
  _atom_site_fract_z
  _atom_site_occupancy
  Br  Br1       1.0  0.35200  0.19000  0.04630  1.0000
  Br  Br2       1.0  0.14800  0.81000  0.04630  1.0000
  Br  Br3       1.0  0.99200  0.45900  0.18100  1.0000
  Br  Br4       1.0  0.50800  0.54100  0.18100  1.0000
  Br  Br5       1.0  0.99200  0.04060  0.31900  1.0000
  Br  Br6       1.0  0.50800  0.95900  0.31900  1.0000
  Br  Br7       1.0  0.35200  0.31000  0.45400  1.0000
  Br  Br8       1.0  0.14800  0.69000  0.45400  1.0000
  Br  Br9       1.0  0.85200  0.31000  0.54600  1.0000
  Br  Br10      1.0  0.64800  0.69000  0.54600  1.0000
  Br  Br11      1.0  0.49200  0.04060  0.68100  1.0000
  Br  Br12      1.0  0.00821  0.95900  0.68100  1.0000
  Br  Br13      1.0  0.49200  0.45900  0.81900  1.0000
  Br  Br14      1.0  0.00821  0.54100  0.81900  1.0000
  Br  Br15      1.0  0.85200  0.19000  0.95400  1.0000
  Br  Br16      1.0  0.64800  0.81000  0.95400  1.0000
  K   K1        1.0  0.68100  0.25000  0.25000  1.0000
  K   K2        1.0  0.81900  0.75000  0.25000  1.0000
  K   K3        1.0  0.18100  0.25000  0.75000  1.0000
  K   K4        1.0  0.31900  0.75000  0.75000  1.0000
  Tl  Tl1       1.0  0.25000  0.00000  0.17700  1.0000
  Tl  Tl2       1.0  0.25000  0.50000  0.32300  1.0000
  Tl  Tl3       1.0  0.75000  0.50000  0.67700  1.0000
  Tl  Tl4       1.0  0.75000  0.00000  0.82300  1.0000
