data_image0
_chemical_formula_structural       As2F12I10
_chemical_formula_sum              "As2 F12 I10"
_cell_length_a       7.89815
_cell_length_b       8.14581
_cell_length_c       10.335
_cell_angle_alpha    108.496
_cell_angle_beta     107.629
_cell_angle_gamma    101.602

_space_group_name_H-M_alt    "P 1"
_space_group_IT_number       1

loop_
  _space_group_symop_operation_xyz
  'x, y, z'

loop_
  _atom_site_type_symbol
  _atom_site_label
  _atom_site_symmetry_multiplicity
  _atom_site_fract_x
  _atom_site_fract_y
  _atom_site_fract_z
  _atom_site_occupancy
  As  As1       1.0  0.90700  0.15700  0.31400  1.0000
  As  As2       1.0  0.09280  0.84300  0.68600  1.0000
  F   F1        1.0  0.97000  0.02470  0.17300  1.0000
  F   F2        1.0  0.70300  0.14800  0.17300  1.0000
  F   F3        1.0  0.77800  0.95200  0.31100  1.0000
  F   F4        1.0  0.03340  0.35900  0.31100  1.0000
  F   F5        1.0  0.84300  0.28800  0.45300  1.0000
  F   F6        1.0  0.11000  0.16400  0.45300  1.0000
  F   F7        1.0  0.89000  0.83600  0.54700  1.0000
  F   F8        1.0  0.15700  0.71200  0.54700  1.0000
  F   F9        1.0  0.96700  0.64100  0.68900  1.0000
  F   F10       1.0  0.22200  0.04800  0.68900  1.0000
  F   F11       1.0  0.29700  0.85200  0.82700  1.0000
  F   F12       1.0  0.02990  0.97500  0.82700  1.0000
  I   I1        1.0  0.22100  0.76700  0.04640  1.0000
  I   I2        1.0  0.32500  0.28000  0.04640  1.0000
  I   I3        1.0  0.61300  0.56000  0.27300  1.0000
  I   I4        1.0  0.16000  0.71300  0.27300  1.0000
  I   I5        1.0  0.50000  0.50000  0.50000  1.0000
  I   I6        1.0  0.50000  0.00000  0.50000  1.0000
  I   I7        1.0  0.84000  0.28700  0.72700  1.0000
  I   I8        1.0  0.38700  0.44000  0.72700  1.0000
  I   I9        1.0  0.67500  0.72000  0.95400  1.0000
  I   I10       1.0  0.77900  0.23300  0.95400  1.0000
