data_image0
_chemical_formula_structural       Co2Fe15H3Nd2
_chemical_formula_sum              "Co2 Fe15 H3 Nd2"
_cell_length_a       6.4039
_cell_length_b       6.4039
_cell_length_c       6.4039
_cell_angle_alpha    83.89
_cell_angle_beta     96.11
_cell_angle_gamma    96.11

_space_group_name_H-M_alt    "P 1"
_space_group_IT_number       1

loop_
  _space_group_symop_operation_xyz
  'x, y, z'

loop_
  _atom_site_type_symbol
  _atom_site_label
  _atom_site_symmetry_multiplicity
  _atom_site_fract_x
  _atom_site_fract_y
  _atom_site_fract_z
  _atom_site_occupancy
  Co  Co1       1.0  0.90600  0.09400  0.09400  1.0000
  Co  Co2       1.0  0.09400  0.90600  0.90600  1.0000
  Fe  Fe1       1.0  0.28300  0.28300  0.00000  1.0000
  Fe  Fe2       1.0  0.71700  0.71700  0.00000  1.0000
  Fe  Fe3       1.0  0.50000  0.00000  0.00000  1.0000
  Fe  Fe4       1.0  0.34000  0.66000  0.15000  1.0000
  Fe  Fe5       1.0  0.00000  0.71700  0.28300  1.0000
  Fe  Fe6       1.0  0.28300  0.00000  0.28300  1.0000
  Fe  Fe7       1.0  0.15000  0.34000  0.34000  1.0000
  Fe  Fe8       1.0  0.66000  0.85000  0.34000  1.0000
  Fe  Fe9       1.0  0.00000  0.00000  0.50000  1.0000
  Fe  Fe10      1.0  0.34000  0.15000  0.66000  1.0000
  Fe  Fe11      1.0  0.85000  0.66000  0.66000  1.0000
  Fe  Fe12      1.0  0.00000  0.28300  0.71700  1.0000
  Fe  Fe13      1.0  0.71700  0.00000  0.71700  1.0000
  Fe  Fe14      1.0  0.66000  0.34000  0.85000  1.0000
  Fe  Fe15      1.0  0.00000  0.50000  0.00000  1.0000
  H   H1        1.0  0.50000  0.50000  0.00000  1.0000
  H   H2        1.0  0.50000  0.00000  0.50000  1.0000
  H   H3        1.0  1.00000  0.50000  0.50000  1.0000
  Nd  Nd1       1.0  0.65600  0.34400  0.34400  1.0000
  Nd  Nd2       1.0  0.34400  0.65600  0.65600  1.0000
