data_image0
_chemical_formula_structural       Ba2Co2O14P4
_chemical_formula_sum              "Ba2 Co2 O14 P4"
_cell_length_a       5.33025
_cell_length_b       7.5439
_cell_length_c       7.13707
_cell_angle_alpha    101.944
_cell_angle_beta     85.0948
_cell_angle_gamma    89.0655

_space_group_name_H-M_alt    "P 1"
_space_group_IT_number       1

loop_
  _space_group_symop_operation_xyz
  'x, y, z'

loop_
  _atom_site_type_symbol
  _atom_site_label
  _atom_site_symmetry_multiplicity
  _atom_site_fract_x
  _atom_site_fract_y
  _atom_site_fract_z
  _atom_site_occupancy
  Ba  Ba1       1.0  0.21100  0.06990  0.22800  1.0000
  Ba  Ba2       1.0  0.78900  0.93000  0.77200  1.0000
  Co  Co1       1.0  0.19800  0.60400  0.38100  1.0000
  Co  Co2       1.0  0.80200  0.39600  0.61900  1.0000
  O   O1        1.0  0.77800  0.26200  0.00326  1.0000
  O   O2        1.0  0.73000  0.59900  0.12000  1.0000
  O   O3        1.0  0.71300  0.93900  0.15300  1.0000
  O   O4        1.0  0.43900  0.39600  0.27400  1.0000
  O   O5        1.0  0.90100  0.40800  0.33600  1.0000
  O   O6        1.0  0.93500  0.80200  0.38900  1.0000
  O   O7        1.0  0.45800  0.80000  0.39800  1.0000
  O   O8        1.0  0.54200  0.20000  0.60200  1.0000
  O   O9        1.0  0.06480  0.19800  0.61100  1.0000
  O   O10       1.0  0.09940  0.59200  0.66400  1.0000
  O   O11       1.0  0.56100  0.60400  0.72600  1.0000
  O   O12       1.0  0.28700  0.06140  0.84700  1.0000
  O   O13       1.0  0.27000  0.40100  0.88000  1.0000
  O   O14       1.0  0.22200  0.73800  0.99700  1.0000
  P   P1        1.0  0.70900  0.40300  0.18100  1.0000
  P   P2        1.0  0.70600  0.79200  0.27000  1.0000
  P   P3        1.0  0.29500  0.20800  0.73000  1.0000
  P   P4        1.0  0.29100  0.59700  0.81900  1.0000
