data_image0
_chemical_formula_structural       Co3Dy4Ga16
_chemical_formula_sum              "Co3 Dy4 Ga16"
_cell_length_a       6.01182
_cell_length_b       6.01182
_cell_length_c       11.0772
_cell_angle_alpha    90
_cell_angle_beta     90
_cell_angle_gamma    90

_space_group_name_H-M_alt    "P 1"
_space_group_IT_number       1

loop_
  _space_group_symop_operation_xyz
  'x, y, z'

loop_
  _atom_site_type_symbol
  _atom_site_label
  _atom_site_symmetry_multiplicity
  _atom_site_fract_x
  _atom_site_fract_y
  _atom_site_fract_z
  _atom_site_occupancy
  Co  Co1       1.0  0.00000  0.00000  0.00000  1.0000
  Co  Co2       1.0  0.50000  0.00000  0.50000  1.0000
  Co  Co3       1.0  0.00000  0.50000  0.50000  1.0000
  Dy  Dy1       1.0  0.50000  0.00000  0.19500  1.0000
  Dy  Dy2       1.0  0.00000  0.50000  0.19500  1.0000
  Dy  Dy3       1.0  0.50000  0.00000  0.80500  1.0000
  Dy  Dy4       1.0  0.00000  0.50000  0.80500  1.0000
  Ga  Ga1       1.0  0.28000  0.28000  0.00000  1.0000
  Ga  Ga2       1.0  0.72000  0.28000  0.00000  1.0000
  Ga  Ga3       1.0  0.28000  0.72000  0.00000  1.0000
  Ga  Ga4       1.0  0.72000  0.72000  0.00000  1.0000
  Ga  Ga5       1.0  0.50000  0.50000  0.19600  1.0000
  Ga  Ga6       1.0  0.00000  0.00000  0.21800  1.0000
  Ga  Ga7       1.0  0.25000  0.25000  0.38400  1.0000
  Ga  Ga8       1.0  0.75000  0.25000  0.38400  1.0000
  Ga  Ga9       1.0  0.25000  0.75000  0.38400  1.0000
  Ga  Ga10      1.0  0.75000  0.75000  0.38400  1.0000
  Ga  Ga11      1.0  0.25000  0.25000  0.61600  1.0000
  Ga  Ga12      1.0  0.75000  0.25000  0.61600  1.0000
  Ga  Ga13      1.0  0.25000  0.75000  0.61600  1.0000
  Ga  Ga14      1.0  0.75000  0.75000  0.61600  1.0000
  Ga  Ga15      1.0  0.00000  0.00000  0.78200  1.0000
  Ga  Ga16      1.0  0.50000  0.50000  0.80400  1.0000
