data_image0
_chemical_formula_structural       In16Se8
_chemical_formula_sum              "In16 Se8"
_cell_length_a       15.3688
_cell_length_b       11.5287
_cell_length_c       3.99091
_cell_angle_alpha    90
_cell_angle_beta     90
_cell_angle_gamma    90

_space_group_name_H-M_alt    "P 1"
_space_group_IT_number       1

loop_
  _space_group_symop_operation_xyz
  'x, y, z'

loop_
  _atom_site_type_symbol
  _atom_site_label
  _atom_site_symmetry_multiplicity
  _atom_site_fract_x
  _atom_site_fract_y
  _atom_site_fract_z
  _atom_site_occupancy
  In  In1       1.0  0.38100  0.09620  0.00000  1.0000
  In  In2       1.0  0.01530  0.20000  0.00000  1.0000
  In  In3       1.0  0.74600  0.24900  0.00000  1.0000
  In  In4       1.0  0.36900  0.40600  0.00000  1.0000
  In  In5       1.0  0.63100  0.59400  0.00000  1.0000
  In  In6       1.0  0.25400  0.75100  0.00000  1.0000
  In  In7       1.0  0.98500  0.80000  0.00000  1.0000
  In  In8       1.0  0.61900  0.90400  0.00000  1.0000
  In  In9       1.0  0.86900  0.09430  0.50000  1.0000
  In  In10      1.0  0.24600  0.25100  0.50000  1.0000
  In  In11      1.0  0.51500  0.30000  0.50000  1.0000
  In  In12      1.0  0.88100  0.40400  0.50000  1.0000
  In  In13      1.0  0.11900  0.59600  0.50000  1.0000
  In  In14      1.0  0.48500  0.70000  0.50000  1.0000
  In  In15      1.0  0.75400  0.74900  0.50000  1.0000
  In  In16      1.0  0.13100  0.90600  0.50000  1.0000
  Se  Se1       1.0  0.17700  0.07880  0.00000  1.0000
  Se  Se2       1.0  0.57900  0.14700  0.00000  1.0000
  Se  Se3       1.0  0.42100  0.85300  0.00000  1.0000
  Se  Se4       1.0  0.82300  0.92100  0.00000  1.0000
  Se  Se5       1.0  0.07940  0.35300  0.50000  1.0000
  Se  Se6       1.0  0.67700  0.42100  0.50000  1.0000
  Se  Se7       1.0  0.32300  0.57900  0.50000  1.0000
  Se  Se8       1.0  0.92100  0.64700  0.50000  1.0000
