data_image0
_chemical_formula_structural       I16In4Na4
_chemical_formula_sum              "I16 In4 Na4"
_cell_length_a       8.69127
_cell_length_b       7.83326
_cell_length_c       15.8866
_cell_angle_alpha    90
_cell_angle_beta     92.8028
_cell_angle_gamma    90

_space_group_name_H-M_alt    "P 1"
_space_group_IT_number       1

loop_
  _space_group_symop_operation_xyz
  'x, y, z'

loop_
  _atom_site_type_symbol
  _atom_site_label
  _atom_site_symmetry_multiplicity
  _atom_site_fract_x
  _atom_site_fract_y
  _atom_site_fract_z
  _atom_site_occupancy
  I   I1        1.0  0.68100  0.83000  0.05670  1.0000
  I   I2        1.0  0.18900  0.64000  0.07340  1.0000
  I   I3        1.0  0.05890  0.15200  0.18300  1.0000
  I   I4        1.0  0.56400  0.29300  0.20100  1.0000
  I   I5        1.0  0.43600  0.79300  0.29900  1.0000
  I   I6        1.0  0.94100  0.65200  0.31700  1.0000
  I   I7        1.0  0.81100  0.14000  0.42700  1.0000
  I   I8        1.0  0.31900  0.33000  0.44300  1.0000
  I   I9        1.0  0.68100  0.67000  0.55700  1.0000
  I   I10       1.0  0.18900  0.86000  0.57300  1.0000
  I   I11       1.0  0.05890  0.34800  0.68300  1.0000
  I   I12       1.0  0.56400  0.20700  0.70100  1.0000
  I   I13       1.0  0.43600  0.70700  0.79900  1.0000
  I   I14       1.0  0.94100  0.84800  0.81700  1.0000
  I   I15       1.0  0.81100  0.36000  0.92700  1.0000
  I   I16       1.0  0.31900  0.17000  0.94300  1.0000
  In  In1       1.0  0.29700  0.30800  0.10100  1.0000
  In  In2       1.0  0.70300  0.80800  0.39900  1.0000
  In  In3       1.0  0.29700  0.19200  0.60100  1.0000
  In  In4       1.0  0.70300  0.69200  0.89900  1.0000
  Na  Na1       1.0  0.85100  0.49300  0.12500  1.0000
  Na  Na2       1.0  0.14900  0.99300  0.37500  1.0000
  Na  Na3       1.0  0.85100  0.00679  0.62500  1.0000
  Na  Na4       1.0  0.14900  0.50700  0.87500  1.0000
