data_image0
_chemical_formula_structural       Co2S2Sb2
_chemical_formula_sum              "Co2 S2 Sb2"
_cell_length_a       4.86014
_cell_length_b       5.82729
_cell_length_c       3.63047
_cell_angle_alpha    90
_cell_angle_beta     90
_cell_angle_gamma    90

_space_group_name_H-M_alt    "P 1"
_space_group_IT_number       1

loop_
  _space_group_symop_operation_xyz
  'x, y, z'

loop_
  _atom_site_type_symbol
  _atom_site_label
  _atom_site_symmetry_multiplicity
  _atom_site_fract_x
  _atom_site_fract_y
  _atom_site_fract_z
  _atom_site_occupancy
  Co  Co1       1.0  0.28400  0.99900  0.00000  1.0000
  Co  Co2       1.0  0.71600  0.49900  0.50000  1.0000
  S   S1        1.0  0.45900  0.63700  0.00000  1.0000
  S   S2        1.0  0.54100  0.13700  0.50000  1.0000
  Sb  Sb1       1.0  0.03660  0.37200  0.00000  1.0000
  Sb  Sb2       1.0  0.96300  0.87200  0.50000  1.0000
