data_image0
_chemical_formula_structural       Ba5O15Ta4
_chemical_formula_sum              "Ba5 O15 Ta4"
_cell_length_a       5.80224
_cell_length_b       5.80224
_cell_length_c       11.8011
_cell_angle_alpha    90
_cell_angle_beta     90.0001
_cell_angle_gamma    120

_space_group_name_H-M_alt    "P 1"
_space_group_IT_number       1

loop_
  _space_group_symop_operation_xyz
  'x, y, z'

loop_
  _atom_site_type_symbol
  _atom_site_label
  _atom_site_symmetry_multiplicity
  _atom_site_fract_x
  _atom_site_fract_y
  _atom_site_fract_z
  _atom_site_occupancy
  Ba  Ba1       1.0  0.00000  0.00000  0.00000  1.0000
  Ba  Ba2       1.0  0.66700  0.33300  0.21200  1.0000
  Ba  Ba3       1.0  0.33300  0.66700  0.43000  1.0000
  Ba  Ba4       1.0  0.66700  0.33300  0.57000  1.0000
  Ba  Ba5       1.0  0.33300  0.66700  0.78800  1.0000
  O   O1        1.0  0.50000  0.00000  0.00000  1.0000
  O   O2        1.0  0.00000  0.50000  0.00000  1.0000
  O   O3        1.0  0.50000  0.50000  0.00000  1.0000
  O   O4        1.0  0.16800  0.83200  0.19200  1.0000
  O   O5        1.0  0.16800  0.33700  0.19200  1.0000
  O   O6        1.0  0.66300  0.83200  0.19200  1.0000
  O   O7        1.0  0.32900  0.16500  0.38800  1.0000
  O   O8        1.0  0.83500  0.67100  0.38800  1.0000
  O   O9        1.0  0.83500  0.16500  0.38800  1.0000
  O   O10       1.0  0.16500  0.83500  0.61200  1.0000
  O   O11       1.0  0.16500  0.32900  0.61200  1.0000
  O   O12       1.0  0.67100  0.83500  0.61200  1.0000
  O   O13       1.0  0.33700  0.16800  0.80800  1.0000
  O   O14       1.0  0.83200  0.16800  0.80800  1.0000
  O   O15       1.0  0.83200  0.66300  0.80800  1.0000
  Ta  Ta1       1.0  0.33300  0.66700  0.10400  1.0000
  Ta  Ta2       1.0  0.00000  0.00000  0.31600  1.0000
  Ta  Ta3       1.0  0.00000  0.00000  0.68400  1.0000
  Ta  Ta4       1.0  0.66700  0.33300  0.89600  1.0000
