data_image0
_chemical_formula_structural       Cs4F16Fe4
_chemical_formula_sum              "Cs4 F16 Fe4"
_cell_length_a       7.73339
_cell_length_b       7.73339
_cell_length_c       6.26762
_cell_angle_alpha    90
_cell_angle_beta     90
_cell_angle_gamma    90

_space_group_name_H-M_alt    "P 1"
_space_group_IT_number       1

loop_
  _space_group_symop_operation_xyz
  'x, y, z'

loop_
  _atom_site_type_symbol
  _atom_site_label
  _atom_site_symmetry_multiplicity
  _atom_site_fract_x
  _atom_site_fract_y
  _atom_site_fract_z
  _atom_site_occupancy
  Cs  Cs1       1.0  0.75000  0.75000  0.44000  1.0000
  Cs  Cs2       1.0  0.75000  0.25000  0.50000  1.0000
  Cs  Cs3       1.0  0.25000  0.75000  0.50000  1.0000
  Cs  Cs4       1.0  0.25000  0.25000  0.56000  1.0000
  F   F1        1.0  0.75000  0.00609  0.06280  1.0000
  F   F2        1.0  0.75000  0.49400  0.06280  1.0000
  F   F3        1.0  0.00609  0.75000  0.06280  1.0000
  F   F4        1.0  0.49400  0.75000  0.06280  1.0000
  F   F5        1.0  0.03750  0.03750  0.29300  1.0000
  F   F6        1.0  0.46300  0.03750  0.29300  1.0000
  F   F7        1.0  0.03750  0.46300  0.29300  1.0000
  F   F8        1.0  0.46300  0.46300  0.29300  1.0000
  F   F9        1.0  0.53700  0.53700  0.70700  1.0000
  F   F10       1.0  0.96300  0.53700  0.70700  1.0000
  F   F11       1.0  0.53700  0.96300  0.70700  1.0000
  F   F12       1.0  0.96300  0.96300  0.70700  1.0000
  F   F13       1.0  0.50600  0.25000  0.93700  1.0000
  F   F14       1.0  0.99400  0.25000  0.93700  1.0000
  F   F15       1.0  0.25000  0.50600  0.93700  1.0000
  F   F16       1.0  0.25000  0.99400  0.93700  1.0000
  Fe  Fe1       1.0  0.00000  0.00000  0.00000  1.0000
  Fe  Fe2       1.0  0.50000  0.00000  0.00000  1.0000
  Fe  Fe3       1.0  0.00000  0.50000  0.00000  1.0000
  Fe  Fe4       1.0  0.50000  0.50000  0.00000  1.0000
