data_image0
_chemical_formula_structural       Ca2Co12P7
_chemical_formula_sum              "Ca2 Co12 P7"
_cell_length_a       9.01359
_cell_length_b       9.01375
_cell_length_c       3.55038
_cell_angle_alpha    90
_cell_angle_beta     90
_cell_angle_gamma    120

_space_group_name_H-M_alt    "P 1"
_space_group_IT_number       1

loop_
  _space_group_symop_operation_xyz
  'x, y, z'

loop_
  _atom_site_type_symbol
  _atom_site_label
  _atom_site_symmetry_multiplicity
  _atom_site_fract_x
  _atom_site_fract_y
  _atom_site_fract_z
  _atom_site_occupancy
  Ca  Ca1       1.0  0.33300  0.66700  0.00000  1.0000
  Ca  Ca2       1.0  0.66700  0.33300  0.50000  1.0000
  Co  Co1       1.0  0.43400  0.05670  0.00000  1.0000
  Co  Co2       1.0  0.15200  0.27100  0.00000  1.0000
  Co  Co3       1.0  0.94300  0.37700  0.00000  1.0000
  Co  Co4       1.0  0.62300  0.56600  0.00000  1.0000
  Co  Co5       1.0  0.11800  0.84800  0.00000  1.0000
  Co  Co6       1.0  0.72900  0.88200  0.00000  1.0000
  Co  Co7       1.0  0.23700  0.10300  0.50000  1.0000
  Co  Co8       1.0  0.89700  0.13400  0.50000  1.0000
  Co  Co9       1.0  0.38200  0.43400  0.50000  1.0000
  Co  Co10      1.0  0.05200  0.61800  0.50000  1.0000
  Co  Co11      1.0  0.86600  0.76300  0.50000  1.0000
  Co  Co12      1.0  0.56600  0.94800  0.50000  1.0000
  P   P1        1.0  0.00000  0.00000  0.00000  1.0000
  P   P2        1.0  0.70900  0.11400  0.00000  1.0000
  P   P3        1.0  0.40500  0.29100  0.00000  1.0000
  P   P4        1.0  0.88600  0.59500  0.00000  1.0000
  P   P5        1.0  0.11200  0.40300  0.50000  1.0000
  P   P6        1.0  0.59700  0.70800  0.50000  1.0000
  P   P7        1.0  0.29200  0.88800  0.50000  1.0000
