data_image0
_chemical_formula_structural       Al8Ce8Rh8
_chemical_formula_sum              "Al8 Ce8 Rh8"
_cell_length_a       7.25972
_cell_length_b       4.28842
_cell_length_c       16.3444
_cell_angle_alpha    90
_cell_angle_beta     90
_cell_angle_gamma    90

_space_group_name_H-M_alt    "P 1"
_space_group_IT_number       1

loop_
  _space_group_symop_operation_xyz
  'x, y, z'

loop_
  _atom_site_type_symbol
  _atom_site_label
  _atom_site_symmetry_multiplicity
  _atom_site_fract_x
  _atom_site_fract_y
  _atom_site_fract_z
  _atom_site_occupancy
  Al  Al1       1.0  0.99500  0.75000  0.06120  1.0000
  Al  Al2       1.0  0.34800  0.75000  0.14700  1.0000
  Al  Al3       1.0  0.84800  0.75000  0.35300  1.0000
  Al  Al4       1.0  0.49500  0.75000  0.43900  1.0000
  Al  Al5       1.0  0.50500  0.25000  0.56100  1.0000
  Al  Al6       1.0  0.15200  0.25000  0.64700  1.0000
  Al  Al7       1.0  0.65200  0.25000  0.85300  1.0000
  Al  Al8       1.0  0.00459  0.25000  0.93900  1.0000
  Ce  Ce1       1.0  0.65600  0.25000  0.06010  1.0000
  Ce  Ce2       1.0  0.02170  0.25000  0.22000  1.0000
  Ce  Ce3       1.0  0.52200  0.25000  0.28000  1.0000
  Ce  Ce4       1.0  0.15600  0.25000  0.44000  1.0000
  Ce  Ce5       1.0  0.84400  0.75000  0.56000  1.0000
  Ce  Ce6       1.0  0.47800  0.75000  0.72000  1.0000
  Ce  Ce7       1.0  0.97800  0.75000  0.78000  1.0000
  Ce  Ce8       1.0  0.34400  0.75000  0.94000  1.0000
  Rh  Rh1       1.0  0.21900  0.25000  0.06970  1.0000
  Rh  Rh2       1.0  0.73000  0.75000  0.18200  1.0000
  Rh  Rh3       1.0  0.23000  0.75000  0.31800  1.0000
  Rh  Rh4       1.0  0.71900  0.25000  0.43000  1.0000
  Rh  Rh5       1.0  0.28100  0.75000  0.57000  1.0000
  Rh  Rh6       1.0  0.77000  0.25000  0.68200  1.0000
  Rh  Rh7       1.0  0.27000  0.25000  0.81800  1.0000
  Rh  Rh8       1.0  0.78100  0.75000  0.93000  1.0000
