data_image0
_chemical_formula_structural       In10S12Tl2
_chemical_formula_sum              "In10 S12 Tl2"
_cell_length_a       8.91444
_cell_length_b       3.97692
_cell_length_c       17.8447
_cell_angle_alpha    90
_cell_angle_beta     94.9656
_cell_angle_gamma    90

_space_group_name_H-M_alt    "P 1"
_space_group_IT_number       1

loop_
  _space_group_symop_operation_xyz
  'x, y, z'

loop_
  _atom_site_type_symbol
  _atom_site_label
  _atom_site_symmetry_multiplicity
  _atom_site_fract_x
  _atom_site_fract_y
  _atom_site_fract_z
  _atom_site_occupancy
  In  In1       1.0  0.69600  0.75000  0.00479  1.0000
  In  In2       1.0  0.11300  0.25000  0.11400  1.0000
  In  In3       1.0  0.23400  0.75000  0.31500  1.0000
  In  In4       1.0  0.96600  0.75000  0.38300  1.0000
  In  In5       1.0  0.65800  0.25000  0.45600  1.0000
  In  In6       1.0  0.34200  0.75000  0.54400  1.0000
  In  In7       1.0  0.03440  0.25000  0.61700  1.0000
  In  In8       1.0  0.76600  0.25000  0.68500  1.0000
  In  In9       1.0  0.88700  0.75000  0.88600  1.0000
  In  In10      1.0  0.30400  0.25000  0.99500  1.0000
  S   S1        1.0  0.59400  0.25000  0.07420  1.0000
  S   S2        1.0  0.94600  0.75000  0.13100  1.0000
  S   S3        1.0  0.30600  0.25000  0.23500  1.0000
  S   S4        1.0  0.79700  0.25000  0.33200  1.0000
  S   S5        1.0  0.46600  0.75000  0.41300  1.0000
  S   S6        1.0  0.16300  0.25000  0.49500  1.0000
  S   S7        1.0  0.83700  0.75000  0.50500  1.0000
  S   S8        1.0  0.53400  0.25000  0.58700  1.0000
  S   S9        1.0  0.20300  0.75000  0.66800  1.0000
  S   S10       1.0  0.69400  0.75000  0.76500  1.0000
  S   S11       1.0  0.05390  0.25000  0.86900  1.0000
  S   S12       1.0  0.40600  0.75000  0.92600  1.0000
  Tl  Tl1       1.0  0.62500  0.75000  0.21500  1.0000
  Tl  Tl2       1.0  0.37500  0.25000  0.78500  1.0000
