data_image0
_chemical_formula_structural       K4Mn4O16
_chemical_formula_sum              "K4 Mn4 O16"
_cell_length_a       8.88135
_cell_length_b       5.5472
_cell_length_c       7.23249
_cell_angle_alpha    90
_cell_angle_beta     90
_cell_angle_gamma    90

_space_group_name_H-M_alt    "P 1"
_space_group_IT_number       1

loop_
  _space_group_symop_operation_xyz
  'x, y, z'

loop_
  _atom_site_type_symbol
  _atom_site_label
  _atom_site_symmetry_multiplicity
  _atom_site_fract_x
  _atom_site_fract_y
  _atom_site_fract_z
  _atom_site_occupancy
  K   K1        1.0  0.18100  0.75000  0.15800  1.0000
  K   K2        1.0  0.68100  0.75000  0.34200  1.0000
  K   K3        1.0  0.31900  0.25000  0.65800  1.0000
  K   K4        1.0  0.81900  0.25000  0.84200  1.0000
  Mn  Mn1       1.0  0.43900  0.25000  0.19300  1.0000
  Mn  Mn2       1.0  0.93900  0.25000  0.30700  1.0000
  Mn  Mn3       1.0  0.06130  0.75000  0.69300  1.0000
  Mn  Mn4       1.0  0.56100  0.75000  0.80700  1.0000
  O   O1        1.0  0.31000  0.25000  0.03470  1.0000
  O   O2        1.0  0.60400  0.25000  0.10100  1.0000
  O   O3        1.0  0.91900  0.01220  0.17900  1.0000
  O   O4        1.0  0.91900  0.48800  0.17900  1.0000
  O   O5        1.0  0.41900  0.01220  0.32100  1.0000
  O   O6        1.0  0.41900  0.48800  0.32100  1.0000
  O   O7        1.0  0.10400  0.25000  0.39900  1.0000
  O   O8        1.0  0.81000  0.25000  0.46500  1.0000
  O   O9        1.0  0.19000  0.75000  0.53500  1.0000
  O   O10       1.0  0.89600  0.75000  0.60100  1.0000
  O   O11       1.0  0.58100  0.51200  0.67900  1.0000
  O   O12       1.0  0.58100  0.98800  0.67900  1.0000
  O   O13       1.0  0.08060  0.51200  0.82100  1.0000
  O   O14       1.0  0.08060  0.98800  0.82100  1.0000
  O   O15       1.0  0.39600  0.75000  0.89900  1.0000
  O   O16       1.0  0.69000  0.75000  0.96500  1.0000
