data_image0
_chemical_formula_structural       As4Cl8F12
_chemical_formula_sum              "As4 Cl8 F12"
_cell_length_a       8.31511
_cell_length_b       8.31511
_cell_length_c       6.05619
_cell_angle_alpha    90
_cell_angle_beta     90
_cell_angle_gamma    90

_space_group_name_H-M_alt    "P 1"
_space_group_IT_number       1

loop_
  _space_group_symop_operation_xyz
  'x, y, z'

loop_
  _atom_site_type_symbol
  _atom_site_label
  _atom_site_symmetry_multiplicity
  _atom_site_fract_x
  _atom_site_fract_y
  _atom_site_fract_z
  _atom_site_occupancy
  As  As1       1.0  0.75000  0.25000  0.00000  1.0000
  As  As2       1.0  0.25000  0.75000  0.00000  1.0000
  As  As3       1.0  0.25000  0.25000  0.32100  1.0000
  As  As4       1.0  0.75000  0.75000  0.67900  1.0000
  Cl  Cl1       1.0  0.70500  0.05470  0.20600  1.0000
  Cl  Cl2       1.0  0.79500  0.44500  0.20600  1.0000
  Cl  Cl3       1.0  0.44500  0.70500  0.20600  1.0000
  Cl  Cl4       1.0  0.05470  0.79500  0.20600  1.0000
  Cl  Cl5       1.0  0.94500  0.20500  0.79400  1.0000
  Cl  Cl6       1.0  0.55500  0.29500  0.79400  1.0000
  Cl  Cl7       1.0  0.20500  0.55500  0.79400  1.0000
  Cl  Cl8       1.0  0.29500  0.94500  0.79400  1.0000
  F   F1        1.0  0.25000  0.25000  0.03290  1.0000
  F   F2        1.0  0.32700  0.05120  0.32500  1.0000
  F   F3        1.0  0.05120  0.17300  0.32500  1.0000
  F   F4        1.0  0.44900  0.32700  0.32500  1.0000
  F   F5        1.0  0.17300  0.44900  0.32500  1.0000
  F   F6        1.0  0.75000  0.75000  0.38600  1.0000
  F   F7        1.0  0.25000  0.25000  0.61400  1.0000
  F   F8        1.0  0.82700  0.55100  0.67500  1.0000
  F   F9        1.0  0.55100  0.67300  0.67500  1.0000
  F   F10       1.0  0.94900  0.82700  0.67500  1.0000
  F   F11       1.0  0.67300  0.94900  0.67500  1.0000
  F   F12       1.0  0.75000  0.75000  0.96700  1.0000
