data_image0
_chemical_formula_structural       F8K4O8P4
_chemical_formula_sum              "F8 K4 O8 P4"
_cell_length_a       7.74998
_cell_length_b       6.00211
_cell_length_c       7.30972
_cell_angle_alpha    90
_cell_angle_beta     90
_cell_angle_gamma    90

_space_group_name_H-M_alt    "P 1"
_space_group_IT_number       1

loop_
  _space_group_symop_operation_xyz
  'x, y, z'

loop_
  _atom_site_type_symbol
  _atom_site_label
  _atom_site_symmetry_multiplicity
  _atom_site_fract_x
  _atom_site_fract_y
  _atom_site_fract_z
  _atom_site_occupancy
  F   F1        1.0  0.26200  0.75000  0.03800  1.0000
  F   F2        1.0  0.56800  0.75000  0.05700  1.0000
  F   F3        1.0  0.06770  0.75000  0.44300  1.0000
  F   F4        1.0  0.76200  0.75000  0.46200  1.0000
  F   F5        1.0  0.23800  0.25000  0.53800  1.0000
  F   F6        1.0  0.93200  0.25000  0.55700  1.0000
  F   F7        1.0  0.43200  0.25000  0.94300  1.0000
  F   F8        1.0  0.73800  0.25000  0.96200  1.0000
  K   K1        1.0  0.15000  0.25000  0.14500  1.0000
  K   K2        1.0  0.65000  0.25000  0.35500  1.0000
  K   K3        1.0  0.35000  0.75000  0.64500  1.0000
  K   K4        1.0  0.85000  0.75000  0.85500  1.0000
  O   O1        1.0  0.90100  0.53300  0.21100  1.0000
  O   O2        1.0  0.90100  0.96700  0.21100  1.0000
  O   O3        1.0  0.40100  0.53300  0.28900  1.0000
  O   O4        1.0  0.40100  0.96700  0.28900  1.0000
  O   O5        1.0  0.59900  0.03320  0.71100  1.0000
  O   O6        1.0  0.59900  0.46700  0.71100  1.0000
  O   O7        1.0  0.09950  0.03320  0.78900  1.0000
  O   O8        1.0  0.09950  0.46700  0.78900  1.0000
  P   P1        1.0  0.40700  0.75000  0.19200  1.0000
  P   P2        1.0  0.90700  0.75000  0.30800  1.0000
  P   P3        1.0  0.09340  0.25000  0.69200  1.0000
  P   P4        1.0  0.59300  0.25000  0.80800  1.0000
