data_image0
_chemical_formula_structural       Au2Co2Na8O10
_chemical_formula_sum              "Au2 Co2 Na8 O10"
_cell_length_a       5.5259
_cell_length_b       10.4301
_cell_length_c       5.5237
_cell_angle_alpha    90
_cell_angle_beta     117.085
_cell_angle_gamma    90

_space_group_name_H-M_alt    "P 1"
_space_group_IT_number       1

loop_
  _space_group_symop_operation_xyz
  'x, y, z'

loop_
  _atom_site_type_symbol
  _atom_site_label
  _atom_site_symmetry_multiplicity
  _atom_site_fract_x
  _atom_site_fract_y
  _atom_site_fract_z
  _atom_site_occupancy
  Au  Au1       1.0  0.00000  0.00000  0.00000  1.0000
  Au  Au2       1.0  0.00000  0.50000  0.00000  1.0000
  Co  Co1       1.0  0.27300  0.75000  0.27300  1.0000
  Co  Co2       1.0  0.72700  0.25000  0.72700  1.0000
  Na  Na1       1.0  0.64200  0.75000  0.01260  1.0000
  Na  Na2       1.0  0.66800  0.00026  0.33200  1.0000
  Na  Na3       1.0  0.66800  0.50000  0.33200  1.0000
  Na  Na4       1.0  0.98800  0.25000  0.35800  1.0000
  Na  Na5       1.0  0.01150  0.75000  0.64200  1.0000
  Na  Na6       1.0  0.33200  0.50000  0.66800  1.0000
  Na  Na7       1.0  0.33200  0.00000  0.66800  1.0000
  Na  Na8       1.0  0.35800  0.25000  0.98700  1.0000
  O   O1        1.0  0.29800  0.61800  0.01470  1.0000
  O   O2        1.0  0.29800  0.88200  0.01470  1.0000
  O   O3        1.0  0.01430  0.61800  0.29800  1.0000
  O   O4        1.0  0.01430  0.88200  0.29800  1.0000
  O   O5        1.0  0.42300  0.25000  0.42300  1.0000
  O   O6        1.0  0.57700  0.75000  0.57700  1.0000
  O   O7        1.0  0.98600  0.11800  0.70200  1.0000
  O   O8        1.0  0.98600  0.38200  0.70200  1.0000
  O   O9        1.0  0.70200  0.11800  0.98500  1.0000
  O   O10       1.0  0.70200  0.38200  0.98500  1.0000
