data_image0
_chemical_formula_structural       B4F16Rb4
_chemical_formula_sum              "B4 F16 Rb4"
_cell_length_a       6.9753
_cell_length_b       8.74503
_cell_length_c       5.30497
_cell_angle_alpha    90
_cell_angle_beta     90
_cell_angle_gamma    90

_space_group_name_H-M_alt    "P 1"
_space_group_IT_number       1

loop_
  _space_group_symop_operation_xyz
  'x, y, z'

loop_
  _atom_site_type_symbol
  _atom_site_label
  _atom_site_symmetry_multiplicity
  _atom_site_fract_x
  _atom_site_fract_y
  _atom_site_fract_z
  _atom_site_occupancy
  B   B1        1.0  0.69600  0.05800  0.25000  1.0000
  B   B2        1.0  0.80400  0.55800  0.25000  1.0000
  B   B3        1.0  0.19600  0.44200  0.75000  1.0000
  B   B4        1.0  0.30400  0.94200  0.75000  1.0000
  F   F1        1.0  0.81300  0.07570  0.03360  1.0000
  F   F2        1.0  0.68700  0.57600  0.03360  1.0000
  F   F3        1.0  0.55400  0.17200  0.25000  1.0000
  F   F4        1.0  0.88500  0.41100  0.25000  1.0000
  F   F5        1.0  0.94600  0.67200  0.25000  1.0000
  F   F6        1.0  0.61500  0.91100  0.25000  1.0000
  F   F7        1.0  0.81300  0.07570  0.46600  1.0000
  F   F8        1.0  0.68700  0.57600  0.46600  1.0000
  F   F9        1.0  0.31300  0.42400  0.53400  1.0000
  F   F10       1.0  0.18700  0.92400  0.53400  1.0000
  F   F11       1.0  0.38500  0.08880  0.75000  1.0000
  F   F12       1.0  0.05430  0.32800  0.75000  1.0000
  F   F13       1.0  0.11500  0.58900  0.75000  1.0000
  F   F14       1.0  0.44600  0.82800  0.75000  1.0000
  F   F15       1.0  0.31300  0.42400  0.96600  1.0000
  F   F16       1.0  0.18700  0.92400  0.96600  1.0000
  Rb  Rb1       1.0  0.16100  0.18700  0.25000  1.0000
  Rb  Rb2       1.0  0.33900  0.68700  0.25000  1.0000
  Rb  Rb3       1.0  0.66100  0.31300  0.75000  1.0000
  Rb  Rb4       1.0  0.83900  0.81300  0.75000  1.0000
