data_image0
_chemical_formula_structural       Bi4F16K4
_chemical_formula_sum              "Bi4 F16 K4"
_cell_length_a       8.15055
_cell_length_b       8.15055
_cell_length_c       8.15055
_cell_angle_alpha    120
_cell_angle_beta     90
_cell_angle_gamma    120

_space_group_name_H-M_alt    "P 1"
_space_group_IT_number       1

loop_
  _space_group_symop_operation_xyz
  'x, y, z'

loop_
  _atom_site_type_symbol
  _atom_site_label
  _atom_site_symmetry_multiplicity
  _atom_site_fract_x
  _atom_site_fract_y
  _atom_site_fract_z
  _atom_site_occupancy
  Bi  Bi1       1.0  0.00000  0.50000  0.00000  1.0000
  Bi  Bi2       1.0  0.50000  0.00000  0.50000  1.0000
  Bi  Bi3       1.0  0.00000  0.00000  0.50000  1.0000
  Bi  Bi4       1.0  0.00000  0.50000  0.50000  1.0000
  F   F1        1.0  0.37500  0.25000  0.12500  1.0000
  F   F2        1.0  0.34800  0.75000  0.15200  1.0000
  F   F3        1.0  0.90200  0.30400  0.15200  1.0000
  F   F4        1.0  0.90200  0.75000  0.15200  1.0000
  F   F5        1.0  0.12500  0.75000  0.37500  1.0000
  F   F6        1.0  0.09800  0.25000  0.40200  1.0000
  F   F7        1.0  0.65200  0.25000  0.40200  1.0000
  F   F8        1.0  0.65200  0.80400  0.40200  1.0000
  F   F9        1.0  0.34800  0.19600  0.59800  1.0000
  F   F10       1.0  0.34800  0.75000  0.59800  1.0000
  F   F11       1.0  0.90200  0.75000  0.59800  1.0000
  F   F12       1.0  0.87500  0.25000  0.62500  1.0000
  F   F13       1.0  0.09800  0.25000  0.84800  1.0000
  F   F14       1.0  0.09800  0.69600  0.84800  1.0000
  F   F15       1.0  0.65200  0.25000  0.84800  1.0000
  F   F16       1.0  0.62500  0.75000  0.87500  1.0000
  K   K1        1.0  0.00000  0.00000  0.00000  1.0000
  K   K2        1.0  0.50000  0.00000  0.00000  1.0000
  K   K3        1.0  0.50000  0.50000  0.00000  1.0000
  K   K4        1.0  0.50000  0.50000  0.50000  1.0000
