data_image0
_chemical_formula_structural       F16K4Sm4
_chemical_formula_sum              "F16 K4 Sm4"
_cell_length_a       6.08395
_cell_length_b       15.0407
_cell_length_c       3.63051
_cell_angle_alpha    90
_cell_angle_beta     90
_cell_angle_gamma    90

_space_group_name_H-M_alt    "P 1"
_space_group_IT_number       1

loop_
  _space_group_symop_operation_xyz
  'x, y, z'

loop_
  _atom_site_type_symbol
  _atom_site_label
  _atom_site_symmetry_multiplicity
  _atom_site_fract_x
  _atom_site_fract_y
  _atom_site_fract_z
  _atom_site_occupancy
  F   F1        1.0  0.13900  0.04010  0.25000  1.0000
  F   F2        1.0  0.58600  0.19500  0.25000  1.0000
  F   F3        1.0  0.08580  0.30500  0.25000  1.0000
  F   F4        1.0  0.63900  0.46000  0.25000  1.0000
  F   F5        1.0  0.00627  0.56000  0.25000  1.0000
  F   F6        1.0  0.60400  0.63500  0.25000  1.0000
  F   F7        1.0  0.10400  0.86500  0.25000  1.0000
  F   F8        1.0  0.50600  0.94000  0.25000  1.0000
  F   F9        1.0  0.49400  0.05970  0.75000  1.0000
  F   F10       1.0  0.89600  0.13500  0.75000  1.0000
  F   F11       1.0  0.39600  0.36500  0.75000  1.0000
  F   F12       1.0  0.99400  0.44000  0.75000  1.0000
  F   F13       1.0  0.36100  0.54000  0.75000  1.0000
  F   F14       1.0  0.91400  0.69500  0.75000  1.0000
  F   F15       1.0  0.41400  0.80500  0.75000  1.0000
  F   F16       1.0  0.86100  0.96000  0.75000  1.0000
  K   K1        1.0  0.22700  0.70200  0.25000  1.0000
  K   K2        1.0  0.72700  0.79800  0.25000  1.0000
  K   K3        1.0  0.27300  0.20200  0.75000  1.0000
  K   K4        1.0  0.77300  0.29800  0.75000  1.0000
  Sm  Sm1       1.0  0.75100  0.06100  0.25000  1.0000
  Sm  Sm2       1.0  0.25100  0.43900  0.25000  1.0000
  Sm  Sm3       1.0  0.74900  0.56100  0.75000  1.0000
  Sm  Sm4       1.0  0.24900  0.93900  0.75000  1.0000
