data_image0
_chemical_formula_structural       Br6F6N6P6
_chemical_formula_sum              "Br6 F6 N6 P6"
_cell_length_a       7.67992
_cell_length_b       7.7746
_cell_length_c       7.7746
_cell_angle_alpha    77.2681
_cell_angle_beta     90
_cell_angle_gamma    90

_space_group_name_H-M_alt    "P 1"
_space_group_IT_number       1

loop_
  _space_group_symop_operation_xyz
  'x, y, z'

loop_
  _atom_site_type_symbol
  _atom_site_label
  _atom_site_symmetry_multiplicity
  _atom_site_fract_x
  _atom_site_fract_y
  _atom_site_fract_z
  _atom_site_occupancy
  Br  Br1       1.0  0.92800  0.24000  0.18900  1.0000
  Br  Br2       1.0  0.42800  0.18900  0.24000  1.0000
  Br  Br3       1.0  0.98500  0.74600  0.25400  1.0000
  Br  Br4       1.0  0.48500  0.25400  0.74600  1.0000
  Br  Br5       1.0  0.92800  0.81100  0.76000  1.0000
  Br  Br6       1.0  0.42800  0.76000  0.81100  1.0000
  F   F1        1.0  0.64600  0.55000  0.08140  1.0000
  F   F2        1.0  0.64600  0.91900  0.45000  1.0000
  F   F3        1.0  0.70000  0.50000  0.50000  1.0000
  F   F4        1.0  0.20000  0.50000  0.50000  1.0000
  F   F5        1.0  0.14600  0.08140  0.55000  1.0000
  F   F6        1.0  0.14600  0.45000  0.91900  1.0000
  N   N1        1.0  0.58100  0.84700  0.15300  1.0000
  N   N2        1.0  0.34300  0.57800  0.19800  1.0000
  N   N3        1.0  0.34300  0.80200  0.42200  1.0000
  N   N4        1.0  0.84300  0.19800  0.57800  1.0000
  N   N5        1.0  0.84300  0.42200  0.80200  1.0000
  N   N6        1.0  0.08060  0.15300  0.84700  1.0000
  P   P1        1.0  0.49700  0.68600  0.08690  1.0000
  P   P2        1.0  0.49700  0.91300  0.31400  1.0000
  P   P3        1.0  0.24400  0.65800  0.34200  1.0000
  P   P4        1.0  0.74400  0.34200  0.65800  1.0000
  P   P5        1.0  0.99700  0.08690  0.68600  1.0000
  P   P6        1.0  0.99700  0.31400  0.91300  1.0000
