data_image0
_chemical_formula_structural       B4Ba4F12O4
_chemical_formula_sum              "B4 Ba4 F12 O4"
_cell_length_a       8.90085
_cell_length_b       5.0828
_cell_length_c       6.76879
_cell_angle_alpha    90
_cell_angle_beta     90
_cell_angle_gamma    90

_space_group_name_H-M_alt    "P 1"
_space_group_IT_number       1

loop_
  _space_group_symop_operation_xyz
  'x, y, z'

loop_
  _atom_site_type_symbol
  _atom_site_label
  _atom_site_symmetry_multiplicity
  _atom_site_fract_x
  _atom_site_fract_y
  _atom_site_fract_z
  _atom_site_occupancy
  B   B1        1.0  0.42200  0.75000  0.17500  1.0000
  B   B2        1.0  0.92200  0.75000  0.32500  1.0000
  B   B3        1.0  0.07750  0.25000  0.67500  1.0000
  B   B4        1.0  0.57800  0.25000  0.82500  1.0000
  Ba  Ba1       1.0  0.19100  0.25000  0.17100  1.0000
  Ba  Ba2       1.0  0.69100  0.25000  0.32900  1.0000
  Ba  Ba3       1.0  0.30900  0.75000  0.67100  1.0000
  Ba  Ba4       1.0  0.80900  0.75000  0.82900  1.0000
  F   F1        1.0  0.57000  0.75000  0.08710  1.0000
  F   F2        1.0  0.93000  0.52400  0.18200  1.0000
  F   F3        1.0  0.93000  0.97600  0.18200  1.0000
  F   F4        1.0  0.43000  0.52400  0.31800  1.0000
  F   F5        1.0  0.43000  0.97600  0.31800  1.0000
  F   F6        1.0  0.07050  0.75000  0.41300  1.0000
  F   F7        1.0  0.93000  0.25000  0.58700  1.0000
  F   F8        1.0  0.57000  0.02410  0.68200  1.0000
  F   F9        1.0  0.57000  0.47600  0.68200  1.0000
  F   F10       1.0  0.07000  0.02410  0.81800  1.0000
  F   F11       1.0  0.07000  0.47600  0.81800  1.0000
  F   F12       1.0  0.43000  0.25000  0.91300  1.0000
  O   O1        1.0  0.29900  0.75000  0.06060  1.0000
  O   O2        1.0  0.79900  0.75000  0.43900  1.0000
  O   O3        1.0  0.20100  0.25000  0.56100  1.0000
  O   O4        1.0  0.70100  0.25000  0.93900  1.0000
