data_image0
_chemical_formula_structural       F6N6S6
_chemical_formula_sum              "F6 N6 S6"
_cell_length_a       6.29802
_cell_length_b       6.29802
_cell_length_c       6.29802
_cell_angle_alpha    99.7632
_cell_angle_beta     99.7632
_cell_angle_gamma    99.7632

_space_group_name_H-M_alt    "P 1"
_space_group_IT_number       1

loop_
  _space_group_symop_operation_xyz
  'x, y, z'

loop_
  _atom_site_type_symbol
  _atom_site_label
  _atom_site_symmetry_multiplicity
  _atom_site_fract_x
  _atom_site_fract_y
  _atom_site_fract_z
  _atom_site_occupancy
  F   F1        1.0  0.90500  0.68000  0.03580  1.0000
  F   F2        1.0  0.32000  0.96400  0.09510  1.0000
  F   F3        1.0  0.96400  0.09510  0.32000  1.0000
  F   F4        1.0  0.03580  0.90500  0.68000  1.0000
  F   F5        1.0  0.68000  0.03580  0.90500  1.0000
  F   F6        1.0  0.09510  0.32000  0.96400  1.0000
  N   N1        1.0  0.48200  0.37000  0.16700  1.0000
  N   N2        1.0  0.16700  0.48200  0.37000  1.0000
  N   N3        1.0  0.37000  0.16700  0.48200  1.0000
  N   N4        1.0  0.63000  0.83300  0.51800  1.0000
  N   N5        1.0  0.83300  0.51800  0.63000  1.0000
  N   N6        1.0  0.51800  0.63000  0.83300  1.0000
  S   S1        1.0  0.28100  0.49800  0.16400  1.0000
  S   S2        1.0  0.49800  0.16400  0.28100  1.0000
  S   S3        1.0  0.16400  0.28100  0.49800  1.0000
  S   S4        1.0  0.83600  0.71900  0.50200  1.0000
  S   S5        1.0  0.50200  0.83600  0.71900  1.0000
  S   S6        1.0  0.71900  0.50200  0.83600  1.0000
