data_image0
_chemical_formula_structural       Cl6Cr2
_chemical_formula_sum              "Cl6 Cr2"
_cell_length_a       5.98989
_cell_length_b       5.98989
_cell_length_c       6.8027
_cell_angle_alpha    63.8796
_cell_angle_beta     116.12
_cell_angle_gamma    120

_space_group_name_H-M_alt    "P 1"
_space_group_IT_number       1

loop_
  _space_group_symop_operation_xyz
  'x, y, z'

loop_
  _atom_site_type_symbol
  _atom_site_label
  _atom_site_symmetry_multiplicity
  _atom_site_fract_x
  _atom_site_fract_y
  _atom_site_fract_z
  _atom_site_occupancy
  Cl  Cl1       1.0  0.72100  0.92400  0.22700  1.0000
  Cl  Cl2       1.0  0.07550  0.57000  0.22700  1.0000
  Cl  Cl3       1.0  0.43000  0.27900  0.22700  1.0000
  Cl  Cl4       1.0  0.57000  0.72100  0.77300  1.0000
  Cl  Cl5       1.0  0.92400  0.43000  0.77300  1.0000
  Cl  Cl6       1.0  0.27900  0.07550  0.77300  1.0000
  Cr  Cr1       1.0  0.66700  0.33300  0.00019  1.0000
  Cr  Cr2       1.0  0.33300  0.66700  0.00000  1.0000
