data_image0
_chemical_formula_structural       CCo12Ge4U6
_chemical_formula_sum              "C1 Co12 Ge4 U6"
_cell_length_a       7.51259
_cell_length_b       7.51259
_cell_length_c       7.51259
_cell_angle_alpha    109.471
_cell_angle_beta     109.471
_cell_angle_gamma    109.471

_space_group_name_H-M_alt    "P 1"
_space_group_IT_number       1

loop_
  _space_group_symop_operation_xyz
  'x, y, z'

loop_
  _atom_site_type_symbol
  _atom_site_label
  _atom_site_symmetry_multiplicity
  _atom_site_fract_x
  _atom_site_fract_y
  _atom_site_fract_z
  _atom_site_occupancy
  C   C1        1.0  0.00000  0.00000  0.00000  1.0000
  Co  Co1       1.0  0.64900  0.35100  0.00000  1.0000
  Co  Co2       1.0  0.35100  0.64900  0.00000  1.0000
  Co  Co3       1.0  0.64900  0.64900  0.29700  1.0000
  Co  Co4       1.0  0.70300  0.35100  0.35100  1.0000
  Co  Co5       1.0  0.35100  0.70300  0.35100  1.0000
  Co  Co6       1.0  0.64900  0.00000  0.35100  1.0000
  Co  Co7       1.0  0.00000  0.64900  0.35100  1.0000
  Co  Co8       1.0  0.35100  0.00000  0.64900  1.0000
  Co  Co9       1.0  0.64900  0.29700  0.64900  1.0000
  Co  Co10      1.0  0.00000  0.35100  0.64900  1.0000
  Co  Co11      1.0  0.29700  0.64900  0.64900  1.0000
  Co  Co12      1.0  0.35100  0.35100  0.70300  1.0000
  Ge  Ge1       1.0  0.50000  0.00000  0.00000  1.0000
  Ge  Ge2       1.0  0.00000  0.50000  0.00000  1.0000
  Ge  Ge3       1.0  0.00000  0.00000  0.50000  1.0000
  Ge  Ge4       1.0  0.50000  0.50000  0.50000  1.0000
  U   U1        1.0  0.27900  0.27900  0.00000  1.0000
  U   U2        1.0  0.72100  0.72100  0.00000  1.0000
  U   U3        1.0  0.27900  0.00000  0.27900  1.0000
  U   U4        1.0  0.00000  0.27900  0.27900  1.0000
  U   U5        1.0  0.72100  0.00000  0.72100  1.0000
  U   U6        1.0  0.00000  0.72100  0.72100  1.0000
