data_image0
_chemical_formula_structural       O16Sb4Ta4
_chemical_formula_sum              "O16 Sb4 Ta4"
_cell_length_a       6.07191
_cell_length_b       5.67679
_cell_length_c       10.7858
_cell_angle_alpha    90
_cell_angle_beta     90
_cell_angle_gamma    90

_space_group_name_H-M_alt    "P 1"
_space_group_IT_number       1

loop_
  _space_group_symop_operation_xyz
  'x, y, z'

loop_
  _atom_site_type_symbol
  _atom_site_label
  _atom_site_symmetry_multiplicity
  _atom_site_fract_x
  _atom_site_fract_y
  _atom_site_fract_z
  _atom_site_occupancy
  O   O1        1.0  0.01050  0.20400  0.06660  1.0000
  O   O2        1.0  0.51100  0.29600  0.06660  1.0000
  O   O3        1.0  0.73200  0.02190  0.22700  1.0000
  O   O4        1.0  0.23200  0.47800  0.22700  1.0000
  O   O5        1.0  0.26800  0.02190  0.27300  1.0000
  O   O6        1.0  0.76800  0.47800  0.27300  1.0000
  O   O7        1.0  0.98900  0.20400  0.43300  1.0000
  O   O8        1.0  0.48900  0.29600  0.43300  1.0000
  O   O9        1.0  0.48900  0.70400  0.56700  1.0000
  O   O10       1.0  0.98900  0.79600  0.56700  1.0000
  O   O11       1.0  0.76800  0.52200  0.72700  1.0000
  O   O12       1.0  0.26800  0.97800  0.72700  1.0000
  O   O13       1.0  0.23200  0.52200  0.77300  1.0000
  O   O14       1.0  0.73200  0.97800  0.77300  1.0000
  O   O15       1.0  0.51100  0.70400  0.93300  1.0000
  O   O16       1.0  0.01050  0.79600  0.93300  1.0000
  Sb  Sb1       1.0  0.75300  0.00000  0.00000  1.0000
  Sb  Sb2       1.0  0.25300  0.50000  0.00000  1.0000
  Sb  Sb3       1.0  0.24700  0.00000  0.50000  1.0000
  Sb  Sb4       1.0  0.74700  0.50000  0.50000  1.0000
  Ta  Ta1       1.0  0.00000  0.22900  0.25000  1.0000
  Ta  Ta2       1.0  0.50000  0.27100  0.25000  1.0000
  Ta  Ta3       1.0  0.50000  0.72900  0.75000  1.0000
  Ta  Ta4       1.0  0.00000  0.77100  0.75000  1.0000
