data_image0
_chemical_formula_structural       AgAsC4F6N4S8
_chemical_formula_sum              "Ag1 As1 C4 F6 N4 S8"
_cell_length_a       8.04882
_cell_length_b       8.04882
_cell_length_c       6.52333
_cell_angle_alpha    90
_cell_angle_beta     90
_cell_angle_gamma    90

_space_group_name_H-M_alt    "P 1"
_space_group_IT_number       1

loop_
  _space_group_symop_operation_xyz
  'x, y, z'

loop_
  _atom_site_type_symbol
  _atom_site_label
  _atom_site_symmetry_multiplicity
  _atom_site_fract_x
  _atom_site_fract_y
  _atom_site_fract_z
  _atom_site_occupancy
  Ag  Ag1       1.0  0.00000  0.00000  0.00000  1.0000
  As  As1       1.0  0.50000  0.50000  0.00000  1.0000
  C   C1        1.0  0.27900  0.09860  0.33900  1.0000
  C   C2        1.0  0.72100  0.90100  0.33900  1.0000
  C   C3        1.0  0.90100  0.27900  0.66100  1.0000
  C   C4        1.0  0.09860  0.72100  0.66100  1.0000
  F   F1        1.0  0.60900  0.30900  0.00046  1.0000
  F   F2        1.0  0.39100  0.69100  0.00046  1.0000
  F   F3        1.0  0.50000  0.50000  0.27300  1.0000
  F   F4        1.0  0.50000  0.50000  0.72700  1.0000
  F   F5        1.0  0.30900  0.39100  0.00000  1.0000
  F   F6        1.0  0.69100  0.60900  0.00000  1.0000
  N   N1        1.0  0.21500  0.01900  0.21000  1.0000
  N   N2        1.0  0.78500  0.98100  0.21000  1.0000
  N   N3        1.0  0.98100  0.21500  0.79000  1.0000
  N   N4        1.0  0.01900  0.78500  0.79000  1.0000
  S   S1        1.0  0.96400  0.38100  0.24900  1.0000
  S   S2        1.0  0.03560  0.61900  0.24900  1.0000
  S   S3        1.0  0.78200  0.36200  0.48000  1.0000
  S   S4        1.0  0.21800  0.63800  0.48000  1.0000
  S   S5        1.0  0.36200  0.21800  0.52000  1.0000
  S   S6        1.0  0.63800  0.78200  0.52000  1.0000
  S   S7        1.0  0.38100  0.03560  0.75100  1.0000
  S   S8        1.0  0.61900  0.96400  0.75100  1.0000
