data_image0
_chemical_formula_structural       Cr4F16Na4
_chemical_formula_sum              "Cr4 F16 Na4"
_cell_length_a       7.50212
_cell_length_b       5.18597
_cell_length_c       7.20365
_cell_angle_alpha    90
_cell_angle_beta     100.248
_cell_angle_gamma    90

_space_group_name_H-M_alt    "P 1"
_space_group_IT_number       1

loop_
  _space_group_symop_operation_xyz
  'x, y, z'

loop_
  _atom_site_type_symbol
  _atom_site_label
  _atom_site_symmetry_multiplicity
  _atom_site_fract_x
  _atom_site_fract_y
  _atom_site_fract_z
  _atom_site_occupancy
  Cr  Cr1       1.0  0.82900  0.76500  0.20000  1.0000
  Cr  Cr2       1.0  0.17100  0.26500  0.30000  1.0000
  Cr  Cr3       1.0  0.82900  0.73500  0.70000  1.0000
  Cr  Cr4       1.0  0.17100  0.23500  0.80000  1.0000
  F   F1        1.0  0.16300  0.12000  0.05110  1.0000
  F   F2        1.0  0.68400  0.48500  0.11700  1.0000
  F   F3        1.0  0.61900  0.96700  0.18500  1.0000
  F   F4        1.0  0.04980  0.57800  0.19200  1.0000
  F   F5        1.0  0.95000  0.07790  0.30800  1.0000
  F   F6        1.0  0.38100  0.46700  0.31500  1.0000
  F   F7        1.0  0.31600  0.98500  0.38300  1.0000
  F   F8        1.0  0.83700  0.62000  0.44900  1.0000
  F   F9        1.0  0.16300  0.38000  0.55100  1.0000
  F   F10       1.0  0.68400  0.01480  0.61700  1.0000
  F   F11       1.0  0.61900  0.53300  0.68500  1.0000
  F   F12       1.0  0.04980  0.92200  0.69200  1.0000
  F   F13       1.0  0.95000  0.42200  0.80800  1.0000
  F   F14       1.0  0.38100  0.03290  0.81500  1.0000
  F   F15       1.0  0.31600  0.51500  0.88300  1.0000
  F   F16       1.0  0.83700  0.88000  0.94900  1.0000
  Na  Na1       1.0  0.35900  0.78300  0.11000  1.0000
  Na  Na2       1.0  0.64100  0.28300  0.39000  1.0000
  Na  Na3       1.0  0.35900  0.71700  0.61000  1.0000
  Na  Na4       1.0  0.64100  0.21700  0.89000  1.0000
