data_image0
_chemical_formula_structural       Cs4Mn4O16
_chemical_formula_sum              "Cs4 Mn4 O16"
_cell_length_a       9.8263
_cell_length_b       5.6214
_cell_length_c       7.75345
_cell_angle_alpha    90
_cell_angle_beta     90
_cell_angle_gamma    90

_space_group_name_H-M_alt    "P 1"
_space_group_IT_number       1

loop_
  _space_group_symop_operation_xyz
  'x, y, z'

loop_
  _atom_site_type_symbol
  _atom_site_label
  _atom_site_symmetry_multiplicity
  _atom_site_fract_x
  _atom_site_fract_y
  _atom_site_fract_z
  _atom_site_occupancy
  Cs  Cs1       1.0  0.80400  0.75000  0.15800  1.0000
  Cs  Cs2       1.0  0.30400  0.75000  0.34200  1.0000
  Cs  Cs3       1.0  0.69600  0.25000  0.65800  1.0000
  Cs  Cs4       1.0  0.19600  0.25000  0.84200  1.0000
  Mn  Mn1       1.0  0.54500  0.25000  0.21000  1.0000
  Mn  Mn2       1.0  0.04520  0.25000  0.29000  1.0000
  Mn  Mn3       1.0  0.95500  0.75000  0.71000  1.0000
  Mn  Mn4       1.0  0.45500  0.75000  0.79000  1.0000
  O   O1        1.0  0.65100  0.25000  0.05040  1.0000
  O   O2        1.0  0.39000  0.25000  0.14300  1.0000
  O   O3        1.0  0.07130  0.01600  0.17300  1.0000
  O   O4        1.0  0.07130  0.48400  0.17300  1.0000
  O   O5        1.0  0.57100  0.01600  0.32700  1.0000
  O   O6        1.0  0.57100  0.48400  0.32700  1.0000
  O   O7        1.0  0.89000  0.25000  0.35700  1.0000
  O   O8        1.0  0.15100  0.25000  0.45000  1.0000
  O   O9        1.0  0.84900  0.75000  0.55000  1.0000
  O   O10       1.0  0.11000  0.75000  0.64300  1.0000
  O   O11       1.0  0.42900  0.51600  0.67300  1.0000
  O   O12       1.0  0.42900  0.98400  0.67300  1.0000
  O   O13       1.0  0.92900  0.51600  0.82700  1.0000
  O   O14       1.0  0.92900  0.98400  0.82700  1.0000
  O   O15       1.0  0.61000  0.75000  0.85700  1.0000
  O   O16       1.0  0.34900  0.75000  0.95000  1.0000
