data_image0
_chemical_formula_structural       O16Se8
_chemical_formula_sum              "O16 Se8"
_cell_length_a       7.90136
_cell_length_b       7.90136
_cell_length_c       5.00275
_cell_angle_alpha    90
_cell_angle_beta     90
_cell_angle_gamma    90

_space_group_name_H-M_alt    "P 1"
_space_group_IT_number       1

loop_
  _space_group_symop_operation_xyz
  'x, y, z'

loop_
  _atom_site_type_symbol
  _atom_site_label
  _atom_site_symmetry_multiplicity
  _atom_site_fract_x
  _atom_site_fract_y
  _atom_site_fract_z
  _atom_site_occupancy
  O   O1        1.0  0.37700  0.87700  0.25000  1.0000
  O   O2        1.0  0.62300  0.12300  0.25000  1.0000
  O   O3        1.0  0.87700  0.62300  0.75000  1.0000
  O   O4        1.0  0.12300  0.37700  0.75000  1.0000
  O   O5        1.0  0.62300  0.12300  0.75000  1.0000
  O   O6        1.0  0.37700  0.87700  0.75000  1.0000
  O   O7        1.0  0.12300  0.37700  0.25000  1.0000
  O   O8        1.0  0.87700  0.62300  0.25000  1.0000
  O   O9        1.0  0.42300  0.33400  0.00000  1.0000
  O   O10       1.0  0.57700  0.66600  0.00000  1.0000
  O   O11       1.0  0.92300  0.16600  0.00000  1.0000
  O   O12       1.0  0.07670  0.83400  0.00000  1.0000
  O   O13       1.0  0.16600  0.07670  0.50000  1.0000
  O   O14       1.0  0.83400  0.92300  0.50000  1.0000
  O   O15       1.0  0.33400  0.57700  0.50000  1.0000
  O   O16       1.0  0.66600  0.42300  0.50000  1.0000
  Se  Se1       1.0  0.13000  0.21000  0.00000  1.0000
  Se  Se2       1.0  0.87000  0.79000  0.00000  1.0000
  Se  Se3       1.0  0.63000  0.29000  0.00000  1.0000
  Se  Se4       1.0  0.37000  0.71000  0.00000  1.0000
  Se  Se5       1.0  0.29000  0.37000  0.50000  1.0000
  Se  Se6       1.0  0.71000  0.63000  0.50000  1.0000
  Se  Se7       1.0  0.21000  0.87000  0.50000  1.0000
  Se  Se8       1.0  0.79000  0.13000  0.50000  1.0000
