data_image0
_chemical_formula_structural       Cl6F6N6P6
_chemical_formula_sum              "Cl6 F6 N6 P6"
_cell_length_a       7.37376
_cell_length_b       7.61306
_cell_length_c       7.61306
_cell_angle_alpha    74.1511
_cell_angle_beta     90
_cell_angle_gamma    90

_space_group_name_H-M_alt    "P 1"
_space_group_IT_number       1

loop_
  _space_group_symop_operation_xyz
  'x, y, z'

loop_
  _atom_site_type_symbol
  _atom_site_label
  _atom_site_symmetry_multiplicity
  _atom_site_fract_x
  _atom_site_fract_y
  _atom_site_fract_z
  _atom_site_occupancy
  Cl  Cl1       1.0  0.94200  0.23700  0.19000  1.0000
  Cl  Cl2       1.0  0.44200  0.19000  0.23700  1.0000
  Cl  Cl3       1.0  0.97900  0.74600  0.25400  1.0000
  Cl  Cl4       1.0  0.47900  0.25400  0.74600  1.0000
  Cl  Cl5       1.0  0.94200  0.81000  0.76300  1.0000
  Cl  Cl6       1.0  0.44200  0.76300  0.81000  1.0000
  F   F1        1.0  0.65200  0.55800  0.08610  1.0000
  F   F2        1.0  0.65200  0.91400  0.44200  1.0000
  F   F3        1.0  0.68500  0.50200  0.49800  1.0000
  F   F4        1.0  0.18500  0.49800  0.50200  1.0000
  F   F5        1.0  0.15200  0.08610  0.55800  1.0000
  F   F6        1.0  0.15200  0.44200  0.91400  1.0000
  N   N1        1.0  0.57500  0.87000  0.13000  1.0000
  N   N2        1.0  0.32900  0.58900  0.18700  1.0000
  N   N3        1.0  0.32900  0.81300  0.41100  1.0000
  N   N4        1.0  0.82900  0.18700  0.58900  1.0000
  N   N5        1.0  0.82900  0.41100  0.81300  1.0000
  N   N6        1.0  0.07510  0.13000  0.87000  1.0000
  P   P1        1.0  0.49500  0.69900  0.07460  1.0000
  P   P2        1.0  0.49500  0.92500  0.30100  1.0000
  P   P3        1.0  0.22900  0.66600  0.33400  1.0000
  P   P4        1.0  0.72900  0.33400  0.66600  1.0000
  P   P5        1.0  0.99500  0.07460  0.69900  1.0000
  P   P6        1.0  0.99500  0.30100  0.92500  1.0000
