data_image0
_chemical_formula_structural       Cl4Cs4F12Sb4
_chemical_formula_sum              "Cl4 Cs4 F12 Sb4"
_cell_length_a       8.79654
_cell_length_b       8.79654
_cell_length_c       8.79654
_cell_angle_alpha    100.304
_cell_angle_beta     114.241
_cell_angle_gamma    114.241

_space_group_name_H-M_alt    "P 1"
_space_group_IT_number       1

loop_
  _space_group_symop_operation_xyz
  'x, y, z'

loop_
  _atom_site_type_symbol
  _atom_site_label
  _atom_site_symmetry_multiplicity
  _atom_site_fract_x
  _atom_site_fract_y
  _atom_site_fract_z
  _atom_site_occupancy
  Cl  Cl1       1.0  0.29200  0.29200  0.00000  1.0000
  Cl  Cl2       1.0  0.70800  0.70800  0.00000  1.0000
  Cl  Cl3       1.0  0.29200  0.00000  0.29200  1.0000
  Cl  Cl4       1.0  0.70800  0.00000  0.70800  1.0000
  Cs  Cs1       1.0  0.00000  0.19100  0.19100  1.0000
  Cs  Cs2       1.0  0.50000  0.75000  0.25000  1.0000
  Cs  Cs3       1.0  0.50000  0.25000  0.75000  1.0000
  Cs  Cs4       1.0  0.00000  0.80900  0.80900  1.0000
  F   F1        1.0  0.45200  0.03170  0.03170  1.0000
  F   F2        1.0  0.76200  0.36500  0.16100  1.0000
  F   F3        1.0  0.76200  0.16100  0.36500  1.0000
  F   F4        1.0  0.79600  0.63500  0.39700  1.0000
  F   F5        1.0  0.23800  0.60300  0.39900  1.0000
  F   F6        1.0  0.00000  0.96800  0.42000  1.0000
  F   F7        1.0  0.54800  0.58000  0.58000  1.0000
  F   F8        1.0  0.20400  0.83900  0.60100  1.0000
  F   F9        1.0  0.23800  0.39900  0.60300  1.0000
  F   F10       1.0  0.79600  0.39700  0.63500  1.0000
  F   F11       1.0  0.20400  0.60100  0.83900  1.0000
  F   F12       1.0  0.00000  0.42000  0.96800  1.0000
  Sb  Sb1       1.0  0.58600  0.25500  0.25500  1.0000
  Sb  Sb2       1.0  0.00000  0.74500  0.33100  1.0000
  Sb  Sb3       1.0  0.41400  0.66900  0.66900  1.0000
  Sb  Sb4       1.0  0.00000  0.33100  0.74500  1.0000
