data_image0
_chemical_formula_structural       F16Na4Sb4
_chemical_formula_sum              "F16 Na4 Sb4"
_cell_length_a       7.73607
_cell_length_b       5.39473
_cell_length_c       8.14906
_cell_angle_alpha    90
_cell_angle_beta     91.0881
_cell_angle_gamma    90

_space_group_name_H-M_alt    "P 1"
_space_group_IT_number       1

loop_
  _space_group_symop_operation_xyz
  'x, y, z'

loop_
  _atom_site_type_symbol
  _atom_site_label
  _atom_site_symmetry_multiplicity
  _atom_site_fract_x
  _atom_site_fract_y
  _atom_site_fract_z
  _atom_site_occupancy
  F   F1        1.0  0.17500  0.58100  0.07620  1.0000
  F   F2        1.0  0.70900  0.93700  0.14800  1.0000
  F   F3        1.0  0.10900  0.10900  0.15500  1.0000
  F   F4        1.0  0.59800  0.48800  0.20100  1.0000
  F   F5        1.0  0.40200  0.98800  0.29900  1.0000
  F   F6        1.0  0.89100  0.60900  0.34500  1.0000
  F   F7        1.0  0.29100  0.43700  0.35200  1.0000
  F   F8        1.0  0.82500  0.08140  0.42400  1.0000
  F   F9        1.0  0.17500  0.91900  0.57600  1.0000
  F   F10       1.0  0.70900  0.56300  0.64800  1.0000
  F   F11       1.0  0.10900  0.39100  0.65500  1.0000
  F   F12       1.0  0.59800  0.01190  0.70100  1.0000
  F   F13       1.0  0.40200  0.51200  0.79900  1.0000
  F   F14       1.0  0.89100  0.89100  0.84500  1.0000
  F   F15       1.0  0.29100  0.06250  0.85200  1.0000
  F   F16       1.0  0.82500  0.41900  0.92400  1.0000
  Na  Na1       1.0  0.86100  0.28700  0.17600  1.0000
  Na  Na2       1.0  0.13900  0.78700  0.32400  1.0000
  Na  Na3       1.0  0.86100  0.21300  0.67600  1.0000
  Na  Na4       1.0  0.13900  0.71300  0.82400  1.0000
  Sb  Sb1       1.0  0.33600  0.28500  0.12800  1.0000
  Sb  Sb2       1.0  0.66400  0.78500  0.37200  1.0000
  Sb  Sb3       1.0  0.33600  0.21500  0.62800  1.0000
  Sb  Sb4       1.0  0.66400  0.71500  0.87200  1.0000
