data_image0
_chemical_formula_structural       Co9S8
_chemical_formula_sum              "Co9 S8"
_cell_length_a       6.91923
_cell_length_b       6.91923
_cell_length_c       6.91923
_cell_angle_alpha    120
_cell_angle_beta     90
_cell_angle_gamma    120

_space_group_name_H-M_alt    "P 1"
_space_group_IT_number       1

loop_
  _space_group_symop_operation_xyz
  'x, y, z'

loop_
  _atom_site_type_symbol
  _atom_site_label
  _atom_site_symmetry_multiplicity
  _atom_site_fract_x
  _atom_site_fract_y
  _atom_site_fract_z
  _atom_site_occupancy
  Co  Co1       1.0  0.38000  0.25300  0.12700  1.0000
  Co  Co2       1.0  0.87300  0.25300  0.12700  1.0000
  Co  Co3       1.0  0.87300  0.74700  0.12700  1.0000
  Co  Co4       1.0  0.12700  0.25300  0.38000  1.0000
  Co  Co5       1.0  0.50000  0.00000  0.50000  1.0000
  Co  Co6       1.0  0.87300  0.74700  0.62000  1.0000
  Co  Co7       1.0  0.12700  0.25300  0.87300  1.0000
  Co  Co8       1.0  0.12700  0.74700  0.87300  1.0000
  Co  Co9       1.0  0.62000  0.74700  0.87300  1.0000
  S   S1        1.0  0.75000  0.50000  0.25000  1.0000
  S   S2        1.0  0.26200  0.00000  0.26200  1.0000
  S   S3        1.0  0.73800  0.00000  0.26200  1.0000
  S   S4        1.0  0.26200  0.52400  0.26200  1.0000
  S   S5        1.0  0.26200  0.00000  0.73800  1.0000
  S   S6        1.0  0.73800  0.00000  0.73800  1.0000
  S   S7        1.0  0.73800  0.47600  0.73800  1.0000
  S   S8        1.0  0.25000  0.50000  0.75000  1.0000
