data_image0
_chemical_formula_structural       Hg4K4S12Sb4
_chemical_formula_sum              "Hg4 K4 S12 Sb4"
_cell_length_a       6.37885
_cell_length_b       6.37885
_cell_length_c       17.2765
_cell_angle_alpha    79.5008
_cell_angle_beta     100.499
_cell_angle_gamma    90.9905

_space_group_name_H-M_alt    "P 1"
_space_group_IT_number       1

loop_
  _space_group_symop_operation_xyz
  'x, y, z'

loop_
  _atom_site_type_symbol
  _atom_site_label
  _atom_site_symmetry_multiplicity
  _atom_site_fract_x
  _atom_site_fract_y
  _atom_site_fract_z
  _atom_site_occupancy
  Hg  Hg1       1.0  0.33100  0.83100  0.25000  1.0000
  Hg  Hg2       1.0  0.81300  0.31300  0.25000  1.0000
  Hg  Hg3       1.0  0.66900  0.16900  0.75000  1.0000
  Hg  Hg4       1.0  0.18700  0.68700  0.75000  1.0000
  K   K1        1.0  0.75100  0.89100  0.08210  1.0000
  K   K2        1.0  0.39100  0.25100  0.41800  1.0000
  K   K3        1.0  0.60900  0.74900  0.58200  1.0000
  K   K4        1.0  0.24900  0.10900  0.91800  1.0000
  S   S1        1.0  0.24900  0.80500  0.10400  1.0000
  S   S2        1.0  0.65200  0.37100  0.10500  1.0000
  S   S3        1.0  0.24200  0.26900  0.23300  1.0000
  S   S4        1.0  0.76900  0.74200  0.26700  1.0000
  S   S5        1.0  0.87100  0.15200  0.39500  1.0000
  S   S6        1.0  0.30500  0.74900  0.39600  1.0000
  S   S7        1.0  0.69500  0.25100  0.60400  1.0000
  S   S8        1.0  0.12900  0.84800  0.60500  1.0000
  S   S9        1.0  0.23100  0.25800  0.73300  1.0000
  S   S10       1.0  0.75800  0.73100  0.76700  1.0000
  S   S11       1.0  0.34800  0.62900  0.89500  1.0000
  S   S12       1.0  0.75100  0.19500  0.89600  1.0000
  Sb  Sb1       1.0  0.26300  0.42100  0.09560  1.0000
  Sb  Sb2       1.0  0.92100  0.76300  0.40400  1.0000
  Sb  Sb3       1.0  0.07880  0.23700  0.59600  1.0000
  Sb  Sb4       1.0  0.73700  0.57900  0.90400  1.0000
