data_image0
_chemical_formula_structural       Al4Cl16Co2
_chemical_formula_sum              "Al4 Cl16 Co2"
_cell_length_a       7.73503
_cell_length_b       9.30002
_cell_length_c       9.6349
_cell_angle_alpha    104.785
_cell_angle_beta     113.666
_cell_angle_gamma    65.4265

_space_group_name_H-M_alt    "P 1"
_space_group_IT_number       1

loop_
  _space_group_symop_operation_xyz
  'x, y, z'

loop_
  _atom_site_type_symbol
  _atom_site_label
  _atom_site_symmetry_multiplicity
  _atom_site_fract_x
  _atom_site_fract_y
  _atom_site_fract_z
  _atom_site_occupancy
  Al  Al1       1.0  0.33400  0.86000  0.03220  1.0000
  Al  Al2       1.0  0.16200  0.64000  0.46800  1.0000
  Al  Al3       1.0  0.83800  0.36000  0.53200  1.0000
  Al  Al4       1.0  0.66600  0.14000  0.96800  1.0000
  Cl  Cl1       1.0  0.16900  0.71200  0.02020  1.0000
  Cl  Cl2       1.0  0.63900  0.73400  0.05260  1.0000
  Cl  Cl3       1.0  0.84400  0.04860  0.18900  1.0000
  Cl  Cl4       1.0  0.31800  0.04940  0.22000  1.0000
  Cl  Cl5       1.0  0.14800  0.45100  0.28000  1.0000
  Cl  Cl6       1.0  0.70400  0.45100  0.31100  1.0000
  Cl  Cl7       1.0  0.32100  0.76600  0.44700  1.0000
  Cl  Cl8       1.0  0.86100  0.78800  0.48000  1.0000
  Cl  Cl9       1.0  0.13900  0.21200  0.52000  1.0000
  Cl  Cl10      1.0  0.67900  0.23400  0.55300  1.0000
  Cl  Cl11      1.0  0.29600  0.54900  0.68900  1.0000
  Cl  Cl12      1.0  0.85200  0.54900  0.72000  1.0000
  Cl  Cl13      1.0  0.68200  0.95100  0.78000  1.0000
  Cl  Cl14      1.0  0.15600  0.95100  0.81100  1.0000
  Cl  Cl15      1.0  0.36100  0.26600  0.94700  1.0000
  Cl  Cl16      1.0  0.83100  0.28800  0.98000  1.0000
  Co  Co1       1.0  0.00094  0.25000  0.25000  1.0000
  Co  Co2       1.0  0.99900  0.75000  0.75000  1.0000
