data_image0
_chemical_formula_structural       Ce5Co4Ge13
_chemical_formula_sum              "Ce5 Co4 Ge13"
_cell_length_a       4.31691
_cell_length_b       4.34111
_cell_length_c       22.915
_cell_angle_alpha    90
_cell_angle_beta     84.5951
_cell_angle_gamma    90

_space_group_name_H-M_alt    "P 1"
_space_group_IT_number       1

loop_
  _space_group_symop_operation_xyz
  'x, y, z'

loop_
  _atom_site_type_symbol
  _atom_site_label
  _atom_site_symmetry_multiplicity
  _atom_site_fract_x
  _atom_site_fract_y
  _atom_site_fract_z
  _atom_site_occupancy
  Ce  Ce1       1.0  0.00000  0.00000  0.00000  1.0000
  Ce  Ce2       1.0  0.39300  0.50000  0.21400  1.0000
  Ce  Ce3       1.0  0.78700  0.00000  0.42600  1.0000
  Ce  Ce4       1.0  0.21300  0.00000  0.57400  1.0000
  Ce  Ce5       1.0  0.60700  0.50000  0.78600  1.0000
  Co  Co1       1.0  0.92800  0.00000  0.14300  1.0000
  Co  Co2       1.0  0.32000  0.50000  0.36100  1.0000
  Co  Co3       1.0  0.68000  0.50000  0.63900  1.0000
  Co  Co4       1.0  0.07150  0.00000  0.85700  1.0000
  Ge  Ge1       1.0  0.50000  0.50000  0.00000  1.0000
  Ge  Ge2       1.0  0.94900  0.50000  0.10100  1.0000
  Ge  Ge3       1.0  0.44900  0.00000  0.10200  1.0000
  Ge  Ge4       1.0  0.87900  0.00000  0.24300  1.0000
  Ge  Ge5       1.0  0.84000  0.50000  0.31900  1.0000
  Ge  Ge6       1.0  0.34000  0.00000  0.32000  1.0000
  Ge  Ge7       1.0  0.26700  0.50000  0.46500  1.0000
  Ge  Ge8       1.0  0.73300  0.50000  0.53500  1.0000
  Ge  Ge9       1.0  0.66000  0.00000  0.68000  1.0000
  Ge  Ge10      1.0  0.16000  0.50000  0.68100  1.0000
  Ge  Ge11      1.0  0.12100  0.00000  0.75700  1.0000
  Ge  Ge12      1.0  0.55100  0.00000  0.89800  1.0000
  Ge  Ge13      1.0  0.05070  0.50000  0.89900  1.0000
