data_image0
_chemical_formula_structural       Br16S4W4
_chemical_formula_sum              "Br16 S4 W4"
_cell_length_a       10.3562
_cell_length_b       6.40901
_cell_length_c       13.4919
_cell_angle_alpha    90
_cell_angle_beta     110.426
_cell_angle_gamma    90

_space_group_name_H-M_alt    "P 1"
_space_group_IT_number       1

loop_
  _space_group_symop_operation_xyz
  'x, y, z'

loop_
  _atom_site_type_symbol
  _atom_site_label
  _atom_site_symmetry_multiplicity
  _atom_site_fract_x
  _atom_site_fract_y
  _atom_site_fract_z
  _atom_site_occupancy
  Br  Br1       1.0  0.97900  0.23800  0.07310  1.0000
  Br  Br2       1.0  0.79900  0.80400  0.09970  1.0000
  Br  Br3       1.0  0.37800  0.20200  0.16600  1.0000
  Br  Br4       1.0  0.19600  0.77600  0.19500  1.0000
  Br  Br5       1.0  0.80400  0.27600  0.30500  1.0000
  Br  Br6       1.0  0.62200  0.70200  0.33400  1.0000
  Br  Br7       1.0  0.20100  0.30400  0.40000  1.0000
  Br  Br8       1.0  0.02090  0.73800  0.42700  1.0000
  Br  Br9       1.0  0.97900  0.26200  0.57300  1.0000
  Br  Br10      1.0  0.79900  0.69600  0.60000  1.0000
  Br  Br11      1.0  0.37800  0.29800  0.66600  1.0000
  Br  Br12      1.0  0.19600  0.72400  0.69500  1.0000
  Br  Br13      1.0  0.80400  0.22400  0.80500  1.0000
  Br  Br14      1.0  0.62200  0.79800  0.83400  1.0000
  Br  Br15      1.0  0.20100  0.19600  0.90000  1.0000
  Br  Br16      1.0  0.02090  0.76200  0.92700  1.0000
  S   S1        1.0  0.38500  0.73600  0.01980  1.0000
  S   S2        1.0  0.61500  0.23600  0.48000  1.0000
  S   S3        1.0  0.38500  0.76400  0.52000  1.0000
  S   S4        1.0  0.61500  0.26400  0.98000  1.0000
  W   W1        1.0  0.23700  0.93600  0.04230  1.0000
  W   W2        1.0  0.76300  0.43600  0.45800  1.0000
  W   W3        1.0  0.23700  0.56400  0.54200  1.0000
  W   W4        1.0  0.76300  0.06440  0.95800  1.0000
