data_image0
_chemical_formula_structural       Li2Mo4O16Y2
_chemical_formula_sum              "Li2 Mo4 O16 Y2"
_cell_length_a       6.65674
_cell_length_b       10.2115
_cell_length_c       5.13341
_cell_angle_alpha    98.6204
_cell_angle_beta     112.825
_cell_angle_gamma    71.5744

_space_group_name_H-M_alt    "P 1"
_space_group_IT_number       1

loop_
  _space_group_symop_operation_xyz
  'x, y, z'

loop_
  _atom_site_type_symbol
  _atom_site_label
  _atom_site_symmetry_multiplicity
  _atom_site_fract_x
  _atom_site_fract_y
  _atom_site_fract_z
  _atom_site_occupancy
  Li  Li1       1.0  0.37200  0.87000  0.04180  1.0000
  Li  Li2       1.0  0.62800  0.13000  0.95800  1.0000
  Mo  Mo1       1.0  0.15300  0.19800  0.26800  1.0000
  Mo  Mo2       1.0  0.29000  0.68900  0.44900  1.0000
  Mo  Mo3       1.0  0.71000  0.31100  0.55100  1.0000
  Mo  Mo4       1.0  0.84700  0.80200  0.73200  1.0000
  O   O1        1.0  0.04220  0.36100  0.06730  1.0000
  O   O2        1.0  0.31700  0.06260  0.12300  1.0000
  O   O3        1.0  0.49700  0.28800  0.21700  1.0000
  O   O4        1.0  0.43400  0.57100  0.22500  1.0000
  O   O5        1.0  0.16900  0.84200  0.26700  1.0000
  O   O6        1.0  0.92300  0.15100  0.28100  1.0000
  O   O7        1.0  0.67000  0.77200  0.37000  1.0000
  O   O8        1.0  0.11400  0.58900  0.48800  1.0000
  O   O9        1.0  0.88600  0.41100  0.51200  1.0000
  O   O10       1.0  0.33000  0.22800  0.63000  1.0000
  O   O11       1.0  0.07660  0.84900  0.71900  1.0000
  O   O12       1.0  0.83100  0.15800  0.73300  1.0000
  O   O13       1.0  0.56600  0.42900  0.77500  1.0000
  O   O14       1.0  0.50300  0.71200  0.78300  1.0000
  O   O15       1.0  0.68300  0.93700  0.87700  1.0000
  O   O16       1.0  0.95800  0.63900  0.93300  1.0000
  Y   Y1        1.0  0.76800  0.56200  0.14300  1.0000
  Y   Y2        1.0  0.23200  0.43800  0.85700  1.0000
