data_image0
_chemical_formula_structural       Ce2Co5Fe12N3
_chemical_formula_sum              "Ce2 Co5 Fe12 N3"
_cell_length_a       6.54195
_cell_length_b       6.54195
_cell_length_c       6.54195
_cell_angle_alpha    96.2666
_cell_angle_beta     83.7334
_cell_angle_gamma    96.2666

_space_group_name_H-M_alt    "P 1"
_space_group_IT_number       1

loop_
  _space_group_symop_operation_xyz
  'x, y, z'

loop_
  _atom_site_type_symbol
  _atom_site_label
  _atom_site_symmetry_multiplicity
  _atom_site_fract_x
  _atom_site_fract_y
  _atom_site_fract_z
  _atom_site_occupancy
  Ce  Ce1       1.0  0.34900  0.65100  0.34900  1.0000
  Ce  Ce2       1.0  0.65100  0.34900  0.65100  1.0000
  Co  Co1       1.0  0.50000  0.00000  0.00000  1.0000
  Co  Co2       1.0  0.00000  0.50000  0.00000  1.0000
  Co  Co3       1.0  0.09230  0.90800  0.09230  1.0000
  Co  Co4       1.0  0.00000  0.00000  0.50000  1.0000
  Co  Co5       1.0  0.90800  0.09230  0.90800  1.0000
  Fe  Fe1       1.0  0.28200  0.28200  0.00000  1.0000
  Fe  Fe2       1.0  0.71800  0.71800  0.00000  1.0000
  Fe  Fe3       1.0  0.66500  0.33500  0.13300  1.0000
  Fe  Fe4       1.0  0.71800  0.00000  0.28200  1.0000
  Fe  Fe5       1.0  0.00000  0.28200  0.28200  1.0000
  Fe  Fe6       1.0  0.86700  0.66500  0.33500  1.0000
  Fe  Fe7       1.0  0.33500  0.13300  0.33500  1.0000
  Fe  Fe8       1.0  0.66500  0.86700  0.66500  1.0000
  Fe  Fe9       1.0  0.13300  0.33500  0.66500  1.0000
  Fe  Fe10      1.0  0.28200  0.00000  0.71800  1.0000
  Fe  Fe11      1.0  0.00000  0.71800  0.71800  1.0000
  Fe  Fe12      1.0  0.33500  0.66500  0.86700  1.0000
  N   N1        1.0  0.50000  0.50000  0.00000  1.0000
  N   N2        1.0  0.00000  0.50000  0.50000  1.0000
  N   N3        1.0  0.50000  0.00000  0.50000  1.0000
