data_image0
_chemical_formula_structural       Al8O14Sr2
_chemical_formula_sum              "Al8 O14 Sr2"
_cell_length_a       5.53601
_cell_length_b       7.91634
_cell_length_c       7.91634
_cell_angle_alpha    69.316
_cell_angle_beta     103.355
_cell_angle_gamma    103.355

_space_group_name_H-M_alt    "P 1"
_space_group_IT_number       1

loop_
  _space_group_symop_operation_xyz
  'x, y, z'

loop_
  _atom_site_type_symbol
  _atom_site_label
  _atom_site_symmetry_multiplicity
  _atom_site_fract_x
  _atom_site_fract_y
  _atom_site_fract_z
  _atom_site_occupancy
  Al  Al1       1.0  0.29400  0.25500  0.08020  1.0000
  Al  Al2       1.0  0.79400  0.08020  0.25500  1.0000
  Al  Al3       1.0  0.73700  0.43800  0.32000  1.0000
  Al  Al4       1.0  0.23700  0.32000  0.43800  1.0000
  Al  Al5       1.0  0.76300  0.68000  0.56200  1.0000
  Al  Al6       1.0  0.26300  0.56200  0.68000  1.0000
  Al  Al7       1.0  0.20600  0.92000  0.74500  1.0000
  Al  Al8       1.0  0.70600  0.74500  0.92000  1.0000
  O   O1        1.0  0.54700  0.15800  0.07770  1.0000
  O   O2        1.0  0.83600  0.61600  0.13500  1.0000
  O   O3        1.0  0.04680  0.07770  0.15800  1.0000
  O   O4        1.0  0.40300  0.36800  0.25200  1.0000
  O   O5        1.0  0.90300  0.25200  0.36800  1.0000
  O   O6        1.0  0.66400  0.86500  0.38400  1.0000
  O   O7        1.0  0.25000  0.52800  0.47200  1.0000
  O   O8        1.0  0.75000  0.47200  0.52800  1.0000
  O   O9        1.0  0.33600  0.13500  0.61600  1.0000
  O   O10       1.0  0.09690  0.74800  0.63200  1.0000
  O   O11       1.0  0.59700  0.63200  0.74800  1.0000
  O   O12       1.0  0.95300  0.92200  0.84200  1.0000
  O   O13       1.0  0.16400  0.38400  0.86500  1.0000
  O   O14       1.0  0.45300  0.84200  0.92200  1.0000
  Sr  Sr1       1.0  0.25000  0.81100  0.18900  1.0000
  Sr  Sr2       1.0  0.75000  0.18900  0.81100  1.0000
