data_image0
_chemical_formula_structural       Br16Dy8
_chemical_formula_sum              "Br16 Dy8"
_cell_length_a       6.63769
_cell_length_b       13.0503
_cell_length_c       7.67516
_cell_angle_alpha    90
_cell_angle_beta     90
_cell_angle_gamma    90

_space_group_name_H-M_alt    "P 1"
_space_group_IT_number       1

loop_
  _space_group_symop_operation_xyz
  'x, y, z'

loop_
  _atom_site_type_symbol
  _atom_site_label
  _atom_site_symmetry_multiplicity
  _atom_site_fract_x
  _atom_site_fract_y
  _atom_site_fract_z
  _atom_site_occupancy
  Br  Br1       1.0  0.21700  0.29100  0.12600  1.0000
  Br  Br2       1.0  0.28300  0.79100  0.12600  1.0000
  Br  Br3       1.0  0.97700  0.04040  0.20100  1.0000
  Br  Br4       1.0  0.52300  0.54000  0.20100  1.0000
  Br  Br5       1.0  0.47700  0.04040  0.29900  1.0000
  Br  Br6       1.0  0.02280  0.54000  0.29900  1.0000
  Br  Br7       1.0  0.71700  0.29100  0.37400  1.0000
  Br  Br8       1.0  0.78300  0.79100  0.37400  1.0000
  Br  Br9       1.0  0.21700  0.20900  0.62600  1.0000
  Br  Br10      1.0  0.28300  0.70900  0.62600  1.0000
  Br  Br11      1.0  0.97700  0.46000  0.70100  1.0000
  Br  Br12      1.0  0.52300  0.96000  0.70100  1.0000
  Br  Br13      1.0  0.47700  0.46000  0.79900  1.0000
  Br  Br14      1.0  0.02280  0.96000  0.79900  1.0000
  Br  Br15      1.0  0.71700  0.20900  0.87400  1.0000
  Br  Br16      1.0  0.78300  0.70900  0.87400  1.0000
  Dy  Dy1       1.0  0.84400  0.40200  0.04830  1.0000
  Dy  Dy2       1.0  0.65600  0.90200  0.04830  1.0000
  Dy  Dy3       1.0  0.34400  0.40200  0.45200  1.0000
  Dy  Dy4       1.0  0.15600  0.90200  0.45200  1.0000
  Dy  Dy5       1.0  0.84400  0.09790  0.54800  1.0000
  Dy  Dy6       1.0  0.65600  0.59800  0.54800  1.0000
  Dy  Dy7       1.0  0.34400  0.09790  0.95200  1.0000
  Dy  Dy8       1.0  0.15600  0.59800  0.95200  1.0000
