data_image0
_chemical_formula_structural       Re16Si8
_chemical_formula_sum              "Re16 Si8"
_cell_length_a       6.74222
_cell_length_b       8.79865
_cell_length_c       5.87576
_cell_angle_alpha    90
_cell_angle_beta     97.9209
_cell_angle_gamma    90

_space_group_name_H-M_alt    "P 1"
_space_group_IT_number       1

loop_
  _space_group_symop_operation_xyz
  'x, y, z'

loop_
  _atom_site_type_symbol
  _atom_site_label
  _atom_site_symmetry_multiplicity
  _atom_site_fract_x
  _atom_site_fract_y
  _atom_site_fract_z
  _atom_site_occupancy
  Re  Re1       1.0  0.38800  0.72600  0.00631  1.0000
  Re  Re2       1.0  0.86000  0.03000  0.15400  1.0000
  Re  Re3       1.0  0.25700  0.22800  0.19200  1.0000
  Re  Re4       1.0  0.48100  0.99500  0.20800  1.0000
  Re  Re5       1.0  0.51900  0.49500  0.29200  1.0000
  Re  Re6       1.0  0.74300  0.72800  0.30800  1.0000
  Re  Re7       1.0  0.14000  0.53000  0.34600  1.0000
  Re  Re8       1.0  0.61200  0.22600  0.49400  1.0000
  Re  Re9       1.0  0.38800  0.77400  0.50600  1.0000
  Re  Re10      1.0  0.86000  0.47000  0.65400  1.0000
  Re  Re11      1.0  0.25700  0.27200  0.69200  1.0000
  Re  Re12      1.0  0.48100  0.50500  0.70800  1.0000
  Re  Re13      1.0  0.51900  0.00509  0.79200  1.0000
  Re  Re14      1.0  0.74300  0.77200  0.80800  1.0000
  Re  Re15      1.0  0.14000  0.97000  0.84600  1.0000
  Re  Re16      1.0  0.61200  0.27400  0.99400  1.0000
  Si  Si1       1.0  0.81600  0.51900  0.05290  1.0000
  Si  Si2       1.0  0.07560  0.79800  0.17700  1.0000
  Si  Si3       1.0  0.92400  0.29800  0.32300  1.0000
  Si  Si4       1.0  0.18400  0.01890  0.44700  1.0000
  Si  Si5       1.0  0.81600  0.98100  0.55300  1.0000
  Si  Si6       1.0  0.07560  0.70200  0.67700  1.0000
  Si  Si7       1.0  0.92400  0.20200  0.82300  1.0000
  Si  Si8       1.0  0.18400  0.48100  0.94700  1.0000
