data_image0
_chemical_formula_structural       Cr4O16U4
_chemical_formula_sum              "Cr4 O16 U4"
_cell_length_a       5.03437
_cell_length_b       11.7959
_cell_length_c       5.01819
_cell_angle_alpha    90
_cell_angle_beta     90
_cell_angle_gamma    90

_space_group_name_H-M_alt    "P 1"
_space_group_IT_number       1

loop_
  _space_group_symop_operation_xyz
  'x, y, z'

loop_
  _atom_site_type_symbol
  _atom_site_label
  _atom_site_symmetry_multiplicity
  _atom_site_fract_x
  _atom_site_fract_y
  _atom_site_fract_z
  _atom_site_occupancy
  Cr  Cr1       1.0  0.00000  0.42400  0.25000  1.0000
  Cr  Cr2       1.0  0.50000  0.92400  0.25000  1.0000
  Cr  Cr3       1.0  0.50000  0.07580  0.75000  1.0000
  Cr  Cr4       1.0  0.00000  0.57600  0.75000  1.0000
  O   O1        1.0  0.73400  0.02740  0.01220  1.0000
  O   O2        1.0  0.76600  0.52700  0.01220  1.0000
  O   O3        1.0  0.81200  0.30900  0.07290  1.0000
  O   O4        1.0  0.68800  0.80900  0.07290  1.0000
  O   O5        1.0  0.18800  0.30900  0.42700  1.0000
  O   O6        1.0  0.31200  0.80900  0.42700  1.0000
  O   O7        1.0  0.26600  0.02740  0.48800  1.0000
  O   O8        1.0  0.23400  0.52700  0.48800  1.0000
  O   O9        1.0  0.76600  0.47300  0.51200  1.0000
  O   O10       1.0  0.73400  0.97300  0.51200  1.0000
  O   O11       1.0  0.68800  0.19100  0.57300  1.0000
  O   O12       1.0  0.81200  0.69100  0.57300  1.0000
  O   O13       1.0  0.31200  0.19100  0.92700  1.0000
  O   O14       1.0  0.18800  0.69100  0.92700  1.0000
  O   O15       1.0  0.23400  0.47300  0.98800  1.0000
  O   O16       1.0  0.26600  0.97300  0.98800  1.0000
  U   U1        1.0  0.00000  0.14600  0.25000  1.0000
  U   U2        1.0  0.50000  0.64600  0.25000  1.0000
  U   U3        1.0  0.50000  0.35400  0.75000  1.0000
  U   U4        1.0  0.00000  0.85400  0.75000  1.0000
