data_image0
_chemical_formula_structural       Cs4I16In4
_chemical_formula_sum              "Cs4 I16 In4"
_cell_length_a       7.59873
_cell_length_b       19.2137
_cell_length_c       8.71724
_cell_angle_alpha    90
_cell_angle_beta     106.07
_cell_angle_gamma    90

_space_group_name_H-M_alt    "P 1"
_space_group_IT_number       1

loop_
  _space_group_symop_operation_xyz
  'x, y, z'

loop_
  _atom_site_type_symbol
  _atom_site_label
  _atom_site_symmetry_multiplicity
  _atom_site_fract_x
  _atom_site_fract_y
  _atom_site_fract_z
  _atom_site_occupancy
  Cs  Cs1       1.0  0.81300  0.87000  0.21000  1.0000
  Cs  Cs2       1.0  0.18700  0.37000  0.29000  1.0000
  Cs  Cs3       1.0  0.81300  0.63000  0.71000  1.0000
  Cs  Cs4       1.0  0.18700  0.13000  0.79000  1.0000
  I   I1        1.0  0.27500  0.55000  0.06220  1.0000
  I   I2        1.0  0.27300  0.95000  0.07530  1.0000
  I   I3        1.0  0.63000  0.25300  0.13900  1.0000
  I   I4        1.0  0.81900  0.65800  0.20700  1.0000
  I   I5        1.0  0.18100  0.15800  0.29300  1.0000
  I   I6        1.0  0.37000  0.75300  0.36100  1.0000
  I   I7        1.0  0.72700  0.45000  0.42500  1.0000
  I   I8        1.0  0.72500  0.04970  0.43800  1.0000
  I   I9        1.0  0.27500  0.95000  0.56200  1.0000
  I   I10       1.0  0.27300  0.55000  0.57500  1.0000
  I   I11       1.0  0.63000  0.24700  0.63900  1.0000
  I   I12       1.0  0.81900  0.84200  0.70700  1.0000
  I   I13       1.0  0.18100  0.34200  0.79300  1.0000
  I   I14       1.0  0.37000  0.74700  0.86100  1.0000
  I   I15       1.0  0.72700  0.05050  0.92500  1.0000
  I   I16       1.0  0.72500  0.45000  0.93800  1.0000
  In  In1       1.0  0.80900  0.12800  0.20400  1.0000
  In  In2       1.0  0.19100  0.62800  0.29600  1.0000
  In  In3       1.0  0.80900  0.37200  0.70400  1.0000
  In  In4       1.0  0.19100  0.87200  0.79600  1.0000
