data_image0
_chemical_formula_structural       C8Cu2K6N8
_chemical_formula_sum              "C8 Cu2 K6 N8"
_cell_length_a       7.95751
_cell_length_b       7.95751
_cell_length_c       7.95751
_cell_angle_alpha    105.869
_cell_angle_beta     74.1312
_cell_angle_gamma    105.869

_space_group_name_H-M_alt    "P 1"
_space_group_IT_number       1

loop_
  _space_group_symop_operation_xyz
  'x, y, z'

loop_
  _atom_site_type_symbol
  _atom_site_label
  _atom_site_symmetry_multiplicity
  _atom_site_fract_x
  _atom_site_fract_y
  _atom_site_fract_z
  _atom_site_occupancy
  C   C1        1.0  0.23600  0.14400  0.01840  1.0000
  C   C2        1.0  0.85600  0.98200  0.23600  1.0000
  C   C3        1.0  0.73600  0.48200  0.35600  1.0000
  C   C4        1.0  0.38500  0.61500  0.38500  1.0000
  C   C5        1.0  0.35600  0.26400  0.51800  1.0000
  C   C6        1.0  0.51800  0.64400  0.73600  1.0000
  C   C7        1.0  0.01840  0.76400  0.85600  1.0000
  C   C8        1.0  0.88500  0.11500  0.88500  1.0000
  Cu  Cu1       1.0  0.00011  0.00000  0.00011  1.0000
  Cu  Cu2       1.0  0.50000  0.50000  0.50000  1.0000
  K   K1        1.0  0.67100  0.52300  0.01780  1.0000
  K   K2        1.0  0.51800  0.02310  0.17100  1.0000
  K   K3        1.0  0.01780  0.32900  0.47700  1.0000
  K   K4        1.0  0.97700  0.82900  0.51800  1.0000
  K   K5        1.0  0.47700  0.98200  0.67100  1.0000
  K   K6        1.0  0.17100  0.48200  0.97700  1.0000
  N   N1        1.0  0.38100  0.23500  0.01820  1.0000
  N   N2        1.0  0.88100  0.48200  0.26500  1.0000
  N   N3        1.0  0.31600  0.68400  0.31600  1.0000
  N   N4        1.0  0.76500  0.98200  0.38100  1.0000
  N   N5        1.0  0.26500  0.11900  0.51800  1.0000
  N   N6        1.0  0.01820  0.61900  0.76500  1.0000
  N   N7        1.0  0.81600  0.18400  0.81600  1.0000
  N   N8        1.0  0.51800  0.73500  0.88100  1.0000
