data_image0
_chemical_formula_structural       Cs4I16Tl4
_chemical_formula_sum              "Cs4 I16 Tl4"
_cell_length_a       7.5104
_cell_length_b       19.1355
_cell_length_c       8.65795
_cell_angle_alpha    90
_cell_angle_beta     105.219
_cell_angle_gamma    90

_space_group_name_H-M_alt    "P 1"
_space_group_IT_number       1

loop_
  _space_group_symop_operation_xyz
  'x, y, z'

loop_
  _atom_site_type_symbol
  _atom_site_label
  _atom_site_symmetry_multiplicity
  _atom_site_fract_x
  _atom_site_fract_y
  _atom_site_fract_z
  _atom_site_occupancy
  Cs  Cs1       1.0  0.81000  0.13100  0.21000  1.0000
  Cs  Cs2       1.0  0.19000  0.63100  0.29000  1.0000
  Cs  Cs3       1.0  0.81000  0.36900  0.71000  1.0000
  Cs  Cs4       1.0  0.19000  0.86900  0.79000  1.0000
  I   I1        1.0  0.27900  0.45400  0.05480  1.0000
  I   I2        1.0  0.27500  0.04780  0.08330  1.0000
  I   I3        1.0  0.63800  0.74100  0.13500  1.0000
  I   I4        1.0  0.80500  0.34200  0.20500  1.0000
  I   I5        1.0  0.19500  0.84200  0.29500  1.0000
  I   I6        1.0  0.36200  0.24100  0.36500  1.0000
  I   I7        1.0  0.72500  0.54800  0.41700  1.0000
  I   I8        1.0  0.72100  0.95400  0.44500  1.0000
  I   I9        1.0  0.27900  0.04650  0.55500  1.0000
  I   I10       1.0  0.27500  0.45200  0.58300  1.0000
  I   I11       1.0  0.63800  0.75900  0.63500  1.0000
  I   I12       1.0  0.80500  0.15800  0.70500  1.0000
  I   I13       1.0  0.19500  0.65800  0.79500  1.0000
  I   I14       1.0  0.36200  0.25900  0.86500  1.0000
  I   I15       1.0  0.72500  0.95200  0.91700  1.0000
  I   I16       1.0  0.72100  0.54600  0.94500  1.0000
  Tl  Tl1       1.0  0.81000  0.87200  0.20400  1.0000
  Tl  Tl2       1.0  0.19000  0.37200  0.29600  1.0000
  Tl  Tl3       1.0  0.81000  0.62800  0.70400  1.0000
  Tl  Tl4       1.0  0.19000  0.12800  0.79600  1.0000
