data_image0
_chemical_formula_structural       C4N4O12S4
_chemical_formula_sum              "C4 N4 O12 S4"
_cell_length_a       5.03406
_cell_length_b       5.03406
_cell_length_c       11.4969
_cell_angle_alpha    93.0286
_cell_angle_beta     93.0286
_cell_angle_gamma    97.9045

_space_group_name_H-M_alt    "P 1"
_space_group_IT_number       1

loop_
  _space_group_symop_operation_xyz
  'x, y, z'

loop_
  _atom_site_type_symbol
  _atom_site_label
  _atom_site_symmetry_multiplicity
  _atom_site_fract_x
  _atom_site_fract_y
  _atom_site_fract_z
  _atom_site_occupancy
  C   C1        1.0  0.98600  0.86800  0.02690  1.0000
  C   C2        1.0  0.13200  0.01380  0.47300  1.0000
  C   C3        1.0  0.86800  0.98600  0.52700  1.0000
  C   C4        1.0  0.01380  0.13200  0.97300  1.0000
  N   N1        1.0  0.19100  0.32100  0.02100  1.0000
  N   N2        1.0  0.67900  0.80900  0.47900  1.0000
  N   N3        1.0  0.32100  0.19100  0.52100  1.0000
  N   N4        1.0  0.80900  0.67900  0.97900  1.0000
  O   O1        1.0  0.15200  0.86500  0.11800  1.0000
  O   O2        1.0  0.60700  0.17400  0.11800  1.0000
  O   O3        1.0  0.25300  0.31200  0.24200  1.0000
  O   O4        1.0  0.68800  0.74700  0.25800  1.0000
  O   O5        1.0  0.82600  0.39300  0.38200  1.0000
  O   O6        1.0  0.13500  0.84800  0.38200  1.0000
  O   O7        1.0  0.86500  0.15200  0.61800  1.0000
  O   O8        1.0  0.17400  0.60700  0.61800  1.0000
  O   O9        1.0  0.31200  0.25300  0.74200  1.0000
  O   O10       1.0  0.74700  0.68800  0.75800  1.0000
  O   O11       1.0  0.39300  0.82600  0.88200  1.0000
  O   O12       1.0  0.84800  0.13500  0.88200  1.0000
  S   S1        1.0  0.33400  0.20200  0.13500  1.0000
  S   S2        1.0  0.79800  0.66600  0.36500  1.0000
  S   S3        1.0  0.20200  0.33400  0.63500  1.0000
  S   S4        1.0  0.66600  0.79800  0.86500  1.0000
