data_image0
_chemical_formula_structural       C8Co2N12
_chemical_formula_sum              "C8 Co2 N12"
_cell_length_a       5.27252
_cell_length_b       6.54191
_cell_length_c       7.29974
_cell_angle_alpha    90
_cell_angle_beta     90
_cell_angle_gamma    90

_space_group_name_H-M_alt    "P 1"
_space_group_IT_number       1

loop_
  _space_group_symop_operation_xyz
  'x, y, z'

loop_
  _atom_site_type_symbol
  _atom_site_label
  _atom_site_symmetry_multiplicity
  _atom_site_fract_x
  _atom_site_fract_y
  _atom_site_fract_z
  _atom_site_occupancy
  C   C1        1.0  0.74500  0.12900  0.34200  1.0000
  C   C2        1.0  0.25500  0.87100  0.34200  1.0000
  C   C3        1.0  0.24500  0.37100  0.15800  1.0000
  C   C4        1.0  0.75500  0.62900  0.15800  1.0000
  C   C5        1.0  0.25500  0.87100  0.65800  1.0000
  C   C6        1.0  0.74500  0.12900  0.65800  1.0000
  C   C7        1.0  0.75500  0.62900  0.84200  1.0000
  C   C8        1.0  0.24500  0.37100  0.84200  1.0000
  Co  Co1       1.0  0.00000  0.00000  0.00000  1.0000
  Co  Co2       1.0  0.50000  0.50000  0.50000  1.0000
  N   N1        1.0  0.78400  0.08700  0.18800  1.0000
  N   N2        1.0  0.21600  0.91300  0.18800  1.0000
  N   N3        1.0  0.28400  0.41300  0.31200  1.0000
  N   N4        1.0  0.71600  0.58700  0.31200  1.0000
  N   N5        1.0  0.21600  0.91300  0.81200  1.0000
  N   N6        1.0  0.78400  0.08700  0.81200  1.0000
  N   N7        1.0  0.71600  0.58700  0.68800  1.0000
  N   N8        1.0  0.28400  0.41300  0.68800  1.0000
  N   N9        1.0  0.67700  0.20000  0.50000  1.0000
  N   N10       1.0  0.32300  0.80000  0.50000  1.0000
  N   N11       1.0  0.17700  0.30000  0.00000  1.0000
  N   N12       1.0  0.82300  0.70000  0.00000  1.0000
