data_image0
_chemical_formula_structural       As4Hg4S12Tl4
_chemical_formula_sum              "As4 Hg4 S12 Tl4"
_cell_length_a       6.24747
_cell_length_b       16.6294
_cell_length_c       6.24641
_cell_angle_alpha    90
_cell_angle_beta     95.9538
_cell_angle_gamma    90

_space_group_name_H-M_alt    "P 1"
_space_group_IT_number       1

loop_
  _space_group_symop_operation_xyz
  'x, y, z'

loop_
  _atom_site_type_symbol
  _atom_site_label
  _atom_site_symmetry_multiplicity
  _atom_site_fract_x
  _atom_site_fract_y
  _atom_site_fract_z
  _atom_site_occupancy
  As  As1       1.0  0.42600  0.60900  0.07440  1.0000
  As  As2       1.0  0.07440  0.10900  0.42600  1.0000
  As  As3       1.0  0.92600  0.89100  0.57400  1.0000
  As  As4       1.0  0.57400  0.39100  0.92600  1.0000
  Hg  Hg1       1.0  0.92200  0.75000  0.07850  1.0000
  Hg  Hg2       1.0  0.57800  0.25000  0.42100  1.0000
  Hg  Hg3       1.0  0.42200  0.75000  0.57900  1.0000
  Hg  Hg4       1.0  0.07820  0.25000  0.92100  1.0000
  S   S1        1.0  0.79300  0.60800  0.13900  1.0000
  S   S2        1.0  0.35600  0.73900  0.14400  1.0000
  S   S3        1.0  0.86100  0.89200  0.20700  1.0000
  S   S4        1.0  0.63900  0.39200  0.29300  1.0000
  S   S5        1.0  0.14400  0.23900  0.35600  1.0000
  S   S6        1.0  0.70700  0.10800  0.36100  1.0000
  S   S7        1.0  0.29300  0.89200  0.63900  1.0000
  S   S8        1.0  0.85600  0.76100  0.64400  1.0000
  S   S9        1.0  0.36100  0.60800  0.70700  1.0000
  S   S10       1.0  0.13900  0.10800  0.79300  1.0000
  S   S11       1.0  0.64400  0.26100  0.85600  1.0000
  S   S12       1.0  0.20700  0.39200  0.86100  1.0000
  Tl  Tl1       1.0  0.33400  0.95000  0.16600  1.0000
  Tl  Tl2       1.0  0.16600  0.45000  0.33400  1.0000
  Tl  Tl3       1.0  0.83400  0.55000  0.66600  1.0000
  Tl  Tl4       1.0  0.66600  0.05040  0.83400  1.0000
