data_image0
_chemical_formula_structural       Ir4Ta4Te16
_chemical_formula_sum              "Ir4 Ta4 Te16"
_cell_length_a       3.8239
_cell_length_b       12.6103
_cell_length_c       13.837
_cell_angle_alpha    89.9995
_cell_angle_beta     90
_cell_angle_gamma    90

_space_group_name_H-M_alt    "P 1"
_space_group_IT_number       1

loop_
  _space_group_symop_operation_xyz
  'x, y, z'

loop_
  _atom_site_type_symbol
  _atom_site_label
  _atom_site_symmetry_multiplicity
  _atom_site_fract_x
  _atom_site_fract_y
  _atom_site_fract_z
  _atom_site_occupancy
  Ir  Ir1       1.0  0.00000  0.75500  0.49200  1.0000
  Ir  Ir2       1.0  0.50000  0.46400  0.50000  1.0000
  Ir  Ir3       1.0  0.50000  0.24500  0.99200  1.0000
  Ir  Ir4       1.0  0.00000  0.53600  0.00000  1.0000
  Ta  Ta1       1.0  0.00000  0.05430  0.00429  1.0000
  Ta  Ta2       1.0  0.00000  0.27000  0.49100  1.0000
  Ta  Ta3       1.0  0.50000  0.94600  0.50400  1.0000
  Ta  Ta4       1.0  0.50000  0.73000  0.99100  1.0000
  Te  Te1       1.0  0.00000  0.34600  0.09180  1.0000
  Te  Te2       1.0  0.00000  0.84900  0.10300  1.0000
  Te  Te3       1.0  0.50000  0.58700  0.13300  1.0000
  Te  Te4       1.0  0.50000  0.10700  0.14300  1.0000
  Te  Te5       1.0  0.50000  0.32300  0.35300  1.0000
  Te  Te6       1.0  0.50000  0.80600  0.35900  1.0000
  Te  Te7       1.0  0.00000  0.06550  0.39400  1.0000
  Te  Te8       1.0  0.00000  0.56400  0.40000  1.0000
  Te  Te9       1.0  0.50000  0.65400  0.59200  1.0000
  Te  Te10      1.0  0.50000  0.15100  0.60300  1.0000
  Te  Te11      1.0  0.00000  0.41300  0.63300  1.0000
  Te  Te12      1.0  0.00000  0.89300  0.64300  1.0000
  Te  Te13      1.0  0.00000  0.67700  0.85300  1.0000
  Te  Te14      1.0  0.00000  0.19400  0.85900  1.0000
  Te  Te15      1.0  0.50000  0.93400  0.89400  1.0000
  Te  Te16      1.0  0.50000  0.43600  0.90000  1.0000
