data_image0
_chemical_formula_structural       Cl12N4Se8
_chemical_formula_sum              "Cl12 N4 Se8"
_cell_length_a       7.79427
_cell_length_b       9.3296
_cell_length_c       9.29334
_cell_angle_alpha    90
_cell_angle_beta     93.1365
_cell_angle_gamma    90

_space_group_name_H-M_alt    "P 1"
_space_group_IT_number       1

loop_
  _space_group_symop_operation_xyz
  'x, y, z'

loop_
  _atom_site_type_symbol
  _atom_site_label
  _atom_site_symmetry_multiplicity
  _atom_site_fract_x
  _atom_site_fract_y
  _atom_site_fract_z
  _atom_site_occupancy
  Cl  Cl1       1.0  0.02020  0.81800  0.11100  1.0000
  Cl  Cl2       1.0  0.52000  0.68200  0.11100  1.0000
  Cl  Cl3       1.0  0.16200  0.40400  0.16500  1.0000
  Cl  Cl4       1.0  0.66200  0.09590  0.16500  1.0000
  Cl  Cl5       1.0  0.20400  0.15100  0.50000  1.0000
  Cl  Cl6       1.0  0.70400  0.34900  0.50000  1.0000
  Cl  Cl7       1.0  0.79600  0.84900  0.50000  1.0000
  Cl  Cl8       1.0  0.29600  0.65100  0.50000  1.0000
  Cl  Cl9       1.0  0.33800  0.90400  0.83500  1.0000
  Cl  Cl10      1.0  0.83800  0.59600  0.83500  1.0000
  Cl  Cl11      1.0  0.48000  0.31800  0.88900  1.0000
  Cl  Cl12      1.0  0.98000  0.18200  0.88900  1.0000
  N   N1        1.0  0.81000  0.50000  0.22100  1.0000
  N   N2        1.0  0.31000  0.00000  0.22100  1.0000
  N   N3        1.0  0.19000  0.50000  0.77900  1.0000
  N   N4        1.0  0.69000  0.00000  0.77900  1.0000
  Se  Se1       1.0  0.60400  0.53100  0.28400  1.0000
  Se  Se2       1.0  0.10400  0.96900  0.28400  1.0000
  Se  Se3       1.0  0.45200  0.11700  0.31900  1.0000
  Se  Se4       1.0  0.95200  0.38300  0.31900  1.0000
  Se  Se5       1.0  0.04810  0.61700  0.68100  1.0000
  Se  Se6       1.0  0.54800  0.88300  0.68100  1.0000
  Se  Se7       1.0  0.39600  0.46900  0.71600  1.0000
  Se  Se8       1.0  0.89600  0.03060  0.71600  1.0000
