data_image0
_chemical_formula_structural       BaCSi
_chemical_formula_sum              "Ba1 C1 Si1"
_cell_length_a       4.81066
_cell_length_b       4.81066
_cell_length_c       5.24006
_cell_angle_alpha    117.324
_cell_angle_beta     117.324
_cell_angle_gamma    90

_space_group_name_H-M_alt    "P 1"
_space_group_IT_number       1

loop_
  _space_group_symop_operation_xyz
  'x, y, z'

loop_
  _atom_site_type_symbol
  _atom_site_label
  _atom_site_symmetry_multiplicity
  _atom_site_fract_x
  _atom_site_fract_y
  _atom_site_fract_z
  _atom_site_occupancy
  Ba  Ba1       1.0  0.00854  0.00854  0.01710  1.0000
  C   C1        1.0  0.37000  0.37000  0.73900  1.0000
  Si  Si1       1.0  0.58400  0.58400  0.16800  1.0000
