data_image0
_chemical_formula_structural       K2Nd2O16S4
_chemical_formula_sum              "K2 Nd2 O16 S4"
_cell_length_a       6.87061
_cell_length_b       5.26161
_cell_length_c       8.97374
_cell_angle_alpha    92.1466
_cell_angle_beta     96.269
_cell_angle_gamma    90.8423

_space_group_name_H-M_alt    "P 1"
_space_group_IT_number       1

loop_
  _space_group_symop_operation_xyz
  'x, y, z'

loop_
  _atom_site_type_symbol
  _atom_site_label
  _atom_site_symmetry_multiplicity
  _atom_site_fract_x
  _atom_site_fract_y
  _atom_site_fract_z
  _atom_site_occupancy
  K   K1        1.0  0.17700  0.72400  0.18800  1.0000
  K   K2        1.0  0.82300  0.27600  0.81200  1.0000
  Nd  Nd1       1.0  0.69700  0.25200  0.27900  1.0000
  Nd  Nd2       1.0  0.30300  0.74800  0.72100  1.0000
  O   O1        1.0  0.81700  0.99300  0.07300  1.0000
  O   O2        1.0  0.43000  0.27300  0.07640  1.0000
  O   O3        1.0  0.81400  0.53400  0.09480  1.0000
  O   O4        1.0  0.56700  0.79400  0.19700  1.0000
  O   O5        1.0  0.05720  0.21900  0.31500  1.0000
  O   O6        1.0  0.39800  0.32600  0.37900  1.0000
  O   O7        1.0  0.82600  0.60900  0.43400  1.0000
  O   O8        1.0  0.25300  0.96100  0.48800  1.0000
  O   O9        1.0  0.74700  0.03900  0.51200  1.0000
  O   O10       1.0  0.17400  0.39100  0.56600  1.0000
  O   O11       1.0  0.60200  0.67400  0.62100  1.0000
  O   O12       1.0  0.94300  0.78100  0.68500  1.0000
  O   O13       1.0  0.43300  0.20600  0.80300  1.0000
  O   O14       1.0  0.18600  0.46600  0.90500  1.0000
  O   O15       1.0  0.57000  0.72700  0.92400  1.0000
  O   O16       1.0  0.18300  0.00714  0.92700  1.0000
  S   S1        1.0  0.68900  0.76200  0.06940  1.0000
  S   S2        1.0  0.22000  0.22600  0.43900  1.0000
  S   S3        1.0  0.78000  0.77400  0.56100  1.0000
  S   S4        1.0  0.31100  0.23800  0.93100  1.0000
