data_image0
_chemical_formula_structural       Br16Ga4In4
_chemical_formula_sum              "Br16 Ga4 In4"
_cell_length_a       13.3434
_cell_length_b       7.63027
_cell_length_c       9.223
_cell_angle_alpha    90
_cell_angle_beta     104.72
_cell_angle_gamma    90

_space_group_name_H-M_alt    "P 1"
_space_group_IT_number       1

loop_
  _space_group_symop_operation_xyz
  'x, y, z'

loop_
  _atom_site_type_symbol
  _atom_site_label
  _atom_site_symmetry_multiplicity
  _atom_site_fract_x
  _atom_site_fract_y
  _atom_site_fract_z
  _atom_site_occupancy
  Br  Br1       1.0  0.10300  0.23100  0.04290  1.0000
  Br  Br2       1.0  0.60300  0.76900  0.04290  1.0000
  Br  Br3       1.0  0.41000  0.56900  0.28300  1.0000
  Br  Br4       1.0  0.91000  0.43100  0.28300  1.0000
  Br  Br5       1.0  0.13500  0.75200  0.29700  1.0000
  Br  Br6       1.0  0.63500  0.24800  0.29700  1.0000
  Br  Br7       1.0  0.37000  0.07720  0.33900  1.0000
  Br  Br8       1.0  0.87000  0.92300  0.33900  1.0000
  Br  Br9       1.0  0.63000  0.92300  0.66100  1.0000
  Br  Br10      1.0  0.13000  0.07720  0.66100  1.0000
  Br  Br11      1.0  0.86500  0.24800  0.70300  1.0000
  Br  Br12      1.0  0.36500  0.75200  0.70300  1.0000
  Br  Br13      1.0  0.59000  0.43100  0.71700  1.0000
  Br  Br14      1.0  0.09020  0.56900  0.71700  1.0000
  Br  Br15      1.0  0.39700  0.23100  0.95700  1.0000
  Br  Br16      1.0  0.89700  0.76900  0.95700  1.0000
  Ga  Ga1       1.0  0.45200  0.28500  0.21700  1.0000
  Ga  Ga2       1.0  0.95200  0.71500  0.21700  1.0000
  Ga  Ga3       1.0  0.04760  0.28500  0.78300  1.0000
  Ga  Ga4       1.0  0.54800  0.71500  0.78300  1.0000
  In  In1       1.0  0.75000  0.10900  0.00000  1.0000
  In  In2       1.0  0.25000  0.89100  0.00000  1.0000
  In  In3       1.0  0.25000  0.41700  0.50000  1.0000
  In  In4       1.0  0.75000  0.58300  0.50000  1.0000
