data_image0
_chemical_formula_structural       Al8Ce8Ru8
_chemical_formula_sum              "Al8 Ce8 Ru8"
_cell_length_a       7.24222
_cell_length_b       4.20917
_cell_length_c       16.5529
_cell_angle_alpha    90
_cell_angle_beta     90
_cell_angle_gamma    90

_space_group_name_H-M_alt    "P 1"
_space_group_IT_number       1

loop_
  _space_group_symop_operation_xyz
  'x, y, z'

loop_
  _atom_site_type_symbol
  _atom_site_label
  _atom_site_symmetry_multiplicity
  _atom_site_fract_x
  _atom_site_fract_y
  _atom_site_fract_z
  _atom_site_occupancy
  Al  Al1       1.0  0.99900  0.75000  0.06400  1.0000
  Al  Al2       1.0  0.35100  0.75000  0.14900  1.0000
  Al  Al3       1.0  0.85100  0.75000  0.35100  1.0000
  Al  Al4       1.0  0.49900  0.75000  0.43600  1.0000
  Al  Al5       1.0  0.50100  0.25000  0.56400  1.0000
  Al  Al6       1.0  0.14900  0.25000  0.64900  1.0000
  Al  Al7       1.0  0.64900  0.25000  0.85100  1.0000
  Al  Al8       1.0  0.00148  0.25000  0.93600  1.0000
  Ce  Ce1       1.0  0.65900  0.25000  0.06200  1.0000
  Ce  Ce2       1.0  0.02440  0.25000  0.22000  1.0000
  Ce  Ce3       1.0  0.52400  0.25000  0.28000  1.0000
  Ce  Ce4       1.0  0.15900  0.25000  0.43800  1.0000
  Ce  Ce5       1.0  0.84100  0.75000  0.56200  1.0000
  Ce  Ce6       1.0  0.47600  0.75000  0.72000  1.0000
  Ce  Ce7       1.0  0.97600  0.75000  0.78000  1.0000
  Ce  Ce8       1.0  0.34100  0.75000  0.93800  1.0000
  Ru  Ru1       1.0  0.22100  0.25000  0.06560  1.0000
  Ru  Ru2       1.0  0.73300  0.75000  0.18600  1.0000
  Ru  Ru3       1.0  0.23300  0.75000  0.31400  1.0000
  Ru  Ru4       1.0  0.72100  0.25000  0.43400  1.0000
  Ru  Ru5       1.0  0.27900  0.75000  0.56600  1.0000
  Ru  Ru6       1.0  0.76700  0.25000  0.68600  1.0000
  Ru  Ru7       1.0  0.26700  0.25000  0.81400  1.0000
  Ru  Ru8       1.0  0.77900  0.75000  0.93400  1.0000
