data_image0
_chemical_formula_structural       C4Cs4F12O4
_chemical_formula_sum              "C4 Cs4 F12 O4"
_cell_length_a       5.68211
_cell_length_b       7.37598
_cell_length_c       9.03475
_cell_angle_alpha    90
_cell_angle_beta     89.9862
_cell_angle_gamma    90

_space_group_name_H-M_alt    "P 1"
_space_group_IT_number       1

loop_
  _space_group_symop_operation_xyz
  'x, y, z'

loop_
  _atom_site_type_symbol
  _atom_site_label
  _atom_site_symmetry_multiplicity
  _atom_site_fract_x
  _atom_site_fract_y
  _atom_site_fract_z
  _atom_site_occupancy
  C   C1        1.0  0.27200  0.20400  0.06660  1.0000
  C   C2        1.0  0.72800  0.70400  0.43300  1.0000
  C   C3        1.0  0.27200  0.29600  0.56700  1.0000
  C   C4        1.0  0.72800  0.79600  0.93300  1.0000
  Cs  Cs1       1.0  0.25600  0.65800  0.18000  1.0000
  Cs  Cs2       1.0  0.74400  0.15800  0.32000  1.0000
  Cs  Cs3       1.0  0.25600  0.84200  0.68000  1.0000
  Cs  Cs4       1.0  0.74400  0.34200  0.82000  1.0000
  F   F1        1.0  0.75900  0.88700  0.07140  1.0000
  F   F2        1.0  0.04670  0.29700  0.08100  1.0000
  F   F3        1.0  0.24100  0.05940  0.17200  1.0000
  F   F4        1.0  0.75900  0.55900  0.32800  1.0000
  F   F5        1.0  0.95300  0.79700  0.41900  1.0000
  F   F6        1.0  0.24100  0.38700  0.42900  1.0000
  F   F7        1.0  0.75900  0.61300  0.57100  1.0000
  F   F8        1.0  0.04670  0.20300  0.58100  1.0000
  F   F9        1.0  0.24100  0.44100  0.67200  1.0000
  F   F10       1.0  0.75900  0.94100  0.82800  1.0000
  F   F11       1.0  0.95300  0.70300  0.91900  1.0000
  F   F12       1.0  0.24100  0.11300  0.92900  1.0000
  O   O1        1.0  0.44700  0.29900  0.08140  1.0000
  O   O2        1.0  0.55300  0.79900  0.41900  1.0000
  O   O3        1.0  0.44700  0.20100  0.58100  1.0000
  O   O4        1.0  0.55300  0.70100  0.91900  1.0000
