data_image0
_chemical_formula_structural       B3Ge3La3O15
_chemical_formula_sum              "B3 Ge3 La3 O15"
_cell_length_a       6.97864
_cell_length_b       6.97864
_cell_length_c       6.87316
_cell_angle_alpha    90
_cell_angle_beta     90
_cell_angle_gamma    120

_space_group_name_H-M_alt    "P 1"
_space_group_IT_number       1

loop_
  _space_group_symop_operation_xyz
  'x, y, z'

loop_
  _atom_site_type_symbol
  _atom_site_label
  _atom_site_symmetry_multiplicity
  _atom_site_fract_x
  _atom_site_fract_y
  _atom_site_fract_z
  _atom_site_occupancy
  B   B1        1.0  0.98600  0.10200  0.30900  1.0000
  B   B2        1.0  0.89800  0.88400  0.64200  1.0000
  B   B3        1.0  0.11600  0.01400  0.97500  1.0000
  Ge  Ge1       1.0  0.41900  0.42400  0.16800  1.0000
  Ge  Ge2       1.0  0.57600  0.99500  0.50100  1.0000
  Ge  Ge3       1.0  0.00482  0.58100  0.83500  1.0000
  La  La1       1.0  0.59000  0.00142  0.00064  1.0000
  La  La2       1.0  0.99900  0.58900  0.33400  1.0000
  La  La3       1.0  0.41100  0.41000  0.66700  1.0000
  O   O1        1.0  0.85800  0.38500  0.01090  1.0000
  O   O2        1.0  0.35100  0.19300  0.01240  1.0000
  O   O3        1.0  0.95500  0.01080  0.11200  1.0000
  O   O4        1.0  0.38700  0.84300  0.32100  1.0000
  O   O5        1.0  0.18600  0.33000  0.32700  1.0000
  O   O6        1.0  0.61500  0.47400  0.34400  1.0000
  O   O7        1.0  0.80700  0.15700  0.34600  1.0000
  O   O8        1.0  0.98900  0.94400  0.44600  1.0000
  O   O9        1.0  0.15700  0.54400  0.65500  1.0000
  O   O10       1.0  0.67000  0.85600  0.66000  1.0000
  O   O11       1.0  0.52600  0.14200  0.67800  1.0000
  O   O12       1.0  0.84300  0.64900  0.67900  1.0000
  O   O13       1.0  0.05600  0.04510  0.77900  1.0000
  O   O14       1.0  0.45600  0.61300  0.98800  1.0000
  O   O15       1.0  0.14400  0.81400  0.99300  1.0000
