data_image0
_chemical_formula_structural       F18K2Te4
_chemical_formula_sum              "F18 K2 Te4"
_cell_length_a       4.47115
_cell_length_b       8.90623
_cell_length_c       9.00155
_cell_angle_alpha    108.144
_cell_angle_beta     94.6246
_cell_angle_gamma    96.249

_space_group_name_H-M_alt    "P 1"
_space_group_IT_number       1

loop_
  _space_group_symop_operation_xyz
  'x, y, z'

loop_
  _atom_site_type_symbol
  _atom_site_label
  _atom_site_symmetry_multiplicity
  _atom_site_fract_x
  _atom_site_fract_y
  _atom_site_fract_z
  _atom_site_occupancy
  F   F1        1.0  0.27800  0.76800  0.03850  1.0000
  F   F2        1.0  0.25800  0.45000  0.07930  1.0000
  F   F3        1.0  0.41500  0.08540  0.14800  1.0000
  F   F4        1.0  0.01830  0.28500  0.23800  1.0000
  F   F5        1.0  0.74500  0.73200  0.24800  1.0000
  F   F6        1.0  0.35300  0.91000  0.31900  1.0000
  F   F7        1.0  0.62500  0.45200  0.35900  1.0000
  F   F8        1.0  0.14100  0.60300  0.36500  1.0000
  F   F9        1.0  0.85000  0.06720  0.37500  1.0000
  F   F10       1.0  0.15000  0.93300  0.62500  1.0000
  F   F11       1.0  0.85900  0.39700  0.63500  1.0000
  F   F12       1.0  0.37500  0.54800  0.64100  1.0000
  F   F13       1.0  0.64700  0.08950  0.68100  1.0000
  F   F14       1.0  0.25500  0.26800  0.75200  1.0000
  F   F15       1.0  0.98200  0.71500  0.76200  1.0000
  F   F16       1.0  0.58500  0.91500  0.85200  1.0000
  F   F17       1.0  0.74200  0.55000  0.92100  1.0000
  F   F18       1.0  0.72200  0.23200  0.96200  1.0000
  K   K1        1.0  0.37400  0.23700  0.46400  1.0000
  K   K2        1.0  0.62600  0.76300  0.53600  1.0000
  Te  Te1       1.0  0.64400  0.91600  0.17500  1.0000
  Te  Te2       1.0  0.87600  0.46000  0.19000  1.0000
  Te  Te3       1.0  0.12400  0.54000  0.81000  1.0000
  Te  Te4       1.0  0.35600  0.08450  0.82500  1.0000
