data_image0
_chemical_formula_structural       C10I2Mn2O10
_chemical_formula_sum              "C10 I2 Mn2 O10"
_cell_length_a       6.43601
_cell_length_b       6.43601
_cell_length_c       10.4846
_cell_angle_alpha    90
_cell_angle_beta     90
_cell_angle_gamma    110.448

_space_group_name_H-M_alt    "P 1"
_space_group_IT_number       1

loop_
  _space_group_symop_operation_xyz
  'x, y, z'

loop_
  _atom_site_type_symbol
  _atom_site_label
  _atom_site_symmetry_multiplicity
  _atom_site_fract_x
  _atom_site_fract_y
  _atom_site_fract_z
  _atom_site_occupancy
  C   C1        1.0  0.31500  0.04930  0.12700  1.0000
  C   C2        1.0  0.95100  0.68500  0.12700  1.0000
  C   C3        1.0  0.31700  0.68300  0.25000  1.0000
  C   C4        1.0  0.31500  0.04930  0.37300  1.0000
  C   C5        1.0  0.95100  0.68500  0.37300  1.0000
  C   C6        1.0  0.04930  0.31500  0.62700  1.0000
  C   C7        1.0  0.68500  0.95100  0.62700  1.0000
  C   C8        1.0  0.68300  0.31700  0.75000  1.0000
  C   C9        1.0  0.04930  0.31500  0.87300  1.0000
  C   C10       1.0  0.68500  0.95100  0.87300  1.0000
  I   I1        1.0  0.88900  0.11100  0.25000  1.0000
  I   I2        1.0  0.11100  0.88900  0.75000  1.0000
  Mn  Mn1       1.0  0.14400  0.85600  0.25000  1.0000
  Mn  Mn2       1.0  0.85600  0.14400  0.75000  1.0000
  O   O1        1.0  0.42100  0.17300  0.05240  1.0000
  O   O2        1.0  0.82700  0.57900  0.05240  1.0000
  O   O3        1.0  0.42600  0.57400  0.25000  1.0000
  O   O4        1.0  0.42100  0.17300  0.44800  1.0000
  O   O5        1.0  0.82700  0.57900  0.44800  1.0000
  O   O6        1.0  0.17300  0.42100  0.55200  1.0000
  O   O7        1.0  0.57900  0.82700  0.55200  1.0000
  O   O8        1.0  0.57400  0.42600  0.75000  1.0000
  O   O9        1.0  0.17300  0.42100  0.94800  1.0000
  O   O10       1.0  0.57900  0.82700  0.94800  1.0000
