data_image0
_chemical_formula_structural       Ce11In9Ni4
_chemical_formula_sum              "Ce11 In9 Ni4"
_cell_length_a       3.84186
_cell_length_b       13.5754
_cell_length_c       13.5754
_cell_angle_alpha    112.655
_cell_angle_beta     90
_cell_angle_gamma    90

_space_group_name_H-M_alt    "P 1"
_space_group_IT_number       1

loop_
  _space_group_symop_operation_xyz
  'x, y, z'

loop_
  _atom_site_type_symbol
  _atom_site_label
  _atom_site_symmetry_multiplicity
  _atom_site_fract_x
  _atom_site_fract_y
  _atom_site_fract_z
  _atom_site_occupancy
  Ce  Ce1       1.0  0.00000  0.00000  0.00000  1.0000
  Ce  Ce2       1.0  0.00000  0.41600  0.07760  1.0000
  Ce  Ce3       1.0  0.00000  0.83800  0.16200  1.0000
  Ce  Ce4       1.0  0.00000  0.31300  0.31300  1.0000
  Ce  Ce5       1.0  0.00000  0.62500  0.37500  1.0000
  Ce  Ce6       1.0  0.00000  0.07760  0.41600  1.0000
  Ce  Ce7       1.0  0.00000  0.92200  0.58400  1.0000
  Ce  Ce8       1.0  0.00000  0.37500  0.62500  1.0000
  Ce  Ce9       1.0  0.00000  0.68700  0.68700  1.0000
  Ce  Ce10      1.0  0.00000  0.16200  0.83800  1.0000
  Ce  Ce11      1.0  0.00000  0.58400  0.92200  1.0000
  In  In1       1.0  0.50000  0.22000  0.08190  1.0000
  In  In2       1.0  0.50000  0.63200  0.16400  1.0000
  In  In3       1.0  0.50000  0.08190  0.22000  1.0000
  In  In4       1.0  0.50000  0.83600  0.36800  1.0000
  In  In5       1.0  0.50000  0.50000  0.50000  1.0000
  In  In6       1.0  0.50000  0.16400  0.63200  1.0000
  In  In7       1.0  0.50000  0.91800  0.78000  1.0000
  In  In8       1.0  0.50000  0.36800  0.83600  1.0000
  In  In9       1.0  0.50000  0.78000  0.91800  1.0000
  Ni  Ni1       1.0  0.50000  0.44800  0.24600  1.0000
  Ni  Ni2       1.0  0.50000  0.24600  0.44800  1.0000
  Ni  Ni3       1.0  0.50000  0.75400  0.55200  1.0000
  Ni  Ni4       1.0  0.50000  0.55200  0.75400  1.0000
