data_image0
_chemical_formula_structural       La4Ni19Sn
_chemical_formula_sum              "La4 Ni19 Sn1"
_cell_length_a       10.1268
_cell_length_b       10.2004
_cell_length_c       3.9919
_cell_angle_alpha    90
_cell_angle_beta     90
_cell_angle_gamma    120.249

_space_group_name_H-M_alt    "P 1"
_space_group_IT_number       1

loop_
  _space_group_symop_operation_xyz
  'x, y, z'

loop_
  _atom_site_type_symbol
  _atom_site_label
  _atom_site_symmetry_multiplicity
  _atom_site_fract_x
  _atom_site_fract_y
  _atom_site_fract_z
  _atom_site_occupancy
  La  La1       1.0  0.00268  0.00143  0.00000  1.0000
  La  La2       1.0  0.50000  0.01920  0.00000  1.0000
  La  La3       1.0  0.99700  0.49900  0.00000  1.0000
  La  La4       1.0  0.50000  0.47300  0.50000  1.0000
  Ni  Ni1       1.0  0.83800  0.17000  0.00000  1.0000
  Ni  Ni2       1.0  0.33700  0.18400  0.00000  1.0000
  Ni  Ni3       1.0  0.18400  0.34200  0.00000  1.0000
  Ni  Ni4       1.0  0.66300  0.34700  0.00000  1.0000
  Ni  Ni5       1.0  0.32100  0.64900  0.00000  1.0000
  Ni  Ni6       1.0  0.81600  0.65800  0.00000  1.0000
  Ni  Ni7       1.0  0.67900  0.82800  0.00000  1.0000
  Ni  Ni8       1.0  0.16200  0.83200  0.00000  1.0000
  Ni  Ni9       1.0  0.75900  0.01080  0.50000  1.0000
  Ni  Ni10      1.0  0.50000  0.22400  0.50000  1.0000
  Ni  Ni11      1.0  0.22500  0.22800  0.50000  1.0000
  Ni  Ni12      1.0  0.75500  0.25200  0.50000  1.0000
  Ni  Ni13      1.0  0.00041  0.25200  0.50000  1.0000
  Ni  Ni14      1.0  0.23400  0.49500  0.50000  1.0000
  Ni  Ni15      1.0  0.77500  0.50300  0.50000  1.0000
  Ni  Ni16      1.0  0.24100  0.75200  0.50000  1.0000
  Ni  Ni17      1.0  0.00000  0.75200  0.50000  1.0000
  Ni  Ni18      1.0  0.76600  0.76100  0.50000  1.0000
  Ni  Ni19      1.0  0.24500  0.99700  0.50000  1.0000
  Sn  Sn1       1.0  0.50000  0.77200  0.50000  1.0000
