data_image0
_chemical_formula_structural       F16K4Mn4
_chemical_formula_sum              "F16 K4 Mn4"
_cell_length_a       7.5824
_cell_length_b       7.49621
_cell_length_c       5.52979
_cell_angle_alpha    90
_cell_angle_beta     90.3258
_cell_angle_gamma    90

_space_group_name_H-M_alt    "P 1"
_space_group_IT_number       1

loop_
  _space_group_symop_operation_xyz
  'x, y, z'

loop_
  _atom_site_type_symbol
  _atom_site_label
  _atom_site_symmetry_multiplicity
  _atom_site_fract_x
  _atom_site_fract_y
  _atom_site_fract_z
  _atom_site_occupancy
  F   F1        1.0  0.23800  0.52100  0.10400  1.0000
  F   F2        1.0  0.73800  0.97900  0.10400  1.0000
  F   F3        1.0  0.50000  0.26400  0.13000  1.0000
  F   F4        1.0  0.00000  0.23600  0.13000  1.0000
  F   F5        1.0  0.05930  0.91800  0.29900  1.0000
  F   F6        1.0  0.55900  0.58200  0.29900  1.0000
  F   F7        1.0  0.43100  0.92900  0.30000  1.0000
  F   F8        1.0  0.93100  0.57100  0.30000  1.0000
  F   F9        1.0  0.06860  0.42900  0.70000  1.0000
  F   F10       1.0  0.56900  0.07050  0.70000  1.0000
  F   F11       1.0  0.44100  0.41800  0.70100  1.0000
  F   F12       1.0  0.94100  0.08190  0.70100  1.0000
  F   F13       1.0  0.00018  0.76400  0.87000  1.0000
  F   F14       1.0  0.50000  0.73600  0.87000  1.0000
  F   F15       1.0  0.26200  0.02100  0.89600  1.0000
  F   F16       1.0  0.76200  0.47900  0.89600  1.0000
  K   K1        1.0  0.74800  0.30600  0.47600  1.0000
  K   K2        1.0  0.24800  0.19400  0.47600  1.0000
  K   K3        1.0  0.75200  0.80600  0.52400  1.0000
  K   K4        1.0  0.25200  0.69400  0.52400  1.0000
  Mn  Mn1       1.0  0.00000  0.00000  0.00000  1.0000
  Mn  Mn2       1.0  0.50000  0.00000  0.00000  1.0000
  Mn  Mn3       1.0  0.50000  0.50000  0.00000  1.0000
  Mn  Mn4       1.0  0.00000  0.50000  0.00000  1.0000
