data_image0
_chemical_formula_structural       Cu4Pb4Se12Yb4
_chemical_formula_sum              "Cu4 Pb4 Se12 Yb4"
_cell_length_a       10.8575
_cell_length_b       3.9816
_cell_length_c       13.7677
_cell_angle_alpha    90
_cell_angle_beta     90
_cell_angle_gamma    90

_space_group_name_H-M_alt    "P 1"
_space_group_IT_number       1

loop_
  _space_group_symop_operation_xyz
  'x, y, z'

loop_
  _atom_site_type_symbol
  _atom_site_label
  _atom_site_symmetry_multiplicity
  _atom_site_fract_x
  _atom_site_fract_y
  _atom_site_fract_z
  _atom_site_occupancy
  Cu  Cu1       1.0  0.25500  0.75000  0.22100  1.0000
  Cu  Cu2       1.0  0.75500  0.75000  0.27900  1.0000
  Cu  Cu3       1.0  0.24500  0.25000  0.72100  1.0000
  Cu  Cu4       1.0  0.74500  0.25000  0.77900  1.0000
  Pb  Pb1       1.0  0.26200  0.25000  0.00834  1.0000
  Pb  Pb2       1.0  0.76200  0.25000  0.49200  1.0000
  Pb  Pb3       1.0  0.23800  0.75000  0.50800  1.0000
  Pb  Pb4       1.0  0.73800  0.75000  0.99200  1.0000
  Se  Se1       1.0  0.08400  0.75000  0.10400  1.0000
  Se  Se2       1.0  0.43300  0.75000  0.10900  1.0000
  Se  Se3       1.0  0.75400  0.25000  0.17500  1.0000
  Se  Se4       1.0  0.25400  0.25000  0.32500  1.0000
  Se  Se5       1.0  0.93300  0.75000  0.39100  1.0000
  Se  Se6       1.0  0.58400  0.75000  0.39600  1.0000
  Se  Se7       1.0  0.41600  0.25000  0.60400  1.0000
  Se  Se8       1.0  0.06670  0.25000  0.60900  1.0000
  Se  Se9       1.0  0.74600  0.75000  0.67500  1.0000
  Se  Se10      1.0  0.24600  0.75000  0.82500  1.0000
  Se  Se11      1.0  0.56700  0.25000  0.89100  1.0000
  Se  Se12      1.0  0.91600  0.25000  0.89600  1.0000
  Yb  Yb1       1.0  0.00543  0.25000  0.24600  1.0000
  Yb  Yb2       1.0  0.50500  0.25000  0.25400  1.0000
  Yb  Yb3       1.0  0.49500  0.75000  0.74600  1.0000
  Yb  Yb4       1.0  0.99500  0.75000  0.75400  1.0000
