data_image0
_chemical_formula_structural       Mn4O16Rb4
_chemical_formula_sum              "Mn4 O16 Rb4"
_cell_length_a       9.31146
_cell_length_b       5.54188
_cell_length_c       7.44182
_cell_angle_alpha    90
_cell_angle_beta     90
_cell_angle_gamma    90

_space_group_name_H-M_alt    "P 1"
_space_group_IT_number       1

loop_
  _space_group_symop_operation_xyz
  'x, y, z'

loop_
  _atom_site_type_symbol
  _atom_site_label
  _atom_site_symmetry_multiplicity
  _atom_site_fract_x
  _atom_site_fract_y
  _atom_site_fract_z
  _atom_site_occupancy
  Mn  Mn1       1.0  0.44100  0.25000  0.19900  1.0000
  Mn  Mn2       1.0  0.94100  0.25000  0.30100  1.0000
  Mn  Mn3       1.0  0.05910  0.75000  0.69900  1.0000
  Mn  Mn4       1.0  0.55900  0.75000  0.80100  1.0000
  O   O1        1.0  0.32200  0.25000  0.04010  1.0000
  O   O2        1.0  0.60200  0.25000  0.11800  1.0000
  O   O3        1.0  0.91800  0.01260  0.17800  1.0000
  O   O4        1.0  0.91800  0.48700  0.17800  1.0000
  O   O5        1.0  0.41800  0.01260  0.32200  1.0000
  O   O6        1.0  0.41800  0.48700  0.32200  1.0000
  O   O7        1.0  0.10200  0.25000  0.38200  1.0000
  O   O8        1.0  0.82200  0.25000  0.46000  1.0000
  O   O9        1.0  0.17800  0.75000  0.54000  1.0000
  O   O10       1.0  0.89800  0.75000  0.61800  1.0000
  O   O11       1.0  0.58200  0.51300  0.67800  1.0000
  O   O12       1.0  0.58200  0.98700  0.67800  1.0000
  O   O13       1.0  0.08150  0.51300  0.82200  1.0000
  O   O14       1.0  0.08150  0.98700  0.82200  1.0000
  O   O15       1.0  0.39800  0.75000  0.88200  1.0000
  O   O16       1.0  0.67800  0.75000  0.96000  1.0000
  Rb  Rb1       1.0  0.18400  0.75000  0.15700  1.0000
  Rb  Rb2       1.0  0.68400  0.75000  0.34300  1.0000
  Rb  Rb3       1.0  0.31600  0.25000  0.65700  1.0000
  Rb  Rb4       1.0  0.81600  0.25000  0.84300  1.0000
