data_image0
_chemical_formula_structural       Co4In10Zn2
_chemical_formula_sum              "Co4 In10 Zn2"
_cell_length_a       6.75866
_cell_length_b       6.75866
_cell_length_c       7.06184
_cell_angle_alpha    90
_cell_angle_beta     90
_cell_angle_gamma    90

_space_group_name_H-M_alt    "P 1"
_space_group_IT_number       1

loop_
  _space_group_symop_operation_xyz
  'x, y, z'

loop_
  _atom_site_type_symbol
  _atom_site_label
  _atom_site_symmetry_multiplicity
  _atom_site_fract_x
  _atom_site_fract_y
  _atom_site_fract_z
  _atom_site_occupancy
  Co  Co1       1.0  0.15100  0.35100  0.00000  1.0000
  Co  Co2       1.0  0.84900  0.64900  0.00000  1.0000
  Co  Co3       1.0  0.64900  0.15100  0.50000  1.0000
  Co  Co4       1.0  0.35100  0.84900  0.50000  1.0000
  In  In1       1.0  0.00000  0.00000  0.00000  1.0000
  In  In2       1.0  0.82700  0.35200  0.24000  1.0000
  In  In3       1.0  0.17300  0.64800  0.24000  1.0000
  In  In4       1.0  0.35200  0.17300  0.26000  1.0000
  In  In5       1.0  0.64800  0.82700  0.26000  1.0000
  In  In6       1.0  0.00000  0.00000  0.50000  1.0000
  In  In7       1.0  0.35200  0.17300  0.74000  1.0000
  In  In8       1.0  0.64800  0.82700  0.74000  1.0000
  In  In9       1.0  0.82700  0.35200  0.76000  1.0000
  In  In10      1.0  0.17300  0.64800  0.76000  1.0000
  Zn  Zn1       1.0  0.50000  0.50000  0.00000  1.0000
  Zn  Zn2       1.0  0.50000  0.50000  0.50000  1.0000
