data_image0
_chemical_formula_structural       In9Ni4Y11
_chemical_formula_sum              "In9 Ni4 Y11"
_cell_length_a       3.66722
_cell_length_b       13.537
_cell_length_c       13.537
_cell_angle_alpha    113.093
_cell_angle_beta     90
_cell_angle_gamma    90

_space_group_name_H-M_alt    "P 1"
_space_group_IT_number       1

loop_
  _space_group_symop_operation_xyz
  'x, y, z'

loop_
  _atom_site_type_symbol
  _atom_site_label
  _atom_site_symmetry_multiplicity
  _atom_site_fract_x
  _atom_site_fract_y
  _atom_site_fract_z
  _atom_site_occupancy
  In  In1       1.0  0.50000  0.21900  0.08150  1.0000
  In  In2       1.0  0.50000  0.63000  0.16500  1.0000
  In  In3       1.0  0.50000  0.08150  0.21900  1.0000
  In  In4       1.0  0.50000  0.83500  0.37000  1.0000
  In  In5       1.0  0.50000  0.50000  0.50000  1.0000
  In  In6       1.0  0.50000  0.16500  0.63000  1.0000
  In  In7       1.0  0.50000  0.91900  0.78100  1.0000
  In  In8       1.0  0.50000  0.37000  0.83500  1.0000
  In  In9       1.0  0.50000  0.78100  0.91900  1.0000
  Ni  Ni1       1.0  0.50000  0.44700  0.24400  1.0000
  Ni  Ni2       1.0  0.50000  0.24400  0.44700  1.0000
  Ni  Ni3       1.0  0.50000  0.75600  0.55300  1.0000
  Ni  Ni4       1.0  0.50000  0.55300  0.75600  1.0000
  Y   Y1        1.0  0.00000  0.00000  0.00000  1.0000
  Y   Y2        1.0  0.00000  0.41500  0.07770  1.0000
  Y   Y3        1.0  0.00000  0.83800  0.16200  1.0000
  Y   Y4        1.0  0.00000  0.31400  0.31400  1.0000
  Y   Y5        1.0  0.00000  0.62300  0.37700  1.0000
  Y   Y6        1.0  0.00000  0.07770  0.41500  1.0000
  Y   Y7        1.0  0.00000  0.92200  0.58500  1.0000
  Y   Y8        1.0  0.00000  0.37700  0.62300  1.0000
  Y   Y9        1.0  0.00000  0.68600  0.68600  1.0000
  Y   Y10       1.0  0.00000  0.16200  0.83800  1.0000
  Y   Y11       1.0  0.00000  0.58500  0.92200  1.0000
