data_image0
_chemical_formula_structural       Co4Na12O8
_chemical_formula_sum              "Co4 Na12 O8"
_cell_length_a       9.33441
_cell_length_b       9.33441
_cell_length_c       4.5972
_cell_angle_alpha    90
_cell_angle_beta     90
_cell_angle_gamma    90

_space_group_name_H-M_alt    "P 1"
_space_group_IT_number       1

loop_
  _space_group_symop_operation_xyz
  'x, y, z'

loop_
  _atom_site_type_symbol
  _atom_site_label
  _atom_site_symmetry_multiplicity
  _atom_site_fract_x
  _atom_site_fract_y
  _atom_site_fract_z
  _atom_site_occupancy
  Co  Co1       1.0  0.32400  0.32400  0.00000  1.0000
  Co  Co2       1.0  0.67600  0.67600  0.00000  1.0000
  Co  Co3       1.0  0.82400  0.17600  0.50000  1.0000
  Co  Co4       1.0  0.17600  0.82400  0.50000  1.0000
  Na  Na1       1.0  0.65800  0.02520  0.00000  1.0000
  Na  Na2       1.0  0.97500  0.34200  0.00000  1.0000
  Na  Na3       1.0  0.64300  0.35700  0.00000  1.0000
  Na  Na4       1.0  0.35700  0.64300  0.00000  1.0000
  Na  Na5       1.0  0.02520  0.65800  0.00000  1.0000
  Na  Na6       1.0  0.34200  0.97500  0.00000  1.0000
  Na  Na7       1.0  0.14300  0.14300  0.50000  1.0000
  Na  Na8       1.0  0.47500  0.15800  0.50000  1.0000
  Na  Na9       1.0  0.15800  0.47500  0.50000  1.0000
  Na  Na10      1.0  0.84200  0.52500  0.50000  1.0000
  Na  Na11      1.0  0.52500  0.84200  0.50000  1.0000
  Na  Na12      1.0  0.85700  0.85700  0.50000  1.0000
  O   O1        1.0  0.46200  0.19500  0.00000  1.0000
  O   O2        1.0  0.19500  0.46200  0.00000  1.0000
  O   O3        1.0  0.80500  0.53800  0.00000  1.0000
  O   O4        1.0  0.53800  0.80500  0.00000  1.0000
  O   O5        1.0  0.69500  0.03850  0.50000  1.0000
  O   O6        1.0  0.96200  0.30500  0.50000  1.0000
  O   O7        1.0  0.03850  0.69500  0.50000  1.0000
  O   O8        1.0  0.30500  0.96200  0.50000  1.0000
