data_image0
_chemical_formula_structural       Al8Ba2Se14
_chemical_formula_sum              "Al8 Ba2 Se14"
_cell_length_a       7.72523
_cell_length_b       6.62642
_cell_length_c       14.9292
_cell_angle_alpha    90
_cell_angle_beta     121.013
_cell_angle_gamma    90

_space_group_name_H-M_alt    "P 1"
_space_group_IT_number       1

loop_
  _space_group_symop_operation_xyz
  'x, y, z'

loop_
  _atom_site_type_symbol
  _atom_site_label
  _atom_site_symmetry_multiplicity
  _atom_site_fract_x
  _atom_site_fract_y
  _atom_site_fract_z
  _atom_site_occupancy
  Al  Al1       1.0  0.99000  0.84100  0.25700  1.0000
  Al  Al2       1.0  0.50800  0.84800  0.27300  1.0000
  Al  Al3       1.0  0.76400  0.36900  0.27600  1.0000
  Al  Al4       1.0  0.99800  0.01910  0.49600  1.0000
  Al  Al5       1.0  0.99000  0.15900  0.75700  1.0000
  Al  Al6       1.0  0.50800  0.15200  0.77300  1.0000
  Al  Al7       1.0  0.76400  0.63100  0.77600  1.0000
  Al  Al8       1.0  0.99800  0.98100  0.99600  1.0000
  Ba  Ba1       1.0  0.43600  0.35500  0.45300  1.0000
  Ba  Ba2       1.0  0.43600  0.64500  0.95300  1.0000
  Se  Se1       1.0  0.89700  0.51700  0.17700  1.0000
  Se  Se2       1.0  0.17900  0.02370  0.19100  1.0000
  Se  Se3       1.0  0.67400  0.02620  0.19300  1.0000
  Se  Se4       1.0  0.43900  0.50100  0.22800  1.0000
  Se  Se5       1.0  0.21100  0.85600  0.44300  1.0000
  Se  Se6       1.0  0.67200  0.90500  0.45600  1.0000
  Se  Se7       1.0  0.00076  0.36900  0.46000  1.0000
  Se  Se8       1.0  0.89700  0.48300  0.67700  1.0000
  Se  Se9       1.0  0.17900  0.97600  0.69100  1.0000
  Se  Se10      1.0  0.67400  0.97400  0.69300  1.0000
  Se  Se11      1.0  0.43900  0.49900  0.72800  1.0000
  Se  Se12      1.0  0.21100  0.14400  0.94300  1.0000
  Se  Se13      1.0  0.67200  0.09480  0.95600  1.0000
  Se  Se14      1.0  0.00076  0.63100  0.96000  1.0000
