data_image0
_chemical_formula_structural       B16Ce4Re4
_chemical_formula_sum              "B16 Ce4 Re4"
_cell_length_a       6.12712
_cell_length_b       11.8546
_cell_length_c       3.71037
_cell_angle_alpha    90
_cell_angle_beta     90
_cell_angle_gamma    90

_space_group_name_H-M_alt    "P 1"
_space_group_IT_number       1

loop_
  _space_group_symop_operation_xyz
  'x, y, z'

loop_
  _atom_site_type_symbol
  _atom_site_label
  _atom_site_symmetry_multiplicity
  _atom_site_fract_x
  _atom_site_fract_y
  _atom_site_fract_z
  _atom_site_occupancy
  B   B1        1.0  0.85700  0.03260  0.50000  1.0000
  B   B2        1.0  0.38800  0.04540  0.50000  1.0000
  B   B3        1.0  0.77900  0.18200  0.50000  1.0000
  B   B4        1.0  0.47600  0.18800  0.50000  1.0000
  B   B5        1.0  0.97600  0.31200  0.50000  1.0000
  B   B6        1.0  0.27900  0.31800  0.50000  1.0000
  B   B7        1.0  0.88800  0.45500  0.50000  1.0000
  B   B8        1.0  0.35700  0.46700  0.50000  1.0000
  B   B9        1.0  0.64300  0.53300  0.50000  1.0000
  B   B10       1.0  0.11200  0.54500  0.50000  1.0000
  B   B11       1.0  0.72100  0.68200  0.50000  1.0000
  B   B12       1.0  0.02410  0.68800  0.50000  1.0000
  B   B13       1.0  0.52400  0.81200  0.50000  1.0000
  B   B14       1.0  0.22100  0.81800  0.50000  1.0000
  B   B15       1.0  0.61200  0.95500  0.50000  1.0000
  B   B16       1.0  0.14300  0.96700  0.50000  1.0000
  Ce  Ce1       1.0  0.12300  0.15100  0.00000  1.0000
  Ce  Ce2       1.0  0.62300  0.34900  0.00000  1.0000
  Ce  Ce3       1.0  0.37700  0.65100  0.00000  1.0000
  Ce  Ce4       1.0  0.87700  0.84900  0.00000  1.0000
  Re  Re1       1.0  0.62800  0.08500  0.00000  1.0000
  Re  Re2       1.0  0.12800  0.41500  0.00000  1.0000
  Re  Re3       1.0  0.87200  0.58500  0.00000  1.0000
  Re  Re4       1.0  0.37200  0.91500  0.00000  1.0000
