data_image0
_chemical_formula_structural       In9Ni4Pr11
_chemical_formula_sum              "In9 Ni4 Pr11"
_cell_length_a       3.80672
_cell_length_b       13.4674
_cell_length_c       13.4674
_cell_angle_alpha    112.566
_cell_angle_beta     90
_cell_angle_gamma    90

_space_group_name_H-M_alt    "P 1"
_space_group_IT_number       1

loop_
  _space_group_symop_operation_xyz
  'x, y, z'

loop_
  _atom_site_type_symbol
  _atom_site_label
  _atom_site_symmetry_multiplicity
  _atom_site_fract_x
  _atom_site_fract_y
  _atom_site_fract_z
  _atom_site_occupancy
  In  In1       1.0  0.50000  0.22000  0.08080  1.0000
  In  In2       1.0  0.50000  0.63200  0.16300  1.0000
  In  In3       1.0  0.50000  0.08080  0.22000  1.0000
  In  In4       1.0  0.50000  0.83700  0.36800  1.0000
  In  In5       1.0  0.50000  0.50000  0.50000  1.0000
  In  In6       1.0  0.50000  0.16300  0.63200  1.0000
  In  In7       1.0  0.50000  0.91900  0.78000  1.0000
  In  In8       1.0  0.50000  0.36800  0.83700  1.0000
  In  In9       1.0  0.50000  0.78000  0.91900  1.0000
  Ni  Ni1       1.0  0.50000  0.44800  0.24600  1.0000
  Ni  Ni2       1.0  0.50000  0.24600  0.44800  1.0000
  Ni  Ni3       1.0  0.50000  0.75400  0.55200  1.0000
  Ni  Ni4       1.0  0.50000  0.55200  0.75400  1.0000
  Pr  Pr1       1.0  0.00000  0.00000  0.00000  1.0000
  Pr  Pr2       1.0  0.00000  0.41600  0.07740  1.0000
  Pr  Pr3       1.0  0.00000  0.83800  0.16200  1.0000
  Pr  Pr4       1.0  0.00000  0.31300  0.31300  1.0000
  Pr  Pr5       1.0  0.00000  0.62500  0.37500  1.0000
  Pr  Pr6       1.0  0.00000  0.07740  0.41600  1.0000
  Pr  Pr7       1.0  0.00000  0.92300  0.58400  1.0000
  Pr  Pr8       1.0  0.00000  0.37500  0.62500  1.0000
  Pr  Pr9       1.0  0.00000  0.68700  0.68700  1.0000
  Pr  Pr10      1.0  0.00000  0.16200  0.83800  1.0000
  Pr  Pr11      1.0  0.00000  0.58400  0.92300  1.0000
