data_image0
_chemical_formula_structural       Al4Br12N4Se4
_chemical_formula_sum              "Al4 Br12 N4 Se4"
_cell_length_a       7.67378
_cell_length_b       10.2827
_cell_length_c       9.79435
_cell_angle_alpha    90
_cell_angle_beta     110.301
_cell_angle_gamma    90

_space_group_name_H-M_alt    "P 1"
_space_group_IT_number       1

loop_
  _space_group_symop_operation_xyz
  'x, y, z'

loop_
  _atom_site_type_symbol
  _atom_site_label
  _atom_site_symmetry_multiplicity
  _atom_site_fract_x
  _atom_site_fract_y
  _atom_site_fract_z
  _atom_site_occupancy
  Al  Al1       1.0  0.38400  0.12600  0.15400  1.0000
  Al  Al2       1.0  0.11600  0.62600  0.34600  1.0000
  Al  Al3       1.0  0.88400  0.37400  0.65400  1.0000
  Al  Al4       1.0  0.61600  0.87400  0.84600  1.0000
  Br  Br1       1.0  0.43300  0.31600  0.05200  1.0000
  Br  Br2       1.0  0.19600  0.66400  0.14000  1.0000
  Br  Br3       1.0  0.62100  0.97300  0.21000  1.0000
  Br  Br4       1.0  0.87900  0.47300  0.29000  1.0000
  Br  Br5       1.0  0.30400  0.16400  0.36000  1.0000
  Br  Br6       1.0  0.06730  0.81600  0.44800  1.0000
  Br  Br7       1.0  0.93300  0.18400  0.55200  1.0000
  Br  Br8       1.0  0.69600  0.83600  0.64000  1.0000
  Br  Br9       1.0  0.12100  0.52700  0.71000  1.0000
  Br  Br10      1.0  0.37900  0.02730  0.79000  1.0000
  Br  Br11      1.0  0.80400  0.33600  0.86000  1.0000
  Br  Br12      1.0  0.56700  0.68400  0.94800  1.0000
  N   N1        1.0  0.15300  0.04500  0.04710  1.0000
  N   N2        1.0  0.34700  0.54500  0.45300  1.0000
  N   N3        1.0  0.65300  0.45500  0.54700  1.0000
  N   N4        1.0  0.84700  0.95500  0.95300  1.0000
  Se  Se1       1.0  0.97100  0.03440  0.12700  1.0000
  Se  Se2       1.0  0.52900  0.53400  0.37300  1.0000
  Se  Se3       1.0  0.47100  0.46600  0.62700  1.0000
  Se  Se4       1.0  0.02890  0.96600  0.87300  1.0000
