data_image0
_chemical_formula_structural       Ba4Co2O14Si4
_chemical_formula_sum              "Ba4 Co2 O14 Si4"
_cell_length_a       6.81891
_cell_length_b       6.81891
_cell_length_c       8.46592
_cell_angle_alpha    103.202
_cell_angle_beta     103.202
_cell_angle_gamma    103.405

_space_group_name_H-M_alt    "P 1"
_space_group_IT_number       1

loop_
  _space_group_symop_operation_xyz
  'x, y, z'

loop_
  _atom_site_type_symbol
  _atom_site_label
  _atom_site_symmetry_multiplicity
  _atom_site_fract_x
  _atom_site_fract_y
  _atom_site_fract_z
  _atom_site_occupancy
  Ba  Ba1       1.0  0.81700  0.73000  0.02670  1.0000
  Ba  Ba2       1.0  0.27000  0.18300  0.47300  1.0000
  Ba  Ba3       1.0  0.73000  0.81700  0.52700  1.0000
  Ba  Ba4       1.0  0.18300  0.27000  0.97300  1.0000
  Co  Co1       1.0  0.74200  0.25800  0.25000  1.0000
  Co  Co2       1.0  0.25800  0.74200  0.75000  1.0000
  O   O1        1.0  0.61900  0.32900  0.04500  1.0000
  O   O2        1.0  0.24200  0.97800  0.13300  1.0000
  O   O3        1.0  0.64700  0.95700  0.23800  1.0000
  O   O4        1.0  0.33500  0.66500  0.25000  1.0000
  O   O5        1.0  0.04290  0.35300  0.26200  1.0000
  O   O6        1.0  0.02150  0.75800  0.36700  1.0000
  O   O7        1.0  0.67100  0.38100  0.45500  1.0000
  O   O8        1.0  0.32900  0.61900  0.54500  1.0000
  O   O9        1.0  0.97800  0.24200  0.63300  1.0000
  O   O10       1.0  0.95700  0.64700  0.73800  1.0000
  O   O11       1.0  0.66500  0.33500  0.75000  1.0000
  O   O12       1.0  0.35300  0.04290  0.76200  1.0000
  O   O13       1.0  0.75800  0.02150  0.86700  1.0000
  O   O14       1.0  0.38100  0.67100  0.95500  1.0000
  Si  Si1       1.0  0.39700  0.83200  0.13700  1.0000
  Si  Si2       1.0  0.16800  0.60300  0.36300  1.0000
  Si  Si3       1.0  0.83200  0.39700  0.63700  1.0000
  Si  Si4       1.0  0.60300  0.16800  0.86300  1.0000
