data_image0
_chemical_formula_structural       Ca6Co2O12Sc2
_chemical_formula_sum              "Ca6 Co2 O12 Sc2"
_cell_length_a       6.3941
_cell_length_b       6.3941
_cell_length_c       6.3941
_cell_angle_alpha    92.5245
_cell_angle_beta     92.5245
_cell_angle_gamma    92.5245

_space_group_name_H-M_alt    "P 1"
_space_group_IT_number       1

loop_
  _space_group_symop_operation_xyz
  'x, y, z'

loop_
  _atom_site_type_symbol
  _atom_site_label
  _atom_site_symmetry_multiplicity
  _atom_site_fract_x
  _atom_site_fract_y
  _atom_site_fract_z
  _atom_site_occupancy
  Ca  Ca1       1.0  0.75000  0.38300  0.11700  1.0000
  Ca  Ca2       1.0  0.61700  0.88300  0.25000  1.0000
  Ca  Ca3       1.0  0.11700  0.75000  0.38300  1.0000
  Ca  Ca4       1.0  0.88300  0.25000  0.61700  1.0000
  Ca  Ca5       1.0  0.38300  0.11700  0.75000  1.0000
  Ca  Ca6       1.0  0.25000  0.61700  0.88300  1.0000
  Co  Co1       1.0  0.00000  0.00000  0.00000  1.0000
  Co  Co2       1.0  0.50000  0.50000  0.50000  1.0000
  O   O1        1.0  0.91000  0.70200  0.04380  1.0000
  O   O2        1.0  0.29800  0.95600  0.09040  1.0000
  O   O3        1.0  0.41000  0.54400  0.20200  1.0000
  O   O4        1.0  0.95600  0.09040  0.29800  1.0000
  O   O5        1.0  0.54400  0.20200  0.41000  1.0000
  O   O6        1.0  0.79800  0.59000  0.45600  1.0000
  O   O7        1.0  0.20200  0.41000  0.54400  1.0000
  O   O8        1.0  0.45600  0.79800  0.59000  1.0000
  O   O9        1.0  0.04380  0.91000  0.70200  1.0000
  O   O10       1.0  0.59000  0.45600  0.79800  1.0000
  O   O11       1.0  0.70200  0.04380  0.91000  1.0000
  O   O12       1.0  0.09040  0.29800  0.95600  1.0000
  Sc  Sc1       1.0  0.25000  0.25000  0.25000  1.0000
  Sc  Sc2       1.0  0.75000  0.75000  0.75000  1.0000
