data_image0
_chemical_formula_structural       Ba4Br8
_chemical_formula_sum              "Ba4 Br8"
_cell_length_a       8.31916
_cell_length_b       4.99947
_cell_length_c       9.99844
_cell_angle_alpha    90
_cell_angle_beta     90
_cell_angle_gamma    90

_space_group_name_H-M_alt    "P 1"
_space_group_IT_number       1

loop_
  _space_group_symop_operation_xyz
  'x, y, z'

loop_
  _atom_site_type_symbol
  _atom_site_label
  _atom_site_symmetry_multiplicity
  _atom_site_fract_x
  _atom_site_fract_y
  _atom_site_fract_z
  _atom_site_occupancy
  Ba  Ba1       1.0  0.24700  0.25000  0.11500  1.0000
  Ba  Ba2       1.0  0.74700  0.25000  0.38500  1.0000
  Ba  Ba3       1.0  0.25300  0.75000  0.61500  1.0000
  Ba  Ba4       1.0  0.75300  0.75000  0.88500  1.0000
  Br  Br1       1.0  0.64300  0.25000  0.07170  1.0000
  Br  Br2       1.0  0.97400  0.75000  0.16800  1.0000
  Br  Br3       1.0  0.47400  0.75000  0.33200  1.0000
  Br  Br4       1.0  0.14300  0.25000  0.42800  1.0000
  Br  Br5       1.0  0.85700  0.75000  0.57200  1.0000
  Br  Br6       1.0  0.52600  0.25000  0.66800  1.0000
  Br  Br7       1.0  0.02570  0.25000  0.83200  1.0000
  Br  Br8       1.0  0.35700  0.75000  0.92800  1.0000
