data_image0
_chemical_formula_structural       Co18Si4Th2
_chemical_formula_sum              "Co18 Si4 Th2"
_cell_length_a       6.2733
_cell_length_b       7.53665
_cell_length_c       7.53665
_cell_angle_alpha    99.9745
_cell_angle_beta     114.594
_cell_angle_gamma    65.406

_space_group_name_H-M_alt    "P 1"
_space_group_IT_number       1

loop_
  _space_group_symop_operation_xyz
  'x, y, z'

loop_
  _atom_site_type_symbol
  _atom_site_label
  _atom_site_symmetry_multiplicity
  _atom_site_fract_x
  _atom_site_fract_y
  _atom_site_fract_z
  _atom_site_occupancy
  Co  Co1       1.0  0.77000  0.16800  0.08050  1.0000
  Co  Co2       1.0  0.31000  0.33200  0.08050  1.0000
  Co  Co3       1.0  0.23000  0.08050  0.16800  1.0000
  Co  Co4       1.0  0.93900  0.41900  0.16800  1.0000
  Co  Co5       1.0  0.62500  0.75000  0.25000  1.0000
  Co  Co6       1.0  0.69000  0.08050  0.33200  1.0000
  Co  Co7       1.0  0.64200  0.41900  0.33200  1.0000
  Co  Co8       1.0  0.35800  0.33200  0.41900  1.0000
  Co  Co9       1.0  0.06150  0.16800  0.41900  1.0000
  Co  Co10      1.0  0.93900  0.83200  0.58100  1.0000
  Co  Co11      1.0  0.64200  0.66800  0.58100  1.0000
  Co  Co12      1.0  0.35800  0.58100  0.66800  1.0000
  Co  Co13      1.0  0.31000  0.91900  0.66800  1.0000
  Co  Co14      1.0  0.37500  0.25000  0.75000  1.0000
  Co  Co15      1.0  0.06150  0.58100  0.83200  1.0000
  Co  Co16      1.0  0.77000  0.91900  0.83200  1.0000
  Co  Co17      1.0  0.69000  0.66800  0.91900  1.0000
  Co  Co18      1.0  0.23000  0.83200  0.91900  1.0000
  Si  Si1       1.0  0.50000  0.00000  0.00000  1.0000
  Si  Si2       1.0  0.50000  0.50000  0.00000  1.0000
  Si  Si3       1.0  0.50000  0.00000  0.50000  1.0000
  Si  Si4       1.0  0.00000  0.50000  0.50000  1.0000
  Th  Th1       1.0  0.12500  0.75000  0.25000  1.0000
  Th  Th2       1.0  0.87500  0.25000  0.75000  1.0000
