data_image0
_chemical_formula_structural       Ce6O16Zr2
_chemical_formula_sum              "Ce6 O16 Zr2"
_cell_length_a       7.90992
_cell_length_b       7.9099
_cell_length_c       5.63335
_cell_angle_alpha    90.0465
_cell_angle_beta     90.0467
_cell_angle_gamma    91.7526

_space_group_name_H-M_alt    "P 1"
_space_group_IT_number       1

loop_
  _space_group_symop_operation_xyz
  'x, y, z'

loop_
  _atom_site_type_symbol
  _atom_site_label
  _atom_site_symmetry_multiplicity
  _atom_site_fract_x
  _atom_site_fract_y
  _atom_site_fract_z
  _atom_site_occupancy
  Ce  Ce1       1.0  0.99600  0.50400  0.00000  1.0000
  Ce  Ce2       1.0  0.98900  0.00801  0.00030  1.0000
  Ce  Ce3       1.0  0.76100  0.24200  0.50000  1.0000
  Ce  Ce4       1.0  0.75400  0.74600  0.50000  1.0000
  Ce  Ce5       1.0  0.25800  0.73900  0.50000  1.0000
  Ce  Ce6       1.0  0.49200  0.51100  0.00000  1.0000
  O   O1        1.0  0.49700  0.76300  0.23300  1.0000
  O   O2        1.0  0.73800  0.00160  0.23500  1.0000
  O   O3        1.0  0.44200  0.18800  0.24300  1.0000
  O   O4        1.0  0.01430  0.76400  0.24900  1.0000
  O   O5        1.0  0.73600  0.48600  0.25100  1.0000
  O   O6        1.0  0.30800  0.06180  0.25700  1.0000
  O   O7        1.0  0.01240  0.24800  0.26500  1.0000
  O   O8        1.0  0.25300  0.48700  0.26700  1.0000
  O   O9        1.0  0.01330  0.24700  0.73300  1.0000
  O   O10       1.0  0.25200  0.48800  0.73500  1.0000
  O   O11       1.0  0.43800  0.19200  0.74300  1.0000
  O   O12       1.0  0.01370  0.76400  0.74900  1.0000
  O   O13       1.0  0.73600  0.48600  0.75100  1.0000
  O   O14       1.0  0.31200  0.05790  0.75700  1.0000
  O   O15       1.0  0.49800  0.76200  0.76500  1.0000
  O   O16       1.0  0.73700  0.00312  0.76700  1.0000
  Zr  Zr1       1.0  0.53900  0.96100  0.00000  1.0000
  Zr  Zr2       1.0  0.21100  0.28900  0.50000  1.0000
