data_image0
_chemical_formula_structural       In4S14Sn6
_chemical_formula_sum              "In4 S14 Sn6"
_cell_length_a       11.5075
_cell_length_b       3.81842
_cell_length_c       13.2129
_cell_angle_alpha    90
_cell_angle_beta     105.733
_cell_angle_gamma    90

_space_group_name_H-M_alt    "P 1"
_space_group_IT_number       1

loop_
  _space_group_symop_operation_xyz
  'x, y, z'

loop_
  _atom_site_type_symbol
  _atom_site_label
  _atom_site_symmetry_multiplicity
  _atom_site_fract_x
  _atom_site_fract_y
  _atom_site_fract_z
  _atom_site_occupancy
  In  In1       1.0  0.51300  0.75000  0.12400  1.0000
  In  In2       1.0  0.52800  0.25000  0.38800  1.0000
  In  In3       1.0  0.47200  0.75000  0.61200  1.0000
  In  In4       1.0  0.48700  0.25000  0.87600  1.0000
  S   S1        1.0  0.64000  0.25000  0.06410  1.0000
  S   S2        1.0  0.09950  0.75000  0.11800  1.0000
  S   S3        1.0  0.38700  0.25000  0.17900  1.0000
  S   S4        1.0  0.91400  0.25000  0.26400  1.0000
  S   S5        1.0  0.65400  0.75000  0.32600  1.0000
  S   S6        1.0  0.38100  0.75000  0.41000  1.0000
  S   S7        1.0  0.12200  0.75000  0.47600  1.0000
  S   S8        1.0  0.87800  0.25000  0.52400  1.0000
  S   S9        1.0  0.61900  0.25000  0.59000  1.0000
  S   S10       1.0  0.34600  0.25000  0.67400  1.0000
  S   S11       1.0  0.08600  0.75000  0.73600  1.0000
  S   S12       1.0  0.61300  0.75000  0.82100  1.0000
  S   S13       1.0  0.90000  0.25000  0.88200  1.0000
  S   S14       1.0  0.36000  0.75000  0.93600  1.0000
  Sn  Sn1       1.0  0.18800  0.25000  0.00103  1.0000
  Sn  Sn2       1.0  0.17000  0.25000  0.27400  1.0000
  Sn  Sn3       1.0  0.89200  0.75000  0.38800  1.0000
  Sn  Sn4       1.0  0.10800  0.25000  0.61200  1.0000
  Sn  Sn5       1.0  0.83000  0.75000  0.72600  1.0000
  Sn  Sn6       1.0  0.81200  0.75000  0.99900  1.0000
