data_image0
_chemical_formula_structural       Cl8Sn4
_chemical_formula_sum              "Cl8 Sn4"
_cell_length_a       7.88037
_cell_length_b       9.39647
_cell_length_c       4.38436
_cell_angle_alpha    90
_cell_angle_beta     90
_cell_angle_gamma    90

_space_group_name_H-M_alt    "P 1"
_space_group_IT_number       1

loop_
  _space_group_symop_operation_xyz
  'x, y, z'

loop_
  _atom_site_type_symbol
  _atom_site_label
  _atom_site_symmetry_multiplicity
  _atom_site_fract_x
  _atom_site_fract_y
  _atom_site_fract_z
  _atom_site_occupancy
  Cl  Cl1       1.0  0.64400  0.07730  0.25000  1.0000
  Cl  Cl2       1.0  0.14400  0.42300  0.25000  1.0000
  Cl  Cl3       1.0  0.51800  0.65100  0.25000  1.0000
  Cl  Cl4       1.0  0.01830  0.84900  0.25000  1.0000
  Cl  Cl5       1.0  0.98200  0.15100  0.75000  1.0000
  Cl  Cl6       1.0  0.48200  0.34900  0.75000  1.0000
  Cl  Cl7       1.0  0.85600  0.57700  0.75000  1.0000
  Cl  Cl8       1.0  0.35600  0.92300  0.75000  1.0000
  Sn  Sn1       1.0  0.22900  0.07100  0.25000  1.0000
  Sn  Sn2       1.0  0.72900  0.42900  0.25000  1.0000
  Sn  Sn3       1.0  0.27100  0.57100  0.75000  1.0000
  Sn  Sn4       1.0  0.77100  0.92900  0.75000  1.0000
