data_image0
_chemical_formula_structural       Cs16Sb8
_chemical_formula_sum              "Cs16 Sb8"
_cell_length_a       16.5576
_cell_length_b       6.47487
_cell_length_c       11.4095
_cell_angle_alpha    90
_cell_angle_beta     90
_cell_angle_gamma    90

_space_group_name_H-M_alt    "P 1"
_space_group_IT_number       1

loop_
  _space_group_symop_operation_xyz
  'x, y, z'

loop_
  _atom_site_type_symbol
  _atom_site_label
  _atom_site_symmetry_multiplicity
  _atom_site_fract_x
  _atom_site_fract_y
  _atom_site_fract_z
  _atom_site_occupancy
  Cs  Cs1       1.0  0.94200  0.75000  0.08590  1.0000
  Cs  Cs2       1.0  0.70600  0.75000  0.09520  1.0000
  Cs  Cs3       1.0  0.49200  0.25000  0.16000  1.0000
  Cs  Cs4       1.0  0.24600  0.25000  0.23800  1.0000
  Cs  Cs5       1.0  0.74600  0.25000  0.26200  1.0000
  Cs  Cs6       1.0  0.99200  0.25000  0.34000  1.0000
  Cs  Cs7       1.0  0.20600  0.75000  0.40500  1.0000
  Cs  Cs8       1.0  0.44200  0.75000  0.41400  1.0000
  Cs  Cs9       1.0  0.55800  0.25000  0.58600  1.0000
  Cs  Cs10      1.0  0.79400  0.25000  0.59500  1.0000
  Cs  Cs11      1.0  0.00756  0.75000  0.66000  1.0000
  Cs  Cs12      1.0  0.25400  0.75000  0.73800  1.0000
  Cs  Cs13      1.0  0.75400  0.75000  0.76200  1.0000
  Cs  Cs14      1.0  0.50800  0.75000  0.84000  1.0000
  Cs  Cs15      1.0  0.29400  0.25000  0.90500  1.0000
  Cs  Cs16      1.0  0.05830  0.25000  0.91400  1.0000
  Sb  Sb1       1.0  0.16700  0.75000  0.06270  1.0000
  Sb  Sb2       1.0  0.34500  0.75000  0.09080  1.0000
  Sb  Sb3       1.0  0.84500  0.75000  0.40900  1.0000
  Sb  Sb4       1.0  0.66700  0.75000  0.43700  1.0000
  Sb  Sb5       1.0  0.33300  0.25000  0.56300  1.0000
  Sb  Sb6       1.0  0.15500  0.25000  0.59100  1.0000
  Sb  Sb7       1.0  0.65500  0.25000  0.90900  1.0000
  Sb  Sb8       1.0  0.83300  0.25000  0.93700  1.0000
