data_image0
_chemical_formula_structural       C10I2O10Tc2
_chemical_formula_sum              "C10 I2 O10 Tc2"
_cell_length_a       6.54488
_cell_length_b       6.54488
_cell_length_c       10.5225
_cell_angle_alpha    90
_cell_angle_beta     90
_cell_angle_gamma    110.654

_space_group_name_H-M_alt    "P 1"
_space_group_IT_number       1

loop_
  _space_group_symop_operation_xyz
  'x, y, z'

loop_
  _atom_site_type_symbol
  _atom_site_label
  _atom_site_symmetry_multiplicity
  _atom_site_fract_x
  _atom_site_fract_y
  _atom_site_fract_z
  _atom_site_occupancy
  C   C1        1.0  0.17500  0.44000  0.11800  1.0000
  C   C2        1.0  0.56000  0.82500  0.11800  1.0000
  C   C3        1.0  0.17900  0.82100  0.25000  1.0000
  C   C4        1.0  0.17500  0.44000  0.38200  1.0000
  C   C5        1.0  0.56000  0.82500  0.38200  1.0000
  C   C6        1.0  0.44000  0.17500  0.61800  1.0000
  C   C7        1.0  0.82500  0.56000  0.61800  1.0000
  C   C8        1.0  0.82100  0.17900  0.75000  1.0000
  C   C9        1.0  0.44000  0.17500  0.88200  1.0000
  C   C10       1.0  0.82500  0.56000  0.88200  1.0000
  I   I1        1.0  0.62000  0.38000  0.25000  1.0000
  I   I2        1.0  0.38000  0.62000  0.75000  1.0000
  O   O1        1.0  0.07000  0.31800  0.04410  1.0000
  O   O2        1.0  0.68200  0.93000  0.04410  1.0000
  O   O3        1.0  0.07110  0.92900  0.25000  1.0000
  O   O4        1.0  0.07000  0.31800  0.45600  1.0000
  O   O5        1.0  0.68200  0.93000  0.45600  1.0000
  O   O6        1.0  0.31800  0.07000  0.54400  1.0000
  O   O7        1.0  0.93000  0.68200  0.54400  1.0000
  O   O8        1.0  0.92900  0.07110  0.75000  1.0000
  O   O9        1.0  0.31800  0.07000  0.95600  1.0000
  O   O10       1.0  0.93000  0.68200  0.95600  1.0000
  Tc  Tc1       1.0  0.35800  0.64200  0.25000  1.0000
  Tc  Tc2       1.0  0.64200  0.35800  0.75000  1.0000
