data_image0
_chemical_formula_structural       F8O12Os4
_chemical_formula_sum              "F8 O12 Os4"
_cell_length_a       5.18547
_cell_length_b       4.75939
_cell_length_c       11.6753
_cell_angle_alpha    90
_cell_angle_beta     98.2802
_cell_angle_gamma    90

_space_group_name_H-M_alt    "P 1"
_space_group_IT_number       1

loop_
  _space_group_symop_operation_xyz
  'x, y, z'

loop_
  _atom_site_type_symbol
  _atom_site_label
  _atom_site_symmetry_multiplicity
  _atom_site_fract_x
  _atom_site_fract_y
  _atom_site_fract_z
  _atom_site_occupancy
  F   F1        1.0  0.14000  0.40300  0.11100  1.0000
  F   F2        1.0  0.05100  0.95000  0.20400  1.0000
  F   F3        1.0  0.94900  0.45000  0.29600  1.0000
  F   F4        1.0  0.86000  0.90300  0.38900  1.0000
  F   F5        1.0  0.14000  0.09670  0.61100  1.0000
  F   F6        1.0  0.05100  0.55000  0.70400  1.0000
  F   F7        1.0  0.94900  0.04980  0.79600  1.0000
  F   F8        1.0  0.86000  0.59700  0.88900  1.0000
  O   O1        1.0  0.75000  0.09720  0.00421  1.0000
  O   O2        1.0  0.65300  0.59500  0.09450  1.0000
  O   O3        1.0  0.58000  0.12500  0.20800  1.0000
  O   O4        1.0  0.42000  0.62500  0.29200  1.0000
  O   O5        1.0  0.34700  0.09520  0.40500  1.0000
  O   O6        1.0  0.25000  0.59700  0.49600  1.0000
  O   O7        1.0  0.75000  0.40300  0.50400  1.0000
  O   O8        1.0  0.65300  0.90500  0.59500  1.0000
  O   O9        1.0  0.58000  0.37500  0.70800  1.0000
  O   O10       1.0  0.42000  0.87500  0.79200  1.0000
  O   O11       1.0  0.34700  0.40500  0.90500  1.0000
  O   O12       1.0  0.25000  0.90300  0.99600  1.0000
  Os  Os1       1.0  0.79900  0.28000  0.13100  1.0000
  Os  Os2       1.0  0.20100  0.78000  0.36900  1.0000
  Os  Os3       1.0  0.79900  0.22000  0.63100  1.0000
  Os  Os4       1.0  0.20100  0.72000  0.86900  1.0000
