data_image0
_chemical_formula_structural       P8Pd8Se8
_chemical_formula_sum              "P8 Pd8 Se8"
_cell_length_a       14.3183
_cell_length_b       5.88031
_cell_length_c       5.92257
_cell_angle_alpha    90
_cell_angle_beta     90
_cell_angle_gamma    90

_space_group_name_H-M_alt    "P 1"
_space_group_IT_number       1

loop_
  _space_group_symop_operation_xyz
  'x, y, z'

loop_
  _atom_site_type_symbol
  _atom_site_label
  _atom_site_symmetry_multiplicity
  _atom_site_fract_x
  _atom_site_fract_y
  _atom_site_fract_z
  _atom_site_occupancy
  P   P1        1.0  0.57600  0.12400  0.21400  1.0000
  P   P2        1.0  0.92400  0.62400  0.21400  1.0000
  P   P3        1.0  0.42400  0.12400  0.28600  1.0000
  P   P4        1.0  0.07620  0.62400  0.28600  1.0000
  P   P5        1.0  0.92400  0.37600  0.71400  1.0000
  P   P6        1.0  0.57600  0.87600  0.71400  1.0000
  P   P7        1.0  0.07620  0.37600  0.78600  1.0000
  P   P8        1.0  0.42400  0.87600  0.78600  1.0000
  Pd  Pd1       1.0  0.10600  0.25900  0.15400  1.0000
  Pd  Pd2       1.0  0.39400  0.75900  0.15400  1.0000
  Pd  Pd3       1.0  0.89400  0.25900  0.34600  1.0000
  Pd  Pd4       1.0  0.60600  0.75900  0.34600  1.0000
  Pd  Pd5       1.0  0.39400  0.24100  0.65400  1.0000
  Pd  Pd6       1.0  0.10600  0.74100  0.65400  1.0000
  Pd  Pd7       1.0  0.60600  0.24100  0.84600  1.0000
  Pd  Pd8       1.0  0.89400  0.74100  0.84600  1.0000
  Se  Se1       1.0  0.34700  0.36500  0.03990  1.0000
  Se  Se2       1.0  0.15300  0.86500  0.03990  1.0000
  Se  Se3       1.0  0.65300  0.36500  0.46000  1.0000
  Se  Se4       1.0  0.84700  0.86500  0.46000  1.0000
  Se  Se5       1.0  0.15300  0.13500  0.54000  1.0000
  Se  Se6       1.0  0.34700  0.63500  0.54000  1.0000
  Se  Se7       1.0  0.84700  0.13500  0.96000  1.0000
  Se  Se8       1.0  0.65300  0.63500  0.96000  1.0000
