data_image0
_chemical_formula_structural       Cu4Pb4S12Y4
_chemical_formula_sum              "Cu4 Pb4 S12 Y4"
_cell_length_a       10.2409
_cell_length_b       3.92215
_cell_length_c       12.9905
_cell_angle_alpha    90
_cell_angle_beta     90
_cell_angle_gamma    90

_space_group_name_H-M_alt    "P 1"
_space_group_IT_number       1

loop_
  _space_group_symop_operation_xyz
  'x, y, z'

loop_
  _atom_site_type_symbol
  _atom_site_label
  _atom_site_symmetry_multiplicity
  _atom_site_fract_x
  _atom_site_fract_y
  _atom_site_fract_z
  _atom_site_occupancy
  Cu  Cu1       1.0  0.24500  0.75000  0.21900  1.0000
  Cu  Cu2       1.0  0.74500  0.75000  0.28100  1.0000
  Cu  Cu3       1.0  0.25500  0.25000  0.71900  1.0000
  Cu  Cu4       1.0  0.75500  0.25000  0.78100  1.0000
  Pb  Pb1       1.0  0.24200  0.25000  0.00361  1.0000
  Pb  Pb2       1.0  0.74200  0.25000  0.49600  1.0000
  Pb  Pb3       1.0  0.25800  0.75000  0.50400  1.0000
  Pb  Pb4       1.0  0.75800  0.75000  0.99600  1.0000
  S   S1        1.0  0.42600  0.75000  0.11100  1.0000
  S   S2        1.0  0.06130  0.75000  0.11300  1.0000
  S   S3        1.0  0.74500  0.25000  0.17400  1.0000
  S   S4        1.0  0.24500  0.25000  0.32600  1.0000
  S   S5        1.0  0.56100  0.75000  0.38700  1.0000
  S   S6        1.0  0.92600  0.75000  0.38900  1.0000
  S   S7        1.0  0.07450  0.25000  0.61100  1.0000
  S   S8        1.0  0.43900  0.25000  0.61300  1.0000
  S   S9        1.0  0.75500  0.75000  0.67400  1.0000
  S   S10       1.0  0.25500  0.75000  0.82600  1.0000
  S   S11       1.0  0.93900  0.25000  0.88700  1.0000
  S   S12       1.0  0.57400  0.25000  0.88900  1.0000
  Y   Y1        1.0  0.49400  0.25000  0.24800  1.0000
  Y   Y2        1.0  0.99400  0.25000  0.25200  1.0000
  Y   Y3        1.0  0.00613  0.75000  0.74800  1.0000
  Y   Y4        1.0  0.50600  0.75000  0.75200  1.0000
