data_image0
_chemical_formula_structural       Co8Mo12N4
_chemical_formula_sum              "Co8 Mo12 N4"
_cell_length_a       6.65454
_cell_length_b       6.65454
_cell_length_c       6.65454
_cell_angle_alpha    90
_cell_angle_beta     90
_cell_angle_gamma    90

_space_group_name_H-M_alt    "P 1"
_space_group_IT_number       1

loop_
  _space_group_symop_operation_xyz
  'x, y, z'

loop_
  _atom_site_type_symbol
  _atom_site_label
  _atom_site_symmetry_multiplicity
  _atom_site_fract_x
  _atom_site_fract_y
  _atom_site_fract_z
  _atom_site_occupancy
  Co  Co1       1.0  0.06830  0.06830  0.06830  1.0000
  Co  Co2       1.0  0.81800  0.31800  0.18200  1.0000
  Co  Co3       1.0  0.18200  0.81800  0.31800  1.0000
  Co  Co4       1.0  0.93200  0.56800  0.43200  1.0000
  Co  Co5       1.0  0.43200  0.93200  0.56800  1.0000
  Co  Co6       1.0  0.68200  0.68200  0.68200  1.0000
  Co  Co7       1.0  0.31800  0.18200  0.81800  1.0000
  Co  Co8       1.0  0.56800  0.43200  0.93200  1.0000
  Mo  Mo1       1.0  0.87500  0.70100  0.04900  1.0000
  Mo  Mo2       1.0  0.20100  0.45100  0.12500  1.0000
  Mo  Mo3       1.0  0.45100  0.12500  0.20100  1.0000
  Mo  Mo4       1.0  0.54900  0.62500  0.29900  1.0000
  Mo  Mo5       1.0  0.79900  0.95100  0.37500  1.0000
  Mo  Mo6       1.0  0.12500  0.20100  0.45100  1.0000
  Mo  Mo7       1.0  0.62500  0.29900  0.54900  1.0000
  Mo  Mo8       1.0  0.29900  0.54900  0.62500  1.0000
  Mo  Mo9       1.0  0.04900  0.87500  0.70100  1.0000
  Mo  Mo10      1.0  0.95100  0.37500  0.79900  1.0000
  Mo  Mo11      1.0  0.70100  0.04900  0.87500  1.0000
  Mo  Mo12      1.0  0.37500  0.79900  0.95100  1.0000
  N   N1        1.0  0.62500  0.87500  0.12500  1.0000
  N   N2        1.0  0.37500  0.37500  0.37500  1.0000
  N   N3        1.0  0.87500  0.12500  0.62500  1.0000
  N   N4        1.0  0.12500  0.62500  0.87500  1.0000
