data_image0
_chemical_formula_structural       Ag4Cs4P4Se12
_chemical_formula_sum              "Ag4 Cs4 P4 Se12"
_cell_length_a       6.95551
_cell_length_b       12.7179
_cell_length_c       8.78984
_cell_angle_alpha    90
_cell_angle_beta     96.2909
_cell_angle_gamma    90

_space_group_name_H-M_alt    "P 1"
_space_group_IT_number       1

loop_
  _space_group_symop_operation_xyz
  'x, y, z'

loop_
  _atom_site_type_symbol
  _atom_site_label
  _atom_site_symmetry_multiplicity
  _atom_site_fract_x
  _atom_site_fract_y
  _atom_site_fract_z
  _atom_site_occupancy
  Ag  Ag1       1.0  0.45400  0.94200  0.13800  1.0000
  Ag  Ag2       1.0  0.04640  0.44200  0.36200  1.0000
  Ag  Ag3       1.0  0.95400  0.55800  0.63800  1.0000
  Ag  Ag4       1.0  0.54600  0.05770  0.86200  1.0000
  Cs  Cs1       1.0  0.74800  0.67000  0.01380  1.0000
  Cs  Cs2       1.0  0.75200  0.17000  0.48600  1.0000
  Cs  Cs3       1.0  0.24800  0.83000  0.51400  1.0000
  Cs  Cs4       1.0  0.25200  0.33000  0.98600  1.0000
  P   P1        1.0  0.96100  0.04030  0.11200  1.0000
  P   P2        1.0  0.53900  0.54000  0.38800  1.0000
  P   P3        1.0  0.46100  0.46000  0.61200  1.0000
  P   P4        1.0  0.03930  0.96000  0.88800  1.0000
  Se  Se1       1.0  0.78200  0.17900  0.04000  1.0000
  Se  Se2       1.0  0.81500  0.91900  0.24300  1.0000
  Se  Se3       1.0  0.23400  0.08940  0.24400  1.0000
  Se  Se4       1.0  0.26600  0.58900  0.25600  1.0000
  Se  Se5       1.0  0.68500  0.41900  0.25700  1.0000
  Se  Se6       1.0  0.71800  0.67900  0.46000  1.0000
  Se  Se7       1.0  0.28200  0.32100  0.54000  1.0000
  Se  Se8       1.0  0.31500  0.58100  0.74300  1.0000
  Se  Se9       1.0  0.73400  0.41100  0.74400  1.0000
  Se  Se10      1.0  0.76600  0.91100  0.75600  1.0000
  Se  Se11      1.0  0.18500  0.08100  0.75700  1.0000
  Se  Se12      1.0  0.21800  0.82100  0.96000  1.0000
