data_image0
_chemical_formula_structural       F16Mn4Rb4
_chemical_formula_sum              "F16 Mn4 Rb4"
_cell_length_a       7.67053
_cell_length_b       7.6082
_cell_length_c       5.81631
_cell_angle_alpha    90
_cell_angle_beta     90.602
_cell_angle_gamma    90

_space_group_name_H-M_alt    "P 1"
_space_group_IT_number       1

loop_
  _space_group_symop_operation_xyz
  'x, y, z'

loop_
  _atom_site_type_symbol
  _atom_site_label
  _atom_site_symmetry_multiplicity
  _atom_site_fract_x
  _atom_site_fract_y
  _atom_site_fract_z
  _atom_site_occupancy
  F   F1        1.0  0.23800  0.98300  0.08610  1.0000
  F   F2        1.0  0.73800  0.51700  0.08610  1.0000
  F   F3        1.0  0.00012  0.26300  0.10600  1.0000
  F   F4        1.0  0.50000  0.23700  0.10600  1.0000
  F   F5        1.0  0.04900  0.56900  0.29500  1.0000
  F   F6        1.0  0.54900  0.93100  0.29500  1.0000
  F   F7        1.0  0.44500  0.56000  0.29500  1.0000
  F   F8        1.0  0.94500  0.94000  0.29500  1.0000
  F   F9        1.0  0.55500  0.44000  0.70500  1.0000
  F   F10       1.0  0.05510  0.06040  0.70500  1.0000
  F   F11       1.0  0.45100  0.06940  0.70500  1.0000
  F   F12       1.0  0.95100  0.43100  0.70500  1.0000
  F   F13       1.0  0.00000  0.73700  0.89400  1.0000
  F   F14       1.0  0.50000  0.76300  0.89400  1.0000
  F   F15       1.0  0.26200  0.48300  0.91400  1.0000
  F   F16       1.0  0.76200  0.01680  0.91400  1.0000
  Mn  Mn1       1.0  0.00000  0.00000  0.00000  1.0000
  Mn  Mn2       1.0  0.50000  0.00000  0.00000  1.0000
  Mn  Mn3       1.0  0.00000  0.50000  0.00000  1.0000
  Mn  Mn4       1.0  0.50000  0.50000  0.00000  1.0000
  Rb  Rb1       1.0  0.74800  0.20700  0.47300  1.0000
  Rb  Rb2       1.0  0.24800  0.29300  0.47300  1.0000
  Rb  Rb3       1.0  0.25200  0.79300  0.52700  1.0000
  Rb  Rb4       1.0  0.75200  0.70700  0.52700  1.0000
