data_image0
_chemical_formula_structural       C10I2O10Re2
_chemical_formula_sum              "C10 I2 O10 Re2"
_cell_length_a       6.56785
_cell_length_b       6.56785
_cell_length_c       10.7003
_cell_angle_alpha    90
_cell_angle_beta     90
_cell_angle_gamma    69.9684

_space_group_name_H-M_alt    "P 1"
_space_group_IT_number       1

loop_
  _space_group_symop_operation_xyz
  'x, y, z'

loop_
  _atom_site_type_symbol
  _atom_site_label
  _atom_site_symmetry_multiplicity
  _atom_site_fract_x
  _atom_site_fract_y
  _atom_site_fract_z
  _atom_site_occupancy
  C   C1        1.0  0.67800  0.05820  0.11900  1.0000
  C   C2        1.0  0.05820  0.67800  0.11900  1.0000
  C   C3        1.0  0.67900  0.67900  0.25000  1.0000
  C   C4        1.0  0.67800  0.05820  0.38100  1.0000
  C   C5        1.0  0.05820  0.67800  0.38100  1.0000
  C   C6        1.0  0.94200  0.32200  0.61900  1.0000
  C   C7        1.0  0.32200  0.94200  0.61900  1.0000
  C   C8        1.0  0.32100  0.32100  0.75000  1.0000
  C   C9        1.0  0.94200  0.32200  0.88100  1.0000
  C   C10       1.0  0.32200  0.94200  0.88100  1.0000
  I   I1        1.0  0.12200  0.12200  0.25000  1.0000
  I   I2        1.0  0.87800  0.87800  0.75000  1.0000
  O   O1        1.0  0.57500  0.17700  0.04570  1.0000
  O   O2        1.0  0.17700  0.57500  0.04570  1.0000
  O   O3        1.0  0.57100  0.57100  0.25000  1.0000
  O   O4        1.0  0.57500  0.17700  0.45400  1.0000
  O   O5        1.0  0.17700  0.57500  0.45400  1.0000
  O   O6        1.0  0.82300  0.42500  0.54600  1.0000
  O   O7        1.0  0.42500  0.82300  0.54600  1.0000
  O   O8        1.0  0.42900  0.42900  0.75000  1.0000
  O   O9        1.0  0.82300  0.42500  0.95400  1.0000
  O   O10       1.0  0.42500  0.82300  0.95400  1.0000
  Re  Re1       1.0  0.85900  0.85900  0.25000  1.0000
  Re  Re2       1.0  0.14100  0.14100  0.75000  1.0000
