data_image0
_chemical_formula_structural       As8Ge8Se8
_chemical_formula_sum              "As8 Ge8 Se8"
_cell_length_a       5.15606
_cell_length_b       10.3689
_cell_length_c       12.4126
_cell_angle_alpha    90
_cell_angle_beta     90
_cell_angle_gamma    90

_space_group_name_H-M_alt    "P 1"
_space_group_IT_number       1

loop_
  _space_group_symop_operation_xyz
  'x, y, z'

loop_
  _atom_site_type_symbol
  _atom_site_label
  _atom_site_symmetry_multiplicity
  _atom_site_fract_x
  _atom_site_fract_y
  _atom_site_fract_z
  _atom_site_occupancy
  As  As1       1.0  0.07980  0.41500  0.13400  1.0000
  As  As2       1.0  0.42000  0.58500  0.13400  1.0000
  As  As3       1.0  0.07980  0.08530  0.36600  1.0000
  As  As4       1.0  0.42000  0.91500  0.36600  1.0000
  As  As5       1.0  0.58000  0.08530  0.63400  1.0000
  As  As6       1.0  0.92000  0.91500  0.63400  1.0000
  As  As7       1.0  0.58000  0.41500  0.86600  1.0000
  As  As8       1.0  0.92000  0.58500  0.86600  1.0000
  Ge  Ge1       1.0  0.75000  0.00000  0.23500  1.0000
  Ge  Ge2       1.0  0.29700  0.25000  0.25000  1.0000
  Ge  Ge3       1.0  0.20300  0.75000  0.25000  1.0000
  Ge  Ge4       1.0  0.75000  0.50000  0.26500  1.0000
  Ge  Ge5       1.0  0.25000  0.50000  0.73500  1.0000
  Ge  Ge6       1.0  0.79700  0.25000  0.75000  1.0000
  Ge  Ge7       1.0  0.70300  0.75000  0.75000  1.0000
  Ge  Ge8       1.0  0.25000  0.00000  0.76500  1.0000
  Se  Se1       1.0  0.57400  0.15700  0.11400  1.0000
  Se  Se2       1.0  0.92600  0.84300  0.11400  1.0000
  Se  Se3       1.0  0.57400  0.34300  0.38600  1.0000
  Se  Se4       1.0  0.92600  0.65700  0.38600  1.0000
  Se  Se5       1.0  0.07370  0.34300  0.61400  1.0000
  Se  Se6       1.0  0.42600  0.65700  0.61400  1.0000
  Se  Se7       1.0  0.07370  0.15700  0.88600  1.0000
  Se  Se8       1.0  0.42600  0.84300  0.88600  1.0000
