data_image0
_chemical_formula_structural       Eu2Mo4O16Tl2
_chemical_formula_sum              "Eu2 Mo4 O16 Tl2"
_cell_length_a       5.75553
_cell_length_b       5.75553
_cell_length_c       9.87254
_cell_angle_alpha    90
_cell_angle_beta     90
_cell_angle_gamma    90

_space_group_name_H-M_alt    "P 1"
_space_group_IT_number       1

loop_
  _space_group_symop_operation_xyz
  'x, y, z'

loop_
  _atom_site_type_symbol
  _atom_site_label
  _atom_site_symmetry_multiplicity
  _atom_site_fract_x
  _atom_site_fract_y
  _atom_site_fract_z
  _atom_site_occupancy
  Eu  Eu1       1.0  0.75000  0.75000  0.25000  1.0000
  Eu  Eu2       1.0  0.25000  0.25000  0.75000  1.0000
  Mo  Mo1       1.0  0.75000  0.25000  0.00000  1.0000
  Mo  Mo2       1.0  0.25000  0.75000  0.00000  1.0000
  Mo  Mo3       1.0  0.75000  0.25000  0.50000  1.0000
  Mo  Mo4       1.0  0.25000  0.75000  0.50000  1.0000
  O   O1        1.0  0.58300  0.07340  0.11500  1.0000
  O   O2        1.0  0.91700  0.42700  0.11500  1.0000
  O   O3        1.0  0.42700  0.58300  0.11500  1.0000
  O   O4        1.0  0.07340  0.91700  0.11500  1.0000
  O   O5        1.0  0.91700  0.07340  0.38500  1.0000
  O   O6        1.0  0.58300  0.42700  0.38500  1.0000
  O   O7        1.0  0.07340  0.58300  0.38500  1.0000
  O   O8        1.0  0.42700  0.91700  0.38500  1.0000
  O   O9        1.0  0.57300  0.08310  0.61500  1.0000
  O   O10       1.0  0.92700  0.41700  0.61500  1.0000
  O   O11       1.0  0.41700  0.57300  0.61500  1.0000
  O   O12       1.0  0.08310  0.92700  0.61500  1.0000
  O   O13       1.0  0.92700  0.08310  0.88500  1.0000
  O   O14       1.0  0.57300  0.41700  0.88500  1.0000
  O   O15       1.0  0.08310  0.57300  0.88500  1.0000
  O   O16       1.0  0.41700  0.92700  0.88500  1.0000
  Tl  Tl1       1.0  0.25000  0.25000  0.25000  1.0000
  Tl  Tl2       1.0  0.75000  0.75000  0.75000  1.0000
