data_image0
_chemical_formula_structural       Cl8F12P2Sb2
_chemical_formula_sum              "Cl8 F12 P2 Sb2"
_cell_length_a       8.17643
_cell_length_b       8.17643
_cell_length_c       6.37763
_cell_angle_alpha    90
_cell_angle_beta     90
_cell_angle_gamma    90

_space_group_name_H-M_alt    "P 1"
_space_group_IT_number       1

loop_
  _space_group_symop_operation_xyz
  'x, y, z'

loop_
  _atom_site_type_symbol
  _atom_site_label
  _atom_site_symmetry_multiplicity
  _atom_site_fract_x
  _atom_site_fract_y
  _atom_site_fract_z
  _atom_site_occupancy
  Cl  Cl1       1.0  0.80500  0.06450  0.32300  1.0000
  Cl  Cl2       1.0  0.69500  0.43600  0.32300  1.0000
  Cl  Cl3       1.0  0.06450  0.69500  0.32300  1.0000
  Cl  Cl4       1.0  0.43600  0.80500  0.32300  1.0000
  Cl  Cl5       1.0  0.56400  0.19500  0.67700  1.0000
  Cl  Cl6       1.0  0.93600  0.30500  0.67700  1.0000
  Cl  Cl7       1.0  0.30500  0.56400  0.67700  1.0000
  Cl  Cl8       1.0  0.19500  0.93600  0.67700  1.0000
  F   F1        1.0  0.16300  0.03260  0.14200  1.0000
  F   F2        1.0  0.46700  0.16300  0.14200  1.0000
  F   F3        1.0  0.03260  0.33700  0.14200  1.0000
  F   F4        1.0  0.33700  0.46700  0.14200  1.0000
  F   F5        1.0  0.75000  0.75000  0.15400  1.0000
  F   F6        1.0  0.25000  0.25000  0.44400  1.0000
  F   F7        1.0  0.75000  0.75000  0.55600  1.0000
  F   F8        1.0  0.25000  0.25000  0.84600  1.0000
  F   F9        1.0  0.66300  0.53300  0.85800  1.0000
  F   F10       1.0  0.96700  0.66300  0.85800  1.0000
  F   F11       1.0  0.53300  0.83700  0.85800  1.0000
  F   F12       1.0  0.83700  0.96700  0.85800  1.0000
  P   P1        1.0  0.75000  0.25000  0.50000  1.0000
  P   P2        1.0  0.25000  0.75000  0.50000  1.0000
  Sb  Sb1       1.0  0.25000  0.25000  0.14600  1.0000
  Sb  Sb2       1.0  0.75000  0.75000  0.85400  1.0000
