data_image0
_chemical_formula_structural       I16Sm8
_chemical_formula_sum              "I16 Sm8"
_cell_length_a       14.0775
_cell_length_b       8.23355
_cell_length_c       7.37572
_cell_angle_alpha    90
_cell_angle_beta     90
_cell_angle_gamma    90

_space_group_name_H-M_alt    "P 1"
_space_group_IT_number       1

loop_
  _space_group_symop_operation_xyz
  'x, y, z'

loop_
  _atom_site_type_symbol
  _atom_site_label
  _atom_site_symmetry_multiplicity
  _atom_site_fract_x
  _atom_site_fract_y
  _atom_site_fract_z
  _atom_site_occupancy
  I   I1        1.0  0.95400  0.29300  0.01610  1.0000
  I   I2        1.0  0.54600  0.79300  0.01610  1.0000
  I   I3        1.0  0.20400  0.11500  0.20100  1.0000
  I   I4        1.0  0.29600  0.61500  0.20100  1.0000
  I   I5        1.0  0.70400  0.11500  0.29900  1.0000
  I   I6        1.0  0.79600  0.61500  0.29900  1.0000
  I   I7        1.0  0.45400  0.29300  0.48400  1.0000
  I   I8        1.0  0.04630  0.79300  0.48400  1.0000
  I   I9        1.0  0.95400  0.20700  0.51600  1.0000
  I   I10       1.0  0.54600  0.70700  0.51600  1.0000
  I   I11       1.0  0.20400  0.38500  0.70100  1.0000
  I   I12       1.0  0.29600  0.88500  0.70100  1.0000
  I   I13       1.0  0.70400  0.38500  0.79900  1.0000
  I   I14       1.0  0.79600  0.88500  0.79900  1.0000
  I   I15       1.0  0.45400  0.20700  0.98400  1.0000
  I   I16       1.0  0.04630  0.70700  0.98400  1.0000
  Sm  Sm1       1.0  0.59500  0.45000  0.17400  1.0000
  Sm  Sm2       1.0  0.90500  0.95000  0.17400  1.0000
  Sm  Sm3       1.0  0.09490  0.45000  0.32600  1.0000
  Sm  Sm4       1.0  0.40500  0.95000  0.32600  1.0000
  Sm  Sm5       1.0  0.59500  0.04990  0.67400  1.0000
  Sm  Sm6       1.0  0.90500  0.55000  0.67400  1.0000
  Sm  Sm7       1.0  0.09490  0.04990  0.82600  1.0000
  Sm  Sm8       1.0  0.40500  0.55000  0.82600  1.0000
