data_image0
_chemical_formula_structural       F16K4Sc4
_chemical_formula_sum              "F16 K4 Sc4"
_cell_length_a       4.02963
_cell_length_b       7.6623
_cell_length_c       13.0032
_cell_angle_alpha    107.601
_cell_angle_beta     90
_cell_angle_gamma    105.245

_space_group_name_H-M_alt    "P 1"
_space_group_IT_number       1

loop_
  _space_group_symop_operation_xyz
  'x, y, z'

loop_
  _atom_site_type_symbol
  _atom_site_label
  _atom_site_symmetry_multiplicity
  _atom_site_fract_x
  _atom_site_fract_y
  _atom_site_fract_z
  _atom_site_occupancy
  F   F1        1.0  0.00000  0.00000  0.00000  1.0000
  F   F2        1.0  0.83300  0.66500  0.07180  1.0000
  F   F3        1.0  0.47000  0.94000  0.14500  1.0000
  F   F4        1.0  0.11100  0.22100  0.22100  1.0000
  F   F5        1.0  0.75600  0.51100  0.26100  1.0000
  F   F6        1.0  0.96000  0.91900  0.29100  1.0000
  F   F7        1.0  0.37800  0.75600  0.38100  1.0000
  F   F8        1.0  0.18500  0.36900  0.49700  1.0000
  F   F9        1.0  0.00000  0.00000  0.50000  1.0000
  F   F10       1.0  0.81500  0.63100  0.50300  1.0000
  F   F11       1.0  0.62200  0.24400  0.61900  1.0000
  F   F12       1.0  0.04040  0.08080  0.70900  1.0000
  F   F13       1.0  0.24400  0.48900  0.73900  1.0000
  F   F14       1.0  0.88900  0.77900  0.77900  1.0000
  F   F15       1.0  0.53000  0.05950  0.85500  1.0000
  F   F16       1.0  0.16700  0.33500  0.92800  1.0000
  K   K1        1.0  0.24400  0.48800  0.13300  1.0000
  K   K2        1.0  0.62500  0.24900  0.36300  1.0000
  K   K3        1.0  0.37500  0.75100  0.63700  1.0000
  K   K4        1.0  0.75600  0.51200  0.86700  1.0000
  Sc  Sc1       1.0  0.97300  0.94600  0.14100  1.0000
  Sc  Sc2       1.0  0.87100  0.74200  0.38600  1.0000
  Sc  Sc3       1.0  0.12900  0.25800  0.61400  1.0000
  Sc  Sc4       1.0  0.02700  0.05390  0.85900  1.0000
