data_image0
_chemical_formula_structural       O8P2Tb2
_chemical_formula_sum              "O8 P2 Tb2"
_cell_length_a       5.7397
_cell_length_b       5.7397
_cell_length_c       5.7397
_cell_angle_alpha    106.169
_cell_angle_beta     116.299
_cell_angle_gamma    106.169

_space_group_name_H-M_alt    "P 1"
_space_group_IT_number       1

loop_
  _space_group_symop_operation_xyz
  'x, y, z'

loop_
  _atom_site_type_symbol
  _atom_site_label
  _atom_site_symmetry_multiplicity
  _atom_site_fract_x
  _atom_site_fract_y
  _atom_site_fract_z
  _atom_site_occupancy
  O   O1        1.0  0.29000  0.57400  0.21600  1.0000
  O   O2        1.0  0.64200  0.92600  0.21600  1.0000
  O   O3        1.0  0.21600  0.07420  0.29000  1.0000
  O   O4        1.0  0.78400  0.57400  0.35800  1.0000
  O   O5        1.0  0.21600  0.42600  0.64200  1.0000
  O   O6        1.0  0.78400  0.92600  0.71000  1.0000
  O   O7        1.0  0.35800  0.07420  0.78400  1.0000
  O   O8        1.0  0.71000  0.42600  0.78400  1.0000
  P   P1        1.0  0.62500  0.75000  0.37500  1.0000
  P   P2        1.0  0.37500  0.25000  0.62500  1.0000
  Tb  Tb1       1.0  0.87500  0.25000  0.12500  1.0000
  Tb  Tb2       1.0  0.12500  0.75000  0.87500  1.0000
