data_image0
_chemical_formula_structural       Cl8O16
_chemical_formula_sum              "Cl8 O16"
_cell_length_a       10.4495
_cell_length_b       6.4531
_cell_length_c       5.24266
_cell_angle_alpha    90
_cell_angle_beta     90
_cell_angle_gamma    90

_space_group_name_H-M_alt    "P 1"
_space_group_IT_number       1

loop_
  _space_group_symop_operation_xyz
  'x, y, z'

loop_
  _atom_site_type_symbol
  _atom_site_label
  _atom_site_symmetry_multiplicity
  _atom_site_fract_x
  _atom_site_fract_y
  _atom_site_fract_z
  _atom_site_occupancy
  Cl  Cl1       1.0  0.88700  0.49500  0.18400  1.0000
  Cl  Cl2       1.0  0.61300  0.99500  0.18400  1.0000
  Cl  Cl3       1.0  0.38700  0.49500  0.31600  1.0000
  Cl  Cl4       1.0  0.11300  0.99500  0.31600  1.0000
  Cl  Cl5       1.0  0.88700  0.00549  0.68400  1.0000
  Cl  Cl6       1.0  0.61300  0.50500  0.68400  1.0000
  Cl  Cl7       1.0  0.38700  0.00549  0.81600  1.0000
  Cl  Cl8       1.0  0.11300  0.50500  0.81600  1.0000
  O   O1        1.0  0.78600  0.35000  0.09830  1.0000
  O   O2        1.0  0.71400  0.85000  0.09830  1.0000
  O   O3        1.0  0.01690  0.39900  0.22300  1.0000
  O   O4        1.0  0.48300  0.89900  0.22300  1.0000
  O   O5        1.0  0.51700  0.39900  0.27700  1.0000
  O   O6        1.0  0.98300  0.89900  0.27700  1.0000
  O   O7        1.0  0.28600  0.35000  0.40200  1.0000
  O   O8        1.0  0.21400  0.85000  0.40200  1.0000
  O   O9        1.0  0.78600  0.15000  0.59800  1.0000
  O   O10       1.0  0.71400  0.65000  0.59800  1.0000
  O   O11       1.0  0.01690  0.10100  0.72300  1.0000
  O   O12       1.0  0.48300  0.60100  0.72300  1.0000
  O   O13       1.0  0.51700  0.10100  0.77700  1.0000
  O   O14       1.0  0.98300  0.60100  0.77700  1.0000
  O   O15       1.0  0.28600  0.15000  0.90200  1.0000
  O   O16       1.0  0.21400  0.65000  0.90200  1.0000
