data_image0
_chemical_formula_structural       Co10Gd12
_chemical_formula_sum              "Co10 Gd12"
_cell_length_a       11.3571
_cell_length_b       11.3612
_cell_length_c       4.15535
_cell_angle_alpha    90
_cell_angle_beta     90
_cell_angle_gamma    120.012

_space_group_name_H-M_alt    "P 1"
_space_group_IT_number       1

loop_
  _space_group_symop_operation_xyz
  'x, y, z'

loop_
  _atom_site_type_symbol
  _atom_site_label
  _atom_site_symmetry_multiplicity
  _atom_site_fract_x
  _atom_site_fract_y
  _atom_site_fract_z
  _atom_site_occupancy
  Co  Co1       1.0  0.00000  0.00000  0.00000  1.0000
  Co  Co2       1.0  0.44300  0.16100  0.25000  1.0000
  Co  Co3       1.0  0.83900  0.28200  0.25000  1.0000
  Co  Co4       1.0  0.66700  0.33300  0.25000  1.0000
  Co  Co5       1.0  0.71800  0.55700  0.25000  1.0000
  Co  Co6       1.0  0.00000  0.00000  0.50000  1.0000
  Co  Co7       1.0  0.28200  0.44300  0.75000  1.0000
  Co  Co8       1.0  0.33300  0.66700  0.75000  1.0000
  Co  Co9       1.0  0.16100  0.71800  0.75000  1.0000
  Co  Co10      1.0  0.55700  0.83900  0.75000  1.0000
  Gd  Gd1       1.0  0.22500  0.24900  0.25000  1.0000
  Gd  Gd2       1.0  0.13600  0.51600  0.25000  1.0000
  Gd  Gd3       1.0  0.48400  0.62000  0.25000  1.0000
  Gd  Gd4       1.0  0.02410  0.77500  0.25000  1.0000
  Gd  Gd5       1.0  0.38000  0.86400  0.25000  1.0000
  Gd  Gd6       1.0  0.75000  0.97600  0.25000  1.0000
  Gd  Gd7       1.0  0.25000  0.02410  0.75000  1.0000
  Gd  Gd8       1.0  0.62000  0.13600  0.75000  1.0000
  Gd  Gd9       1.0  0.97600  0.22500  0.75000  1.0000
  Gd  Gd10      1.0  0.51600  0.38000  0.75000  1.0000
  Gd  Gd11      1.0  0.86400  0.48400  0.75000  1.0000
  Gd  Gd12      1.0  0.77500  0.75100  0.75000  1.0000
