data_image0
_chemical_formula_structural       Ag6Rb3S12Sb3
_chemical_formula_sum              "Ag6 Rb3 S12 Sb3"
_cell_length_a       6.70866
_cell_length_b       6.70866
_cell_length_c       16.9067
_cell_angle_alpha    90
_cell_angle_beta     90
_cell_angle_gamma    120

_space_group_name_H-M_alt    "P 1"
_space_group_IT_number       1

loop_
  _space_group_symop_operation_xyz
  'x, y, z'

loop_
  _atom_site_type_symbol
  _atom_site_label
  _atom_site_symmetry_multiplicity
  _atom_site_fract_x
  _atom_site_fract_y
  _atom_site_fract_z
  _atom_site_occupancy
  Ag  Ag1       1.0  0.90100  0.61400  0.07020  1.0000
  Ag  Ag2       1.0  0.28800  0.38600  0.26300  1.0000
  Ag  Ag3       1.0  0.71200  0.09870  0.40400  1.0000
  Ag  Ag4       1.0  0.09870  0.71200  0.59600  1.0000
  Ag  Ag5       1.0  0.38600  0.28800  0.73700  1.0000
  Ag  Ag6       1.0  0.61400  0.90100  0.93000  1.0000
  Rb  Rb1       1.0  0.55600  0.00000  0.16700  1.0000
  Rb  Rb2       1.0  0.44400  0.44400  0.50000  1.0000
  Rb  Rb3       1.0  0.00000  0.55600  0.83300  1.0000
  S   S1        1.0  0.90600  0.24100  0.00638  1.0000
  S   S2        1.0  0.49600  0.47200  0.11500  1.0000
  S   S3        1.0  0.02410  0.52800  0.21900  1.0000
  S   S4        1.0  0.66500  0.75900  0.32700  1.0000
  S   S5        1.0  0.33500  0.09430  0.34000  1.0000
  S   S6        1.0  0.97600  0.50400  0.44800  1.0000
  S   S7        1.0  0.50400  0.97600  0.55200  1.0000
  S   S8        1.0  0.09430  0.33500  0.66000  1.0000
  S   S9        1.0  0.75900  0.66500  0.67300  1.0000
  S   S10       1.0  0.52800  0.02400  0.78100  1.0000
  S   S11       1.0  0.47200  0.49600  0.88500  1.0000
  S   S12       1.0  0.24100  0.90600  0.99400  1.0000
  Sb  Sb1       1.0  0.27900  0.27900  0.00000  1.0000
  Sb  Sb2       1.0  0.00000  0.72100  0.33300  1.0000
  Sb  Sb3       1.0  0.72100  0.00000  0.66700  1.0000
