data_image0
_chemical_formula_structural       Ca8Ge4In8Sr4
_chemical_formula_sum              "Ca8 Ge4 In8 Sr4"
_cell_length_a       11.8123
_cell_length_b       13.6252
_cell_length_c       4.57629
_cell_angle_alpha    90
_cell_angle_beta     90
_cell_angle_gamma    90

_space_group_name_H-M_alt    "P 1"
_space_group_IT_number       1

loop_
  _space_group_symop_operation_xyz
  'x, y, z'

loop_
  _atom_site_type_symbol
  _atom_site_label
  _atom_site_symmetry_multiplicity
  _atom_site_fract_x
  _atom_site_fract_y
  _atom_site_fract_z
  _atom_site_occupancy
  Ca  Ca1       1.0  0.62100  0.40200  0.25000  1.0000
  Ca  Ca2       1.0  0.87900  0.59800  0.25000  1.0000
  Ca  Ca3       1.0  0.62100  0.09830  0.25000  1.0000
  Ca  Ca4       1.0  0.87900  0.90200  0.25000  1.0000
  Ca  Ca5       1.0  0.12100  0.09830  0.75000  1.0000
  Ca  Ca6       1.0  0.37900  0.90200  0.75000  1.0000
  Ca  Ca7       1.0  0.12100  0.40200  0.75000  1.0000
  Ca  Ca8       1.0  0.37900  0.59800  0.75000  1.0000
  Ge  Ge1       1.0  0.18900  0.25000  0.25000  1.0000
  Ge  Ge2       1.0  0.31100  0.75000  0.25000  1.0000
  Ge  Ge3       1.0  0.68900  0.25000  0.75000  1.0000
  Ge  Ge4       1.0  0.81100  0.75000  0.75000  1.0000
  In  In1       1.0  0.33300  0.08100  0.25000  1.0000
  In  In2       1.0  0.16700  0.91900  0.25000  1.0000
  In  In3       1.0  0.33300  0.41900  0.25000  1.0000
  In  In4       1.0  0.16700  0.58100  0.25000  1.0000
  In  In5       1.0  0.83300  0.41900  0.75000  1.0000
  In  In6       1.0  0.66700  0.58100  0.75000  1.0000
  In  In7       1.0  0.83300  0.08100  0.75000  1.0000
  In  In8       1.0  0.66700  0.91900  0.75000  1.0000
  Sr  Sr1       1.0  0.90800  0.25000  0.25000  1.0000
  Sr  Sr2       1.0  0.59200  0.75000  0.25000  1.0000
  Sr  Sr3       1.0  0.40800  0.25000  0.75000  1.0000
  Sr  Sr4       1.0  0.09250  0.75000  0.75000  1.0000
