data_image0
_chemical_formula_structural       Ce7O16Zr
_chemical_formula_sum              "Ce7 O16 Zr1"
_cell_length_a       7.92068
_cell_length_b       7.92068
_cell_length_c       5.73074
_cell_angle_alpha    90
_cell_angle_beta     90
_cell_angle_gamma    90

_space_group_name_H-M_alt    "P 1"
_space_group_IT_number       1

loop_
  _space_group_symop_operation_xyz
  'x, y, z'

loop_
  _atom_site_type_symbol
  _atom_site_label
  _atom_site_symmetry_multiplicity
  _atom_site_fract_x
  _atom_site_fract_y
  _atom_site_fract_z
  _atom_site_occupancy
  Ce  Ce1       1.0  0.50000  0.00000  0.00000  1.0000
  Ce  Ce2       1.0  0.00000  0.50000  0.00000  1.0000
  Ce  Ce3       1.0  0.50000  0.50000  0.00000  1.0000
  Ce  Ce4       1.0  0.25200  0.25200  0.50000  1.0000
  Ce  Ce5       1.0  0.74800  0.25200  0.50000  1.0000
  Ce  Ce6       1.0  0.25200  0.74800  0.50000  1.0000
  Ce  Ce7       1.0  0.74800  0.74800  0.50000  1.0000
  O   O1        1.0  0.22500  0.00000  0.23100  1.0000
  O   O2        1.0  0.77500  0.00000  0.23100  1.0000
  O   O3        1.0  0.00000  0.22500  0.23100  1.0000
  O   O4        1.0  0.00000  0.77500  0.23100  1.0000
  O   O5        1.0  0.50000  0.24300  0.25300  1.0000
  O   O6        1.0  0.24300  0.50000  0.25300  1.0000
  O   O7        1.0  0.75700  0.50000  0.25300  1.0000
  O   O8        1.0  0.50000  0.75700  0.25300  1.0000
  O   O9        1.0  0.50000  0.24300  0.74700  1.0000
  O   O10       1.0  0.24300  0.50000  0.74700  1.0000
  O   O11       1.0  0.75700  0.50000  0.74700  1.0000
  O   O12       1.0  0.50000  0.75700  0.74700  1.0000
  O   O13       1.0  0.22500  0.00000  0.76900  1.0000
  O   O14       1.0  0.77500  0.00000  0.76900  1.0000
  O   O15       1.0  0.00000  0.22500  0.76900  1.0000
  O   O16       1.0  0.00000  0.77500  0.76900  1.0000
  Zr  Zr1       1.0  0.00000  0.00000  0.00000  1.0000
