data_image0
_chemical_formula_structural       B6Rb6S12
_chemical_formula_sum              "B6 Rb6 S12"
_cell_length_a       9.10246
_cell_length_b       9.76588
_cell_length_c       9.76588
_cell_angle_alpha    110.806
_cell_angle_beta     108.101
_cell_angle_gamma    108.101

_space_group_name_H-M_alt    "P 1"
_space_group_IT_number       1

loop_
  _space_group_symop_operation_xyz
  'x, y, z'

loop_
  _atom_site_type_symbol
  _atom_site_label
  _atom_site_symmetry_multiplicity
  _atom_site_fract_x
  _atom_site_fract_y
  _atom_site_fract_z
  _atom_site_occupancy
  B   B1        1.0  0.75000  0.88800  0.11200  1.0000
  B   B2        1.0  0.86200  0.22400  0.11200  1.0000
  B   B3        1.0  0.36200  0.11200  0.22400  1.0000
  B   B4        1.0  0.63800  0.88800  0.77600  1.0000
  B   B5        1.0  0.13800  0.77600  0.88800  1.0000
  B   B6        1.0  0.25000  0.11200  0.88800  1.0000
  Rb  Rb1       1.0  0.30200  0.55200  0.10500  1.0000
  Rb  Rb2       1.0  0.19800  0.89500  0.44800  1.0000
  Rb  Rb3       1.0  0.75000  0.55200  0.44800  1.0000
  Rb  Rb4       1.0  0.80200  0.10500  0.55200  1.0000
  Rb  Rb5       1.0  0.25000  0.44800  0.55200  1.0000
  Rb  Rb6       1.0  0.69800  0.44800  0.89500  1.0000
  S   S1        1.0  0.36600  0.23300  0.11600  1.0000
  S   S2        1.0  0.25000  0.88400  0.11600  1.0000
  S   S3        1.0  0.75000  0.77700  0.22300  1.0000
  S   S4        1.0  0.97300  0.44600  0.22300  1.0000
  S   S5        1.0  0.86600  0.11600  0.23300  1.0000
  S   S6        1.0  0.47300  0.22300  0.44600  1.0000
  S   S7        1.0  0.52700  0.77700  0.55400  1.0000
  S   S8        1.0  0.13400  0.88400  0.76700  1.0000
  S   S9        1.0  0.02720  0.55400  0.77700  1.0000
  S   S10       1.0  0.25000  0.22300  0.77700  1.0000
  S   S11       1.0  0.63400  0.76700  0.88400  1.0000
  S   S12       1.0  0.75000  0.11600  0.88400  1.0000
