data_image0
_chemical_formula_structural       C2Cl16Si6
_chemical_formula_sum              "C2 Cl16 Si6"
_cell_length_a       9.40877
_cell_length_b       9.55857
_cell_length_c       8.9741
_cell_angle_alpha    115.984
_cell_angle_beta     102.035
_cell_angle_gamma    96.7897

_space_group_name_H-M_alt    "P 1"
_space_group_IT_number       1

loop_
  _space_group_symop_operation_xyz
  'x, y, z'

loop_
  _atom_site_type_symbol
  _atom_site_label
  _atom_site_symmetry_multiplicity
  _atom_site_fract_x
  _atom_site_fract_y
  _atom_site_fract_z
  _atom_site_occupancy
  C   C1        1.0  0.63700  0.62000  0.08780  1.0000
  C   C2        1.0  0.36300  0.38000  0.91200  1.0000
  Cl  Cl1       1.0  0.11800  0.27900  0.08440  1.0000
  Cl  Cl2       1.0  0.32500  0.76400  0.08590  1.0000
  Cl  Cl3       1.0  0.44600  0.20400  0.15900  1.0000
  Cl  Cl4       1.0  0.78400  0.99900  0.22900  1.0000
  Cl  Cl5       1.0  0.99500  0.69700  0.27800  1.0000
  Cl  Cl6       1.0  0.42200  0.60600  0.33300  1.0000
  Cl  Cl7       1.0  0.76700  0.47800  0.35800  1.0000
  Cl  Cl8       1.0  0.23000  0.14300  0.49200  1.0000
  Cl  Cl9       1.0  0.77000  0.85700  0.50800  1.0000
  Cl  Cl10      1.0  0.23300  0.52200  0.64200  1.0000
  Cl  Cl11      1.0  0.57800  0.39400  0.66700  1.0000
  Cl  Cl12      1.0  0.00455  0.30300  0.72200  1.0000
  Cl  Cl13      1.0  0.21600  0.00118  0.77100  1.0000
  Cl  Cl14      1.0  0.55400  0.79600  0.84100  1.0000
  Cl  Cl15      1.0  0.67500  0.23600  0.91400  1.0000
  Cl  Cl16      1.0  0.88200  0.72100  0.91600  1.0000
  Si  Si1       1.0  0.70900  0.77400  0.02070  1.0000
  Si  Si2       1.0  0.43400  0.59700  0.10400  1.0000
  Si  Si3       1.0  0.78200  0.66000  0.29700  1.0000
  Si  Si4       1.0  0.21800  0.34000  0.70300  1.0000
  Si  Si5       1.0  0.56600  0.40300  0.89600  1.0000
  Si  Si6       1.0  0.29100  0.22600  0.97900  1.0000
