data_image0
_chemical_formula_structural       B6S12Tl6
_chemical_formula_sum              "B6 S12 Tl6"
_cell_length_a       8.31377
_cell_length_b       8.31377
_cell_length_c       8.31378
_cell_angle_alpha    105.644
_cell_angle_beta     74.3564
_cell_angle_gamma    105.644

_space_group_name_H-M_alt    "P 1"
_space_group_IT_number       1

loop_
  _space_group_symop_operation_xyz
  'x, y, z'

loop_
  _atom_site_type_symbol
  _atom_site_label
  _atom_site_symmetry_multiplicity
  _atom_site_fract_x
  _atom_site_fract_y
  _atom_site_fract_z
  _atom_site_occupancy
  B   B1        1.0  0.40800  0.89900  0.10100  1.0000
  B   B2        1.0  0.10100  0.59200  0.10100  1.0000
  B   B3        1.0  0.10100  0.89900  0.40800  1.0000
  B   B4        1.0  0.89900  0.10100  0.59200  1.0000
  B   B5        1.0  0.59200  0.10100  0.89900  1.0000
  B   B6        1.0  0.89900  0.40800  0.89900  1.0000
  S   S1        1.0  0.34300  0.65700  0.02490  1.0000
  S   S2        1.0  0.65300  0.96900  0.03150  1.0000
  S   S3        1.0  0.03150  0.34700  0.03150  1.0000
  S   S4        1.0  0.02490  0.65700  0.34300  1.0000
  S   S5        1.0  0.34300  0.97500  0.34300  1.0000
  S   S6        1.0  0.96900  0.03150  0.34700  1.0000
  S   S7        1.0  0.03150  0.96900  0.65300  1.0000
  S   S8        1.0  0.65700  0.02490  0.65700  1.0000
  S   S9        1.0  0.97500  0.34300  0.65700  1.0000
  S   S10       1.0  0.34700  0.03150  0.96900  1.0000
  S   S11       1.0  0.96900  0.65300  0.96900  1.0000
  S   S12       1.0  0.65700  0.34300  0.97500  1.0000
  Tl  Tl1       1.0  0.67500  0.72500  0.27500  1.0000
  Tl  Tl2       1.0  0.27500  0.32500  0.27500  1.0000
  Tl  Tl3       1.0  0.72500  0.27500  0.32500  1.0000
  Tl  Tl4       1.0  0.27500  0.72500  0.67500  1.0000
  Tl  Tl5       1.0  0.32500  0.27500  0.72500  1.0000
  Tl  Tl6       1.0  0.72500  0.67500  0.72500  1.0000
