data_image0
_chemical_formula_structural       Eu4O16S4
_chemical_formula_sum              "Eu4 O16 S4"
_cell_length_a       8.11306
_cell_length_b       5.1396
_cell_length_c       6.65202
_cell_angle_alpha    90
_cell_angle_beta     90
_cell_angle_gamma    90

_space_group_name_H-M_alt    "P 1"
_space_group_IT_number       1

loop_
  _space_group_symop_operation_xyz
  'x, y, z'

loop_
  _atom_site_type_symbol
  _atom_site_label
  _atom_site_symmetry_multiplicity
  _atom_site_fract_x
  _atom_site_fract_y
  _atom_site_fract_z
  _atom_site_occupancy
  Eu  Eu1       1.0  0.18600  0.25000  0.15800  1.0000
  Eu  Eu2       1.0  0.68600  0.25000  0.34200  1.0000
  Eu  Eu3       1.0  0.31400  0.75000  0.65800  1.0000
  Eu  Eu4       1.0  0.81400  0.75000  0.84200  1.0000
  O   O1        1.0  0.30700  0.75000  0.03680  1.0000
  O   O2        1.0  0.60600  0.75000  0.09600  1.0000
  O   O3        1.0  0.92300  0.51500  0.18300  1.0000
  O   O4        1.0  0.92300  0.98500  0.18300  1.0000
  O   O5        1.0  0.42300  0.51500  0.31700  1.0000
  O   O6        1.0  0.42300  0.98500  0.31700  1.0000
  O   O7        1.0  0.10600  0.75000  0.40400  1.0000
  O   O8        1.0  0.80700  0.75000  0.46300  1.0000
  O   O9        1.0  0.19300  0.25000  0.53700  1.0000
  O   O10       1.0  0.89400  0.25000  0.59600  1.0000
  O   O11       1.0  0.57700  0.01480  0.68300  1.0000
  O   O12       1.0  0.57700  0.48500  0.68300  1.0000
  O   O13       1.0  0.07700  0.01480  0.81700  1.0000
  O   O14       1.0  0.07700  0.48500  0.81700  1.0000
  O   O15       1.0  0.39400  0.25000  0.90400  1.0000
  O   O16       1.0  0.69300  0.25000  0.96300  1.0000
  S   S1        1.0  0.44100  0.75000  0.18700  1.0000
  S   S2        1.0  0.94100  0.75000  0.31300  1.0000
  S   S3        1.0  0.05920  0.25000  0.68700  1.0000
  S   S4        1.0  0.55900  0.25000  0.81300  1.0000
