data_image0
_chemical_formula_structural       Cu4S14U6
_chemical_formula_sum              "Cu4 S14 U6"
_cell_length_a       9.66168
_cell_length_b       9.66042
_cell_length_c       5.67277
_cell_angle_alpha    90
_cell_angle_beta     90
_cell_angle_gamma    120.011

_space_group_name_H-M_alt    "P 1"
_space_group_IT_number       1

loop_
  _space_group_symop_operation_xyz
  'x, y, z'

loop_
  _atom_site_type_symbol
  _atom_site_label
  _atom_site_symmetry_multiplicity
  _atom_site_fract_x
  _atom_site_fract_y
  _atom_site_fract_z
  _atom_site_occupancy
  Cu  Cu1       1.0  0.00000  0.00000  0.00015  1.0000
  Cu  Cu2       1.0  0.66700  0.33300  0.14900  1.0000
  Cu  Cu3       1.0  0.00000  0.00000  0.50000  1.0000
  Cu  Cu4       1.0  0.33300  0.66700  0.64900  1.0000
  S   S1        1.0  0.26200  0.15400  0.01530  1.0000
  S   S2        1.0  0.89200  0.73800  0.01530  1.0000
  S   S3        1.0  0.84600  0.10800  0.01530  1.0000
  S   S4        1.0  0.33300  0.66700  0.25100  1.0000
  S   S5        1.0  0.92100  0.43300  0.28200  1.0000
  S   S6        1.0  0.51200  0.07940  0.28200  1.0000
  S   S7        1.0  0.56700  0.48800  0.28200  1.0000
  S   S8        1.0  0.73800  0.84600  0.51500  1.0000
  S   S9        1.0  0.10800  0.26200  0.51500  1.0000
  S   S10       1.0  0.15400  0.89200  0.51500  1.0000
  S   S11       1.0  0.66700  0.33300  0.75100  1.0000
  S   S12       1.0  0.07940  0.56700  0.78200  1.0000
  S   S13       1.0  0.48800  0.92100  0.78200  1.0000
  S   S14       1.0  0.43300  0.51200  0.78200  1.0000
  U   U1        1.0  0.22900  0.84900  0.03050  1.0000
  U   U2        1.0  0.62100  0.77100  0.03050  1.0000
  U   U3        1.0  0.15100  0.37900  0.03050  1.0000
  U   U4        1.0  0.77100  0.15100  0.53100  1.0000
  U   U5        1.0  0.37900  0.22900  0.53100  1.0000
  U   U6        1.0  0.84900  0.62100  0.53100  1.0000
