data_image0
_chemical_formula_structural       F16Sb4Tl4
_chemical_formula_sum              "F16 Sb4 Tl4"
_cell_length_a       7.26186
_cell_length_b       7.94147
_cell_length_c       6.72781
_cell_angle_alpha    90
_cell_angle_beta     90
_cell_angle_gamma    99.9347

_space_group_name_H-M_alt    "P 1"
_space_group_IT_number       1

loop_
  _space_group_symop_operation_xyz
  'x, y, z'

loop_
  _atom_site_type_symbol
  _atom_site_label
  _atom_site_symmetry_multiplicity
  _atom_site_fract_x
  _atom_site_fract_y
  _atom_site_fract_z
  _atom_site_occupancy
  F   F1        1.0  0.74300  0.79300  0.05200  1.0000
  F   F2        1.0  0.67600  0.43900  0.09880  1.0000
  F   F3        1.0  0.88100  0.18800  0.11100  1.0000
  F   F4        1.0  0.39500  0.82600  0.15400  1.0000
  F   F5        1.0  0.39500  0.32600  0.34600  1.0000
  F   F6        1.0  0.88100  0.68800  0.38900  1.0000
  F   F7        1.0  0.67600  0.93900  0.40100  1.0000
  F   F8        1.0  0.74300  0.29300  0.44800  1.0000
  F   F9        1.0  0.25700  0.70700  0.55200  1.0000
  F   F10       1.0  0.32400  0.06140  0.59900  1.0000
  F   F11       1.0  0.11900  0.31200  0.61100  1.0000
  F   F12       1.0  0.60500  0.67400  0.65400  1.0000
  F   F13       1.0  0.60500  0.17400  0.84600  1.0000
  F   F14       1.0  0.11900  0.81200  0.88900  1.0000
  F   F15       1.0  0.32400  0.56100  0.90100  1.0000
  F   F16       1.0  0.25700  0.20700  0.94800  1.0000
  Sb  Sb1       1.0  0.61100  0.19500  0.19900  1.0000
  Sb  Sb2       1.0  0.61100  0.69500  0.30100  1.0000
  Sb  Sb3       1.0  0.38900  0.30500  0.69900  1.0000
  Sb  Sb4       1.0  0.38900  0.80500  0.80100  1.0000
  Tl  Tl1       1.0  0.11000  0.47700  0.23900  1.0000
  Tl  Tl2       1.0  0.11000  0.97700  0.26100  1.0000
  Tl  Tl3       1.0  0.89000  0.02290  0.73900  1.0000
  Tl  Tl4       1.0  0.89000  0.52300  0.76100  1.0000
