data_image0
_chemical_formula_structural       As2F12N4S6
_chemical_formula_sum              "As2 F12 N4 S6"
_cell_length_a       9.09412
_cell_length_b       5.1688
_cell_length_c       7.29581
_cell_angle_alpha    75.1852
_cell_angle_beta     89.7138
_cell_angle_gamma    98.2762

_space_group_name_H-M_alt    "P 1"
_space_group_IT_number       1

loop_
  _space_group_symop_operation_xyz
  'x, y, z'

loop_
  _atom_site_type_symbol
  _atom_site_label
  _atom_site_symmetry_multiplicity
  _atom_site_fract_x
  _atom_site_fract_y
  _atom_site_fract_z
  _atom_site_occupancy
  As  As1       1.0  0.22400  0.92700  0.22500  1.0000
  As  As2       1.0  0.77600  0.07330  0.77500  1.0000
  F   F1        1.0  0.11900  0.87100  0.03330  1.0000
  F   F2        1.0  0.36700  0.13800  0.06880  1.0000
  F   F3        1.0  0.31300  0.64500  0.22800  1.0000
  F   F4        1.0  0.13200  0.20100  0.23000  1.0000
  F   F5        1.0  0.08160  0.71000  0.38300  1.0000
  F   F6        1.0  0.32700  0.97100  0.42300  1.0000
  F   F7        1.0  0.67300  0.02940  0.57700  1.0000
  F   F8        1.0  0.91800  0.29000  0.61700  1.0000
  F   F9        1.0  0.86800  0.79900  0.77000  1.0000
  F   F10       1.0  0.68700  0.35500  0.77200  1.0000
  F   F11       1.0  0.63300  0.86200  0.93100  1.0000
  F   F12       1.0  0.88100  0.12900  0.96700  1.0000
  N   N1        1.0  0.68700  0.33300  0.17800  1.0000
  N   N2        1.0  0.62600  0.67100  0.35200  1.0000
  N   N3        1.0  0.37400  0.32900  0.64800  1.0000
  N   N4        1.0  0.31300  0.66700  0.82200  1.0000
  S   S1        1.0  0.85600  0.45200  0.20300  1.0000
  S   S2        1.0  0.55500  0.44100  0.25900  1.0000
  S   S3        1.0  0.80300  0.74100  0.35800  1.0000
  S   S4        1.0  0.19700  0.25900  0.64200  1.0000
  S   S5        1.0  0.44500  0.55900  0.74100  1.0000
  S   S6        1.0  0.14400  0.54800  0.79700  1.0000
