data_image0
_chemical_formula_structural       Nb20Ni4
_chemical_formula_sum              "Nb20 Ni4"
_cell_length_a       8.40864
_cell_length_b       8.40864
_cell_length_c       8.40864
_cell_angle_alpha    120
_cell_angle_beta     90
_cell_angle_gamma    120

_space_group_name_H-M_alt    "P 1"
_space_group_IT_number       1

loop_
  _space_group_symop_operation_xyz
  'x, y, z'

loop_
  _atom_site_type_symbol
  _atom_site_label
  _atom_site_symmetry_multiplicity
  _atom_site_fract_x
  _atom_site_fract_y
  _atom_site_fract_z
  _atom_site_occupancy
  Nb  Nb1       1.0  0.93400  0.50000  0.06560  1.0000
  Nb  Nb2       1.0  0.56600  0.13100  0.06560  1.0000
  Nb  Nb3       1.0  0.56600  0.50000  0.06560  1.0000
  Nb  Nb4       1.0  0.81600  0.00000  0.18400  1.0000
  Nb  Nb5       1.0  0.18400  0.00000  0.18400  1.0000
  Nb  Nb6       1.0  0.18400  0.36900  0.18400  1.0000
  Nb  Nb7       1.0  0.59000  0.18000  0.41000  1.0000
  Nb  Nb8       1.0  0.23000  0.82000  0.41000  1.0000
  Nb  Nb9       1.0  0.59000  0.82000  0.41000  1.0000
  Nb  Nb10      1.0  0.56600  0.50000  0.43400  1.0000
  Nb  Nb11      1.0  0.93400  0.50000  0.43400  1.0000
  Nb  Nb12      1.0  0.93400  0.86900  0.43400  1.0000
  Nb  Nb13      1.0  0.16000  0.32000  0.48000  1.0000
  Nb  Nb14      1.0  0.59000  0.18000  0.77000  1.0000
  Nb  Nb15      1.0  0.18400  0.00000  0.81600  1.0000
  Nb  Nb16      1.0  0.81600  0.00000  0.81600  1.0000
  Nb  Nb17      1.0  0.81600  0.63100  0.81600  1.0000
  Nb  Nb18      1.0  0.16000  0.32000  0.84000  1.0000
  Nb  Nb19      1.0  0.16000  0.68000  0.84000  1.0000
  Nb  Nb20      1.0  0.52000  0.68000  0.84000  1.0000
  Ni  Ni1       1.0  0.37500  0.75000  0.12500  1.0000
  Ni  Ni2       1.0  0.87500  0.25000  0.62500  1.0000
  Ni  Ni3       1.0  0.37500  0.25000  0.62500  1.0000
  Ni  Ni4       1.0  0.37500  0.75000  0.62500  1.0000
