data_image0
_chemical_formula_structural       C2Co3O10Se2
_chemical_formula_sum              "C2 Co3 O10 Se2"
_cell_length_a       5.59924
_cell_length_b       5.59924
_cell_length_c       7.68965
_cell_angle_alpha    97.0764
_cell_angle_beta     111.264
_cell_angle_gamma    109.435

_space_group_name_H-M_alt    "P 1"
_space_group_IT_number       1

loop_
  _space_group_symop_operation_xyz
  'x, y, z'

loop_
  _atom_site_type_symbol
  _atom_site_label
  _atom_site_symmetry_multiplicity
  _atom_site_fract_x
  _atom_site_fract_y
  _atom_site_fract_z
  _atom_site_occupancy
  C   C1        1.0  0.89000  0.54300  0.43300  1.0000
  C   C2        1.0  0.11000  0.45700  0.56700  1.0000
  Co  Co1       1.0  0.50000  0.50000  0.00000  1.0000
  Co  Co2       1.0  0.98900  0.19100  0.18100  1.0000
  Co  Co3       1.0  0.01060  0.80900  0.81900  1.0000
  O   O1        1.0  0.18200  0.94500  0.12700  1.0000
  O   O2        1.0  0.27000  0.50500  0.15600  1.0000
  O   O3        1.0  0.65000  0.88600  0.15600  1.0000
  O   O4        1.0  0.80300  0.44800  0.25200  1.0000
  O   O5        1.0  0.18300  0.30300  0.48600  1.0000
  O   O6        1.0  0.81700  0.69700  0.51400  1.0000
  O   O7        1.0  0.19700  0.55200  0.74800  1.0000
  O   O8        1.0  0.35000  0.11400  0.84400  1.0000
  O   O9        1.0  0.73000  0.49500  0.84400  1.0000
  O   O10       1.0  0.81800  0.05490  0.87300  1.0000
  Se  Se1       1.0  0.42400  0.84200  0.26700  1.0000
  Se  Se2       1.0  0.57600  0.15800  0.73300  1.0000
