data_image0
_chemical_formula_structural       Co2Ga6Tm16
_chemical_formula_sum              "Co2 Ga6 Tm16"
_cell_length_a       9.87186
_cell_length_b       9.87205
_cell_length_c       6.80979
_cell_angle_alpha    90
_cell_angle_beta     90
_cell_angle_gamma    119.999

_space_group_name_H-M_alt    "P 1"
_space_group_IT_number       1

loop_
  _space_group_symop_operation_xyz
  'x, y, z'

loop_
  _atom_site_type_symbol
  _atom_site_label
  _atom_site_symmetry_multiplicity
  _atom_site_fract_x
  _atom_site_fract_y
  _atom_site_fract_z
  _atom_site_occupancy
  Co  Co1       1.0  0.33300  0.66700  0.05800  1.0000
  Co  Co2       1.0  0.66700  0.33300  0.55800  1.0000
  Ga  Ga1       1.0  0.83600  0.67300  0.03890  1.0000
  Ga  Ga2       1.0  0.32700  0.16400  0.03890  1.0000
  Ga  Ga3       1.0  0.83600  0.16400  0.03890  1.0000
  Ga  Ga4       1.0  0.16400  0.32700  0.53900  1.0000
  Ga  Ga5       1.0  0.16400  0.83600  0.53900  1.0000
  Ga  Ga6       1.0  0.67300  0.83600  0.53900  1.0000
  Tm  Tm1       1.0  0.66700  0.33300  0.17200  1.0000
  Tm  Tm2       1.0  0.00000  0.00000  0.26800  1.0000
  Tm  Tm3       1.0  0.46400  0.92800  0.29200  1.0000
  Tm  Tm4       1.0  0.07160  0.53600  0.29200  1.0000
  Tm  Tm5       1.0  0.46400  0.53600  0.29200  1.0000
  Tm  Tm6       1.0  0.34600  0.17300  0.49000  1.0000
  Tm  Tm7       1.0  0.82700  0.17300  0.49000  1.0000
  Tm  Tm8       1.0  0.82700  0.65400  0.49000  1.0000
  Tm  Tm9       1.0  0.33300  0.66700  0.67200  1.0000
  Tm  Tm10      1.0  0.00000  0.00000  0.76800  1.0000
  Tm  Tm11      1.0  0.53600  0.07160  0.79200  1.0000
  Tm  Tm12      1.0  0.53600  0.46400  0.79200  1.0000
  Tm  Tm13      1.0  0.92800  0.46400  0.79200  1.0000
  Tm  Tm14      1.0  0.17300  0.82700  0.99000  1.0000
  Tm  Tm15      1.0  0.65400  0.82700  0.99000  1.0000
  Tm  Tm16      1.0  0.17300  0.34600  0.99000  1.0000
