data_image0
_chemical_formula_structural       Ce5O16Zr3
_chemical_formula_sum              "Ce5 O16 Zr3"
_cell_length_a       7.74855
_cell_length_b       7.74855
_cell_length_c       5.66913
_cell_angle_alpha    90
_cell_angle_beta     90
_cell_angle_gamma    86.7508

_space_group_name_H-M_alt    "P 1"
_space_group_IT_number       1

loop_
  _space_group_symop_operation_xyz
  'x, y, z'

loop_
  _atom_site_type_symbol
  _atom_site_label
  _atom_site_symmetry_multiplicity
  _atom_site_fract_x
  _atom_site_fract_y
  _atom_site_fract_z
  _atom_site_occupancy
  Ce  Ce1       1.0  0.50000  0.50000  0.00000  1.0000
  Ce  Ce2       1.0  0.50000  0.00000  0.00983  1.0000
  Ce  Ce3       1.0  0.76300  0.23700  0.50000  1.0000
  Ce  Ce4       1.0  0.23700  0.76300  0.50000  1.0000
  Ce  Ce5       1.0  0.00000  0.50000  0.99000  1.0000
  O   O1        1.0  0.98300  0.22600  0.19500  1.0000
  O   O2        1.0  0.01670  0.77400  0.19500  1.0000
  O   O3        1.0  0.50900  0.24400  0.26200  1.0000
  O   O4        1.0  0.49100  0.75600  0.26200  1.0000
  O   O5        1.0  0.24300  0.48300  0.26800  1.0000
  O   O6        1.0  0.75700  0.51700  0.26800  1.0000
  O   O7        1.0  0.22300  0.05560  0.28900  1.0000
  O   O8        1.0  0.77700  0.94400  0.28900  1.0000
  O   O9        1.0  0.05560  0.22300  0.71100  1.0000
  O   O10       1.0  0.94400  0.77700  0.71100  1.0000
  O   O11       1.0  0.48300  0.24300  0.73200  1.0000
  O   O12       1.0  0.51700  0.75700  0.73200  1.0000
  O   O13       1.0  0.75600  0.49100  0.73800  1.0000
  O   O14       1.0  0.24400  0.50900  0.73800  1.0000
  O   O15       1.0  0.77400  0.01670  0.80500  1.0000
  O   O16       1.0  0.22600  0.98300  0.80500  1.0000
  Zr  Zr1       1.0  0.00000  0.00000  0.00000  1.0000
  Zr  Zr2       1.0  0.28200  0.28200  0.50000  1.0000
  Zr  Zr3       1.0  0.71800  0.71800  0.50000  1.0000
