data_image0
_chemical_formula_structural       Cl2Cu2F20
_chemical_formula_sum              "Cl2 Cu2 F20"
_cell_length_a       4.47948
_cell_length_b       8.47776
_cell_length_c       6.797
_cell_angle_alpha    90
_cell_angle_beta     103.139
_cell_angle_gamma    90

_space_group_name_H-M_alt    "P 1"
_space_group_IT_number       1

loop_
  _space_group_symop_operation_xyz
  'x, y, z'

loop_
  _atom_site_type_symbol
  _atom_site_label
  _atom_site_symmetry_multiplicity
  _atom_site_fract_x
  _atom_site_fract_y
  _atom_site_fract_z
  _atom_site_occupancy
  Cl  Cl1       1.0  0.00000  0.50000  0.50000  1.0000
  Cl  Cl2       1.0  0.50000  0.00000  0.50000  1.0000
  Cu  Cu1       1.0  0.00000  0.00000  0.00000  1.0000
  Cu  Cu2       1.0  0.50000  0.50000  0.00000  1.0000
  F   F1        1.0  0.22500  0.39200  0.09470  1.0000
  F   F2        1.0  0.72500  0.10800  0.09470  1.0000
  F   F3        1.0  0.40500  0.67000  0.11700  1.0000
  F   F4        1.0  0.90500  0.83000  0.11700  1.0000
  F   F5        1.0  0.78800  0.38200  0.31700  1.0000
  F   F6        1.0  0.28800  0.11800  0.31700  1.0000
  F   F7        1.0  0.09420  0.61200  0.32300  1.0000
  F   F8        1.0  0.59400  0.88800  0.32300  1.0000
  F   F9        1.0  0.19400  0.88600  0.49600  1.0000
  F   F10       1.0  0.69400  0.61400  0.49600  1.0000
  F   F11       1.0  0.30600  0.38600  0.50400  1.0000
  F   F12       1.0  0.80600  0.11400  0.50400  1.0000
  F   F13       1.0  0.40600  0.11200  0.67700  1.0000
  F   F14       1.0  0.90600  0.38800  0.67700  1.0000
  F   F15       1.0  0.21200  0.61800  0.68300  1.0000
  F   F16       1.0  0.71200  0.88200  0.68300  1.0000
  F   F17       1.0  0.09480  0.17000  0.88300  1.0000
  F   F18       1.0  0.59500  0.33000  0.88300  1.0000
  F   F19       1.0  0.27500  0.89200  0.90500  1.0000
  F   F20       1.0  0.77500  0.60800  0.90500  1.0000
