data_image0
_chemical_formula_structural       Br4Hg8P12
_chemical_formula_sum              "Br4 Hg8 P12"
_cell_length_a       8.16595
_cell_length_b       9.11855
_cell_length_c       7.93969
_cell_angle_alpha    90
_cell_angle_beta     90
_cell_angle_gamma    90

_space_group_name_H-M_alt    "P 1"
_space_group_IT_number       1

loop_
  _space_group_symop_operation_xyz
  'x, y, z'

loop_
  _atom_site_type_symbol
  _atom_site_label
  _atom_site_symmetry_multiplicity
  _atom_site_fract_x
  _atom_site_fract_y
  _atom_site_fract_z
  _atom_site_occupancy
  Br  Br1       1.0  0.50000  0.11300  0.25000  1.0000
  Br  Br2       1.0  0.00000  0.61300  0.25000  1.0000
  Br  Br3       1.0  0.00000  0.38700  0.75000  1.0000
  Br  Br4       1.0  0.50000  0.88700  0.75000  1.0000
  Hg  Hg1       1.0  0.78300  0.32800  0.10700  1.0000
  Hg  Hg2       1.0  0.71700  0.82800  0.10700  1.0000
  Hg  Hg3       1.0  0.21700  0.32800  0.39300  1.0000
  Hg  Hg4       1.0  0.28300  0.82800  0.39300  1.0000
  Hg  Hg5       1.0  0.71700  0.17200  0.60700  1.0000
  Hg  Hg6       1.0  0.78300  0.67200  0.60700  1.0000
  Hg  Hg7       1.0  0.28300  0.17200  0.89300  1.0000
  Hg  Hg8       1.0  0.21700  0.67200  0.89300  1.0000
  P   P1        1.0  0.11200  0.01550  0.07770  1.0000
  P   P2        1.0  0.38800  0.51500  0.07770  1.0000
  P   P3        1.0  0.00000  0.17900  0.25000  1.0000
  P   P4        1.0  0.50000  0.67900  0.25000  1.0000
  P   P5        1.0  0.88800  0.01550  0.42200  1.0000
  P   P6        1.0  0.61200  0.51500  0.42200  1.0000
  P   P7        1.0  0.38800  0.48500  0.57800  1.0000
  P   P8        1.0  0.11200  0.98500  0.57800  1.0000
  P   P9        1.0  0.50000  0.32100  0.75000  1.0000
  P   P10       1.0  0.00000  0.82100  0.75000  1.0000
  P   P11       1.0  0.61200  0.48500  0.92200  1.0000
  P   P12       1.0  0.88800  0.98500  0.92200  1.0000
