data_image0
_chemical_formula_structural       Ag6Se12Tl6
_chemical_formula_sum              "Ag6 Se12 Tl6"
_cell_length_a       10.0104
_cell_length_b       10.327
_cell_length_c       7.95872
_cell_angle_alpha    88.6421
_cell_angle_beta     90.7004
_cell_angle_gamma    121.052

_space_group_name_H-M_alt    "P 1"
_space_group_IT_number       1

loop_
  _space_group_symop_operation_xyz
  'x, y, z'

loop_
  _atom_site_type_symbol
  _atom_site_label
  _atom_site_symmetry_multiplicity
  _atom_site_fract_x
  _atom_site_fract_y
  _atom_site_fract_z
  _atom_site_occupancy
  Ag  Ag1       1.0  0.29200  0.00786  0.20600  1.0000
  Ag  Ag2       1.0  0.70800  0.71600  0.20600  1.0000
  Ag  Ag3       1.0  0.00000  0.72700  0.49100  1.0000
  Ag  Ag4       1.0  0.00000  0.27300  0.50900  1.0000
  Ag  Ag5       1.0  0.70800  0.99200  0.79400  1.0000
  Ag  Ag6       1.0  0.29200  0.28400  0.79400  1.0000
  Se  Se1       1.0  0.45400  0.22700  0.00000  1.0000
  Se  Se2       1.0  0.54600  0.77300  0.00000  1.0000
  Se  Se3       1.0  0.14000  0.35900  0.00873  1.0000
  Se  Se4       1.0  0.86000  0.22000  0.00873  1.0000
  Se  Se5       1.0  0.28900  0.88400  0.49700  1.0000
  Se  Se6       1.0  0.71100  0.59500  0.49700  1.0000
  Se  Se7       1.0  0.68200  0.84100  0.50000  1.0000
  Se  Se8       1.0  0.31900  0.15900  0.50000  1.0000
  Se  Se9       1.0  0.71100  0.11600  0.50300  1.0000
  Se  Se10      1.0  0.28900  0.40500  0.50300  1.0000
  Se  Se11      1.0  0.86000  0.64100  0.99100  1.0000
  Se  Se12      1.0  0.14000  0.78000  0.99100  1.0000
  Tl  Tl1       1.0  0.00000  0.06030  0.24500  1.0000
  Tl  Tl2       1.0  0.29300  0.65500  0.24900  1.0000
  Tl  Tl3       1.0  0.70700  0.36200  0.24900  1.0000
  Tl  Tl4       1.0  0.29300  0.63800  0.75100  1.0000
  Tl  Tl5       1.0  0.70700  0.34500  0.75100  1.0000
  Tl  Tl6       1.0  0.00000  0.94000  0.75500  1.0000
