data_image0
_chemical_formula_structural       Cs6P2Se14Sn2
_chemical_formula_sum              "Cs6 P2 Se14 Sn2"
_cell_length_a       10.3337
_cell_length_b       12.6323
_cell_length_c       7.69173
_cell_angle_alpha    92.0025
_cell_angle_beta     110.317
_cell_angle_gamma    78.9866

_space_group_name_H-M_alt    "P 1"
_space_group_IT_number       1

loop_
  _space_group_symop_operation_xyz
  'x, y, z'

loop_
  _atom_site_type_symbol
  _atom_site_label
  _atom_site_symmetry_multiplicity
  _atom_site_fract_x
  _atom_site_fract_y
  _atom_site_fract_z
  _atom_site_occupancy
  Cs  Cs1       1.0  0.01680  0.20400  0.04840  1.0000
  Cs  Cs2       1.0  0.62200  0.39900  0.32900  1.0000
  Cs  Cs3       1.0  0.68300  0.01710  0.37600  1.0000
  Cs  Cs4       1.0  0.31700  0.98300  0.62400  1.0000
  Cs  Cs5       1.0  0.37800  0.60100  0.67100  1.0000
  Cs  Cs6       1.0  0.98300  0.79600  0.95200  1.0000
  P   P1        1.0  0.44000  0.77700  0.22300  1.0000
  P   P2        1.0  0.56000  0.22300  0.77700  1.0000
  Se  Se1       1.0  0.57000  0.79500  0.03590  1.0000
  Se  Se2       1.0  0.73300  0.62900  0.07420  1.0000
  Se  Se3       1.0  0.30700  0.93800  0.12800  1.0000
  Se  Se4       1.0  0.33400  0.63900  0.14700  1.0000
  Se  Se5       1.0  0.10200  0.47200  0.33100  1.0000
  Se  Se6       1.0  0.01460  0.80500  0.47600  1.0000
  Se  Se7       1.0  0.41500  0.23500  0.48900  1.0000
  Se  Se8       1.0  0.58500  0.76500  0.51100  1.0000
  Se  Se9       1.0  0.98500  0.19500  0.52400  1.0000
  Se  Se10      1.0  0.89800  0.52800  0.66900  1.0000
  Se  Se11      1.0  0.66600  0.36100  0.85300  1.0000
  Se  Se12      1.0  0.69300  0.06170  0.87200  1.0000
  Se  Se13      1.0  0.26700  0.37100  0.92600  1.0000
  Se  Se14      1.0  0.43000  0.20500  0.96400  1.0000
  Sn  Sn1       1.0  0.92600  0.63400  0.40300  1.0000
  Sn  Sn2       1.0  0.07410  0.36600  0.59700  1.0000
