data_image0
_chemical_formula_structural       In9Ni4Sm11
_chemical_formula_sum              "In9 Ni4 Sm11"
_cell_length_a       3.75731
_cell_length_b       13.5681
_cell_length_c       13.5681
_cell_angle_alpha    112.363
_cell_angle_beta     90
_cell_angle_gamma    90

_space_group_name_H-M_alt    "P 1"
_space_group_IT_number       1

loop_
  _space_group_symop_operation_xyz
  'x, y, z'

loop_
  _atom_site_type_symbol
  _atom_site_label
  _atom_site_symmetry_multiplicity
  _atom_site_fract_x
  _atom_site_fract_y
  _atom_site_fract_z
  _atom_site_occupancy
  In  In1       1.0  0.50000  0.22200  0.08170  1.0000
  In  In2       1.0  0.50000  0.63400  0.16400  1.0000
  In  In3       1.0  0.50000  0.08170  0.22200  1.0000
  In  In4       1.0  0.50000  0.83600  0.36600  1.0000
  In  In5       1.0  0.50000  0.50000  0.50000  1.0000
  In  In6       1.0  0.50000  0.16400  0.63400  1.0000
  In  In7       1.0  0.50000  0.91800  0.77800  1.0000
  In  In8       1.0  0.50000  0.36600  0.83600  1.0000
  In  In9       1.0  0.50000  0.77800  0.91800  1.0000
  Ni  Ni1       1.0  0.50000  0.45100  0.24400  1.0000
  Ni  Ni2       1.0  0.50000  0.24400  0.45100  1.0000
  Ni  Ni3       1.0  0.50000  0.75600  0.54900  1.0000
  Ni  Ni4       1.0  0.50000  0.54900  0.75600  1.0000
  Sm  Sm1       1.0  0.00000  0.00000  0.00000  1.0000
  Sm  Sm2       1.0  0.00000  0.41600  0.07980  1.0000
  Sm  Sm3       1.0  0.00000  0.83800  0.16200  1.0000
  Sm  Sm4       1.0  0.00000  0.31400  0.31400  1.0000
  Sm  Sm5       1.0  0.00000  0.62800  0.37200  1.0000
  Sm  Sm6       1.0  0.00000  0.07980  0.41600  1.0000
  Sm  Sm7       1.0  0.00000  0.92000  0.58400  1.0000
  Sm  Sm8       1.0  0.00000  0.37200  0.62800  1.0000
  Sm  Sm9       1.0  0.00000  0.68600  0.68600  1.0000
  Sm  Sm10      1.0  0.00000  0.16200  0.83800  1.0000
  Sm  Sm11      1.0  0.00000  0.58400  0.92000  1.0000
