data_image0
_chemical_formula_structural       Co6Ge10Sm4
_chemical_formula_sum              "Co6 Ge10 Sm4"
_cell_length_a       5.79965
_cell_length_b       8.15522
_cell_length_c       8.15522
_cell_angle_alpha    93.2616
_cell_angle_beta     109.974
_cell_angle_gamma    109.974

_space_group_name_H-M_alt    "P 1"
_space_group_IT_number       1

loop_
  _space_group_symop_operation_xyz
  'x, y, z'

loop_
  _atom_site_type_symbol
  _atom_site_label
  _atom_site_symmetry_multiplicity
  _atom_site_fract_x
  _atom_site_fract_y
  _atom_site_fract_z
  _atom_site_occupancy
  Co  Co1       1.0  0.25000  0.99700  0.00251  1.0000
  Co  Co2       1.0  0.38400  0.53900  0.26100  1.0000
  Co  Co3       1.0  0.11600  0.73900  0.46100  1.0000
  Co  Co4       1.0  0.88400  0.26100  0.53900  1.0000
  Co  Co5       1.0  0.61600  0.46100  0.73900  1.0000
  Co  Co6       1.0  0.75000  0.00251  0.99700  1.0000
  Ge  Ge1       1.0  0.16800  0.26000  0.07310  1.0000
  Ge  Ge2       1.0  0.25000  0.78200  0.21800  1.0000
  Ge  Ge3       1.0  0.75000  0.77200  0.22800  1.0000
  Ge  Ge4       1.0  0.66800  0.07310  0.26000  1.0000
  Ge  Ge5       1.0  0.75000  0.50600  0.49400  1.0000
  Ge  Ge6       1.0  0.25000  0.49400  0.50600  1.0000
  Ge  Ge7       1.0  0.33200  0.92700  0.74000  1.0000
  Ge  Ge8       1.0  0.25000  0.22800  0.77200  1.0000
  Ge  Ge9       1.0  0.75000  0.21800  0.78200  1.0000
  Ge  Ge10      1.0  0.83200  0.74000  0.92700  1.0000
  Sm  Sm1       1.0  0.76600  0.40400  0.12900  1.0000
  Sm  Sm2       1.0  0.26600  0.12900  0.40400  1.0000
  Sm  Sm3       1.0  0.73400  0.87100  0.59600  1.0000
  Sm  Sm4       1.0  0.23400  0.59600  0.87100  1.0000
