data_image0
_chemical_formula_structural       Mn4O16P4
_chemical_formula_sum              "Mn4 O16 P4"
_cell_length_a       9.64427
_cell_length_b       5.92863
_cell_length_c       4.77654
_cell_angle_alpha    90
_cell_angle_beta     90
_cell_angle_gamma    90

_space_group_name_H-M_alt    "P 1"
_space_group_IT_number       1

loop_
  _space_group_symop_operation_xyz
  'x, y, z'

loop_
  _atom_site_type_symbol
  _atom_site_label
  _atom_site_symmetry_multiplicity
  _atom_site_fract_x
  _atom_site_fract_y
  _atom_site_fract_z
  _atom_site_occupancy
  Mn  Mn1       1.0  0.71800  0.75000  0.07630  1.0000
  Mn  Mn2       1.0  0.21800  0.75000  0.42400  1.0000
  Mn  Mn3       1.0  0.78200  0.25000  0.57600  1.0000
  Mn  Mn4       1.0  0.28200  0.25000  0.92400  1.0000
  O   O1        1.0  0.43800  0.25000  0.16400  1.0000
  O   O2        1.0  0.38500  0.75000  0.21600  1.0000
  O   O3        1.0  0.16700  0.04660  0.24900  1.0000
  O   O4        1.0  0.16700  0.45300  0.24900  1.0000
  O   O5        1.0  0.66700  0.04660  0.25100  1.0000
  O   O6        1.0  0.66700  0.45300  0.25100  1.0000
  O   O7        1.0  0.88500  0.75000  0.28400  1.0000
  O   O8        1.0  0.93800  0.25000  0.33600  1.0000
  O   O9        1.0  0.06200  0.75000  0.66400  1.0000
  O   O10       1.0  0.11500  0.25000  0.71600  1.0000
  O   O11       1.0  0.33300  0.54700  0.74900  1.0000
  O   O12       1.0  0.33300  0.95300  0.74900  1.0000
  O   O13       1.0  0.83300  0.54700  0.75100  1.0000
  O   O14       1.0  0.83300  0.95300  0.75100  1.0000
  O   O15       1.0  0.61500  0.25000  0.78400  1.0000
  O   O16       1.0  0.56200  0.75000  0.83600  1.0000
  P   P1        1.0  0.59500  0.25000  0.10400  1.0000
  P   P2        1.0  0.09450  0.25000  0.39700  1.0000
  P   P3        1.0  0.90500  0.75000  0.60400  1.0000
  P   P4        1.0  0.40500  0.75000  0.89600  1.0000
