data_image0
_chemical_formula_structural       O14P8S2
_chemical_formula_sum              "O14 P8 S2"
_cell_length_a       6.60297
_cell_length_b       6.96525
_cell_length_c       7.86551
_cell_angle_alpha    92.8919
_cell_angle_beta     105.173
_cell_angle_gamma    94.844

_space_group_name_H-M_alt    "P 1"
_space_group_IT_number       1

loop_
  _space_group_symop_operation_xyz
  'x, y, z'

loop_
  _atom_site_type_symbol
  _atom_site_label
  _atom_site_symmetry_multiplicity
  _atom_site_fract_x
  _atom_site_fract_y
  _atom_site_fract_z
  _atom_site_occupancy
  O   O1        1.0  0.49300  0.70800  0.05540  1.0000
  O   O2        1.0  0.78600  0.97300  0.17900  1.0000
  O   O3        1.0  0.84300  0.63000  0.25400  1.0000
  O   O4        1.0  0.46300  0.95800  0.29300  1.0000
  O   O5        1.0  0.51800  0.61200  0.36700  1.0000
  O   O6        1.0  0.75900  0.23400  0.41600  1.0000
  O   O7        1.0  0.80800  0.88200  0.49000  1.0000
  O   O8        1.0  0.19200  0.11800  0.51000  1.0000
  O   O9        1.0  0.24100  0.76600  0.58400  1.0000
  O   O10       1.0  0.48200  0.38800  0.63300  1.0000
  O   O11       1.0  0.53700  0.04210  0.70700  1.0000
  O   O12       1.0  0.15700  0.37000  0.74600  1.0000
  O   O13       1.0  0.21400  0.02690  0.82100  1.0000
  O   O14       1.0  0.50700  0.29200  0.94500  1.0000
  P   P1        1.0  0.74400  0.75000  0.08890  1.0000
  P   P2        1.0  0.36400  0.72600  0.21500  1.0000
  P   P3        1.0  0.70800  0.02950  0.35200  1.0000
  P   P4        1.0  0.77700  0.63800  0.44800  1.0000
  P   P5        1.0  0.22300  0.36200  0.55200  1.0000
  P   P6        1.0  0.29200  0.97000  0.64800  1.0000
  P   P7        1.0  0.63600  0.27400  0.78500  1.0000
  P   P8        1.0  0.25600  0.25000  0.91100  1.0000
  S   S1        1.0  0.14800  0.28700  0.10800  1.0000
  S   S2        1.0  0.85200  0.71300  0.89200  1.0000
