data_image0
_chemical_formula_structural       As16La8
_chemical_formula_sum              "As16 La8"
_cell_length_a       9.13033
_cell_length_b       9.16945
_cell_length_c       9.7332
_cell_angle_alpha    118.059
_cell_angle_beta     117.928
_cell_angle_gamma    90.081

_space_group_name_H-M_alt    "P 1"
_space_group_IT_number       1

loop_
  _space_group_symop_operation_xyz
  'x, y, z'

loop_
  _atom_site_type_symbol
  _atom_site_label
  _atom_site_symmetry_multiplicity
  _atom_site_fract_x
  _atom_site_fract_y
  _atom_site_fract_z
  _atom_site_occupancy
  As  As1       1.0  0.75200  0.00219  0.04500  1.0000
  As  As2       1.0  0.99600  0.92900  0.23900  1.0000
  As  As3       1.0  0.38800  0.71400  0.24800  1.0000
  As  As4       1.0  0.13700  0.59900  0.25200  1.0000
  As  As5       1.0  0.79700  0.52400  0.25400  1.0000
  As  As6       1.0  0.62600  0.12800  0.25500  1.0000
  As  As7       1.0  0.20100  0.33500  0.25500  1.0000
  As  As8       1.0  0.75700  0.04650  0.49900  1.0000
  As  As9       1.0  0.75800  0.54800  0.50100  1.0000
  As  As10      1.0  0.44600  0.07930  0.74500  1.0000
  As  As11      1.0  0.87100  0.87300  0.74500  1.0000
  As  As12      1.0  0.04300  0.26900  0.74600  1.0000
  As  As13      1.0  0.38500  0.34700  0.74800  1.0000
  As  As14      1.0  0.64000  0.46600  0.75200  1.0000
  As  As15      1.0  0.25800  0.69000  0.76100  1.0000
  As  As16      1.0  0.20700  0.95700  0.95500  1.0000
  La  La1       1.0  0.40900  0.33400  0.08240  1.0000
  La  La2       1.0  0.61000  0.72900  0.08300  1.0000
  La  La3       1.0  0.38200  0.09850  0.39700  1.0000
  La  La4       1.0  0.00601  0.32600  0.44000  1.0000
  La  La5       1.0  0.06640  0.88700  0.56000  1.0000
  La  La6       1.0  0.48400  0.70100  0.60300  1.0000
  La  La7       1.0  0.02730  0.64600  0.91700  1.0000
  La  La8       1.0  0.82700  0.25100  0.91800  1.0000
