data_image0
_chemical_formula_structural       Bi4I4O16
_chemical_formula_sum              "Bi4 I4 O16"
_cell_length_a       5.60628
_cell_length_b       10.9922
_cell_length_c       5.69605
_cell_angle_alpha    90
_cell_angle_beta     90
_cell_angle_gamma    90

_space_group_name_H-M_alt    "P 1"
_space_group_IT_number       1

loop_
  _space_group_symop_operation_xyz
  'x, y, z'

loop_
  _atom_site_type_symbol
  _atom_site_label
  _atom_site_symmetry_multiplicity
  _atom_site_fract_x
  _atom_site_fract_y
  _atom_site_fract_z
  _atom_site_occupancy
  Bi  Bi1       1.0  0.48800  0.11200  0.19000  1.0000
  Bi  Bi2       1.0  0.98800  0.88800  0.19000  1.0000
  Bi  Bi3       1.0  0.01150  0.11200  0.69000  1.0000
  Bi  Bi4       1.0  0.51200  0.88800  0.69000  1.0000
  I   I1        1.0  0.99900  0.37100  0.16600  1.0000
  I   I2        1.0  0.49900  0.62900  0.16600  1.0000
  I   I3        1.0  0.50100  0.37100  0.66600  1.0000
  I   I4        1.0  0.00087  0.62900  0.66600  1.0000
  O   O1        1.0  0.11700  0.22000  0.07760  1.0000
  O   O2        1.0  0.61700  0.78000  0.07760  1.0000
  O   O3        1.0  0.25900  0.43500  0.32800  1.0000
  O   O4        1.0  0.75900  0.56500  0.32800  1.0000
  O   O5        1.0  0.84100  0.30000  0.42000  1.0000
  O   O6        1.0  0.34100  0.70000  0.42000  1.0000
  O   O7        1.0  0.74300  0.00036  0.43000  1.0000
  O   O8        1.0  0.24300  0.00000  0.43000  1.0000
  O   O9        1.0  0.38300  0.22000  0.57800  1.0000
  O   O10       1.0  0.88300  0.78000  0.57800  1.0000
  O   O11       1.0  0.24100  0.43500  0.82800  1.0000
  O   O12       1.0  0.74100  0.56500  0.82800  1.0000
  O   O13       1.0  0.65900  0.30000  0.92000  1.0000
  O   O14       1.0  0.15900  0.70000  0.92000  1.0000
  O   O15       1.0  0.75700  0.00036  0.93000  1.0000
  O   O16       1.0  0.25700  0.00000  0.93000  1.0000
