data_image0
_chemical_formula_structural       Dy6Ge6Pd6
_chemical_formula_sum              "Dy6 Ge6 Pd6"
_cell_length_a       4.41173
_cell_length_b       7.62744
_cell_length_c       11.4059
_cell_angle_alpha    109.534
_cell_angle_beta     101.151
_cell_angle_gamma    90

_space_group_name_H-M_alt    "P 1"
_space_group_IT_number       1

loop_
  _space_group_symop_operation_xyz
  'x, y, z'

loop_
  _atom_site_type_symbol
  _atom_site_label
  _atom_site_symmetry_multiplicity
  _atom_site_fract_x
  _atom_site_fract_y
  _atom_site_fract_z
  _atom_site_occupancy
  Dy  Dy1       1.0  0.50000  0.04830  0.00000  1.0000
  Dy  Dy2       1.0  0.00000  0.46500  0.00000  1.0000
  Dy  Dy3       1.0  0.66600  0.13100  0.33300  1.0000
  Dy  Dy4       1.0  0.16700  0.70900  0.33500  1.0000
  Dy  Dy5       1.0  0.83300  0.37400  0.66500  1.0000
  Dy  Dy6       1.0  0.33400  0.79800  0.66700  1.0000
  Ge  Ge1       1.0  0.06510  0.90900  0.13000  1.0000
  Ge  Ge2       1.0  0.59400  0.43900  0.18900  1.0000
  Ge  Ge3       1.0  0.23500  0.39800  0.47100  1.0000
  Ge  Ge4       1.0  0.76500  0.92700  0.52900  1.0000
  Ge  Ge5       1.0  0.40600  0.25100  0.81100  1.0000
  Ge  Ge6       1.0  0.93500  0.77900  0.87000  1.0000
  Pd  Pd1       1.0  0.57200  0.74900  0.14400  1.0000
  Pd  Pd2       1.0  0.10400  0.27600  0.20800  1.0000
  Pd  Pd3       1.0  0.73300  0.56700  0.46700  1.0000
  Pd  Pd4       1.0  0.26700  0.10100  0.53300  1.0000
  Pd  Pd5       1.0  0.89600  0.06780  0.79200  1.0000
  Pd  Pd6       1.0  0.42800  0.60500  0.85600  1.0000
