data_image0
_chemical_formula_structural       Li2Lu2O16W4
_chemical_formula_sum              "Li2 Lu2 O16 W4"
_cell_length_a       9.784
_cell_length_b       5.76918
_cell_length_c       4.96993
_cell_angle_alpha    90
_cell_angle_beta     92.942
_cell_angle_gamma    90

_space_group_name_H-M_alt    "P 1"
_space_group_IT_number       1

loop_
  _space_group_symop_operation_xyz
  'x, y, z'

loop_
  _atom_site_type_symbol
  _atom_site_label
  _atom_site_symmetry_multiplicity
  _atom_site_fract_x
  _atom_site_fract_y
  _atom_site_fract_z
  _atom_site_occupancy
  Li  Li1       1.0  0.75000  0.72200  0.25000  1.0000
  Li  Li2       1.0  0.25000  0.27800  0.75000  1.0000
  Lu  Lu1       1.0  0.25000  0.68700  0.25000  1.0000
  Lu  Lu2       1.0  0.75000  0.31300  0.75000  1.0000
  O   O1        1.0  0.88600  0.90900  0.04160  1.0000
  O   O2        1.0  0.40100  0.89100  0.05580  1.0000
  O   O3        1.0  0.36400  0.37900  0.09150  1.0000
  O   O4        1.0  0.88600  0.37600  0.10200  1.0000
  O   O5        1.0  0.61400  0.37600  0.39800  1.0000
  O   O6        1.0  0.13600  0.37900  0.40900  1.0000
  O   O7        1.0  0.09880  0.89100  0.44400  1.0000
  O   O8        1.0  0.61400  0.90900  0.45800  1.0000
  O   O9        1.0  0.38600  0.09070  0.54200  1.0000
  O   O10       1.0  0.90100  0.10900  0.55600  1.0000
  O   O11       1.0  0.86400  0.62100  0.59200  1.0000
  O   O12       1.0  0.38600  0.62400  0.60200  1.0000
  O   O13       1.0  0.11400  0.62400  0.89800  1.0000
  O   O14       1.0  0.63600  0.62100  0.90900  1.0000
  O   O15       1.0  0.59900  0.10900  0.94400  1.0000
  O   O16       1.0  0.11400  0.09070  0.95800  1.0000
  W   W1        1.0  0.01480  0.18300  0.24900  1.0000
  W   W2        1.0  0.48500  0.18300  0.25100  1.0000
  W   W3        1.0  0.51500  0.81700  0.74900  1.0000
  W   W4        1.0  0.98500  0.81700  0.75100  1.0000
