data_image0
_chemical_formula_structural       As4Ce4O16
_chemical_formula_sum              "As4 Ce4 O16"
_cell_length_a       6.9863
_cell_length_b       7.18746
_cell_length_c       6.75752
_cell_angle_alpha    90
_cell_angle_beta     104.694
_cell_angle_gamma    90

_space_group_name_H-M_alt    "P 1"
_space_group_IT_number       1

loop_
  _space_group_symop_operation_xyz
  'x, y, z'

loop_
  _atom_site_type_symbol
  _atom_site_label
  _atom_site_symmetry_multiplicity
  _atom_site_fract_x
  _atom_site_fract_y
  _atom_site_fract_z
  _atom_site_occupancy
  As  As1       1.0  0.80300  0.83700  0.11400  1.0000
  As  As2       1.0  0.69700  0.33700  0.38600  1.0000
  As  As3       1.0  0.30300  0.66300  0.61400  1.0000
  As  As4       1.0  0.19700  0.16300  0.88600  1.0000
  Ce  Ce1       1.0  0.28000  0.65400  0.09930  1.0000
  Ce  Ce2       1.0  0.22000  0.15400  0.40100  1.0000
  Ce  Ce3       1.0  0.78000  0.84600  0.59900  1.0000
  Ce  Ce4       1.0  0.72000  0.34600  0.90100  1.0000
  O   O1        1.0  0.10800  0.34300  0.00467  1.0000
  O   O2        1.0  0.24900  0.99600  0.07220  1.0000
  O   O3        1.0  0.51500  0.39000  0.17000  1.0000
  O   O4        1.0  0.61600  0.78600  0.22500  1.0000
  O   O5        1.0  0.88400  0.28600  0.27500  1.0000
  O   O6        1.0  0.98500  0.89000  0.33000  1.0000
  O   O7        1.0  0.25100  0.49600  0.42800  1.0000
  O   O8        1.0  0.39200  0.84300  0.49500  1.0000
  O   O9        1.0  0.60800  0.15700  0.50500  1.0000
  O   O10       1.0  0.74900  0.50400  0.57200  1.0000
  O   O11       1.0  0.01510  0.11000  0.67000  1.0000
  O   O12       1.0  0.11600  0.71400  0.72500  1.0000
  O   O13       1.0  0.38400  0.21400  0.77500  1.0000
  O   O14       1.0  0.48500  0.61000  0.83000  1.0000
  O   O15       1.0  0.75100  0.00373  0.92800  1.0000
  O   O16       1.0  0.89200  0.65700  0.99500  1.0000
