data_image0
_chemical_formula_structural       Co2Ga6Pr16
_chemical_formula_sum              "Co2 Ga6 Pr16"
_cell_length_a       10.5688
_cell_length_b       10.5687
_cell_length_c       7.0156
_cell_angle_alpha    90
_cell_angle_beta     90
_cell_angle_gamma    120

_space_group_name_H-M_alt    "P 1"
_space_group_IT_number       1

loop_
  _space_group_symop_operation_xyz
  'x, y, z'

loop_
  _atom_site_type_symbol
  _atom_site_label
  _atom_site_symmetry_multiplicity
  _atom_site_fract_x
  _atom_site_fract_y
  _atom_site_fract_z
  _atom_site_occupancy
  Co  Co1       1.0  0.33300  0.66700  0.05900  1.0000
  Co  Co2       1.0  0.66700  0.33300  0.55900  1.0000
  Ga  Ga1       1.0  0.83500  0.67100  0.03360  1.0000
  Ga  Ga2       1.0  0.32900  0.16500  0.03360  1.0000
  Ga  Ga3       1.0  0.83500  0.16500  0.03360  1.0000
  Ga  Ga4       1.0  0.16500  0.32900  0.53400  1.0000
  Ga  Ga5       1.0  0.16500  0.83500  0.53400  1.0000
  Ga  Ga6       1.0  0.67100  0.83500  0.53400  1.0000
  Pr  Pr1       1.0  0.66700  0.33300  0.17800  1.0000
  Pr  Pr2       1.0  0.00000  0.00000  0.27700  1.0000
  Pr  Pr3       1.0  0.46200  0.92400  0.29000  1.0000
  Pr  Pr4       1.0  0.07610  0.53800  0.29000  1.0000
  Pr  Pr5       1.0  0.46200  0.53800  0.29000  1.0000
  Pr  Pr6       1.0  0.34000  0.17000  0.49200  1.0000
  Pr  Pr7       1.0  0.83000  0.17000  0.49200  1.0000
  Pr  Pr8       1.0  0.83000  0.66000  0.49200  1.0000
  Pr  Pr9       1.0  0.33300  0.66700  0.67800  1.0000
  Pr  Pr10      1.0  0.00000  0.00000  0.77700  1.0000
  Pr  Pr11      1.0  0.53800  0.07610  0.79000  1.0000
  Pr  Pr12      1.0  0.53800  0.46200  0.79000  1.0000
  Pr  Pr13      1.0  0.92400  0.46200  0.79000  1.0000
  Pr  Pr14      1.0  0.17000  0.83000  0.99200  1.0000
  Pr  Pr15      1.0  0.66000  0.83000  0.99200  1.0000
  Pr  Pr16      1.0  0.17000  0.34000  0.99200  1.0000
