data_image0
_chemical_formula_structural       Al4K4Sb16
_chemical_formula_sum              "Al4 K4 Sb16"
_cell_length_a       10.5304
_cell_length_b       4.27585
_cell_length_c       18.2804
_cell_angle_alpha    90
_cell_angle_beta     90
_cell_angle_gamma    90

_space_group_name_H-M_alt    "P 1"
_space_group_IT_number       1

loop_
  _space_group_symop_operation_xyz
  'x, y, z'

loop_
  _atom_site_type_symbol
  _atom_site_label
  _atom_site_symmetry_multiplicity
  _atom_site_fract_x
  _atom_site_fract_y
  _atom_site_fract_z
  _atom_site_occupancy
  Al  Al1       1.0  0.81900  0.75000  0.13200  1.0000
  Al  Al2       1.0  0.31900  0.75000  0.36800  1.0000
  Al  Al3       1.0  0.68100  0.25000  0.63200  1.0000
  Al  Al4       1.0  0.18100  0.25000  0.86800  1.0000
  K   K1        1.0  0.32400  0.25000  0.06570  1.0000
  K   K2        1.0  0.82400  0.25000  0.43400  1.0000
  K   K3        1.0  0.17600  0.75000  0.56600  1.0000
  K   K4        1.0  0.67600  0.75000  0.93400  1.0000
  Sb  Sb1       1.0  0.03600  0.75000  0.04960  1.0000
  Sb  Sb2       1.0  0.67100  0.25000  0.10100  1.0000
  Sb  Sb3       1.0  0.38700  0.75000  0.22600  1.0000
  Sb  Sb4       1.0  0.57000  0.25000  0.24700  1.0000
  Sb  Sb5       1.0  0.07030  0.25000  0.25300  1.0000
  Sb  Sb6       1.0  0.88700  0.75000  0.27400  1.0000
  Sb  Sb7       1.0  0.17100  0.25000  0.39900  1.0000
  Sb  Sb8       1.0  0.53600  0.75000  0.45000  1.0000
  Sb  Sb9       1.0  0.46400  0.25000  0.55000  1.0000
  Sb  Sb10      1.0  0.82900  0.75000  0.60100  1.0000
  Sb  Sb11      1.0  0.11300  0.25000  0.72600  1.0000
  Sb  Sb12      1.0  0.93000  0.75000  0.74700  1.0000
  Sb  Sb13      1.0  0.43000  0.75000  0.75300  1.0000
  Sb  Sb14      1.0  0.61300  0.25000  0.77400  1.0000
  Sb  Sb15      1.0  0.32900  0.75000  0.89900  1.0000
  Sb  Sb16      1.0  0.96400  0.25000  0.95000  1.0000
