data_image0
_chemical_formula_structural       La8Mn2O2S12
_chemical_formula_sum              "La8 Mn2 O2 S12"
_cell_length_a       9.51891
_cell_length_b       9.51916
_cell_length_c       6.8389
_cell_angle_alpha    90
_cell_angle_beta     90
_cell_angle_gamma    119.999

_space_group_name_H-M_alt    "P 1"
_space_group_IT_number       1

loop_
  _space_group_symop_operation_xyz
  'x, y, z'

loop_
  _atom_site_type_symbol
  _atom_site_label
  _atom_site_symmetry_multiplicity
  _atom_site_fract_x
  _atom_site_fract_y
  _atom_site_fract_z
  _atom_site_occupancy
  La  La1       1.0  0.80200  0.60500  0.18300  1.0000
  La  La2       1.0  0.39500  0.19800  0.18300  1.0000
  La  La3       1.0  0.80200  0.19800  0.18300  1.0000
  La  La4       1.0  0.33300  0.66700  0.21400  1.0000
  La  La5       1.0  0.19800  0.39500  0.68300  1.0000
  La  La6       1.0  0.19800  0.80200  0.68300  1.0000
  La  La7       1.0  0.60500  0.80200  0.68300  1.0000
  La  La8       1.0  0.66700  0.33300  0.71400  1.0000
  Mn  Mn1       1.0  0.00000  0.00000  0.00508  1.0000
  Mn  Mn2       1.0  0.00000  0.00000  0.50500  1.0000
  O   O1        1.0  0.66700  0.33300  0.05940  1.0000
  O   O2        1.0  0.33300  0.66700  0.55900  1.0000
  S   S1        1.0  0.12400  0.24800  0.28100  1.0000
  S   S2        1.0  0.12400  0.87600  0.28100  1.0000
  S   S3        1.0  0.75200  0.87600  0.28100  1.0000
  S   S4        1.0  0.53100  0.46900  0.45900  1.0000
  S   S5        1.0  0.93700  0.46900  0.45900  1.0000
  S   S6        1.0  0.53100  0.06270  0.45900  1.0000
  S   S7        1.0  0.87600  0.75200  0.78100  1.0000
  S   S8        1.0  0.24800  0.12400  0.78100  1.0000
  S   S9        1.0  0.87600  0.12400  0.78100  1.0000
  S   S10       1.0  0.06270  0.53100  0.95900  1.0000
  S   S11       1.0  0.46900  0.53100  0.95900  1.0000
  S   S12       1.0  0.46900  0.93700  0.95900  1.0000
