data_image0
_chemical_formula_structural       Fe2Li2Mo4O16
_chemical_formula_sum              "Fe2 Li2 Mo4 O16"
_cell_length_a       6.7386
_cell_length_b       7.16648
_cell_length_c       7.1582
_cell_angle_alpha    90.7813
_cell_angle_beta     110.251
_cell_angle_gamma    105.626

_space_group_name_H-M_alt    "P 1"
_space_group_IT_number       1

loop_
  _space_group_symop_operation_xyz
  'x, y, z'

loop_
  _atom_site_type_symbol
  _atom_site_label
  _atom_site_symmetry_multiplicity
  _atom_site_fract_x
  _atom_site_fract_y
  _atom_site_fract_z
  _atom_site_occupancy
  Fe  Fe1       1.0  0.39900  0.10000  0.31800  1.0000
  Fe  Fe2       1.0  0.60100  0.90000  0.68200  1.0000
  Li  Li1       1.0  0.77100  0.44700  0.26200  1.0000
  Li  Li2       1.0  0.22900  0.55300  0.73800  1.0000
  Mo  Mo1       1.0  0.82300  0.96200  0.22800  1.0000
  Mo  Mo2       1.0  0.33000  0.57300  0.28500  1.0000
  Mo  Mo3       1.0  0.67000  0.42700  0.71500  1.0000
  Mo  Mo4       1.0  0.17700  0.03760  0.77200  1.0000
  O   O1        1.0  0.24400  0.56700  0.02670  1.0000
  O   O2        1.0  0.22200  0.04350  0.03210  1.0000
  O   O3        1.0  0.70800  0.71900  0.26100  1.0000
  O   O4        1.0  0.68300  0.13200  0.26800  1.0000
  O   O5        1.0  0.09170  0.47800  0.33800  1.0000
  O   O6        1.0  0.48200  0.38400  0.34600  1.0000
  O   O7        1.0  0.11800  0.04720  0.36900  1.0000
  O   O8        1.0  0.41400  0.83900  0.38200  1.0000
  O   O9        1.0  0.58600  0.16100  0.61800  1.0000
  O   O10       1.0  0.88200  0.95300  0.63100  1.0000
  O   O11       1.0  0.51800  0.61600  0.65400  1.0000
  O   O12       1.0  0.90800  0.52200  0.66200  1.0000
  O   O13       1.0  0.31700  0.86800  0.73200  1.0000
  O   O14       1.0  0.29200  0.28100  0.73900  1.0000
  O   O15       1.0  0.77800  0.95700  0.96800  1.0000
  O   O16       1.0  0.75600  0.43300  0.97300  1.0000
