data_image0
_chemical_formula_structural       Na8Se12Sn4
_chemical_formula_sum              "Na8 Se12 Sn4"
_cell_length_a       7.25245
_cell_length_b       16.3374
_cell_length_c       6.17616
_cell_angle_alpha    90
_cell_angle_beta     112.649
_cell_angle_gamma    90

_space_group_name_H-M_alt    "P 1"
_space_group_IT_number       1

loop_
  _space_group_symop_operation_xyz
  'x, y, z'

loop_
  _atom_site_type_symbol
  _atom_site_label
  _atom_site_symmetry_multiplicity
  _atom_site_fract_x
  _atom_site_fract_y
  _atom_site_fract_z
  _atom_site_occupancy
  Na  Na1       1.0  0.55000  0.83400  0.01270  1.0000
  Na  Na2       1.0  0.76400  0.47500  0.17500  1.0000
  Na  Na3       1.0  0.23600  0.97500  0.32500  1.0000
  Na  Na4       1.0  0.45000  0.33400  0.48700  1.0000
  Na  Na5       1.0  0.55000  0.66600  0.51300  1.0000
  Na  Na6       1.0  0.76400  0.02450  0.67500  1.0000
  Na  Na7       1.0  0.23600  0.52500  0.82500  1.0000
  Na  Na8       1.0  0.45000  0.16600  0.98700  1.0000
  Se  Se1       1.0  0.58900  0.64500  0.03470  1.0000
  Se  Se2       1.0  0.80000  0.05210  0.17600  1.0000
  Se  Se3       1.0  0.01820  0.81800  0.24400  1.0000
  Se  Se4       1.0  0.98200  0.31800  0.25600  1.0000
  Se  Se5       1.0  0.20000  0.55200  0.32400  1.0000
  Se  Se6       1.0  0.41100  0.14500  0.46500  1.0000
  Se  Se7       1.0  0.58900  0.85500  0.53500  1.0000
  Se  Se8       1.0  0.80000  0.44800  0.67600  1.0000
  Se  Se9       1.0  0.01820  0.68200  0.74400  1.0000
  Se  Se10      1.0  0.98200  0.18200  0.75600  1.0000
  Se  Se11      1.0  0.20000  0.94800  0.82400  1.0000
  Se  Se12      1.0  0.41100  0.35500  0.96500  1.0000
  Sn  Sn1       1.0  0.95700  0.66500  0.13300  1.0000
  Sn  Sn2       1.0  0.04310  0.16500  0.36700  1.0000
  Sn  Sn3       1.0  0.95700  0.83500  0.63300  1.0000
  Sn  Sn4       1.0  0.04310  0.33500  0.86700  1.0000
