data_image0
_chemical_formula_structural       Cu2Ge2Se14Tb6
_chemical_formula_sum              "Cu2 Ge2 Se14 Tb6"
_cell_length_a       10.3757
_cell_length_b       10.3759
_cell_length_c       6.11102
_cell_angle_alpha    90
_cell_angle_beta     90
_cell_angle_gamma    120.001

_space_group_name_H-M_alt    "P 1"
_space_group_IT_number       1

loop_
  _space_group_symop_operation_xyz
  'x, y, z'

loop_
  _atom_site_type_symbol
  _atom_site_label
  _atom_site_symmetry_multiplicity
  _atom_site_fract_x
  _atom_site_fract_y
  _atom_site_fract_z
  _atom_site_occupancy
  Cu  Cu1       1.0  0.00000  0.00000  0.20800  1.0000
  Cu  Cu2       1.0  0.00000  0.00000  0.70800  1.0000
  Ge  Ge1       1.0  0.33300  0.66700  0.33900  1.0000
  Ge  Ge2       1.0  0.66700  0.33300  0.83900  1.0000
  Se  Se1       1.0  0.51700  0.09330  0.00590  1.0000
  Se  Se2       1.0  0.57600  0.48300  0.00590  1.0000
  Se  Se3       1.0  0.90700  0.42400  0.00591  1.0000
  Se  Se4       1.0  0.73800  0.84000  0.22400  1.0000
  Se  Se5       1.0  0.10100  0.26200  0.22400  1.0000
  Se  Se6       1.0  0.16000  0.89900  0.22400  1.0000
  Se  Se7       1.0  0.66700  0.33300  0.45300  1.0000
  Se  Se8       1.0  0.48300  0.90700  0.50600  1.0000
  Se  Se9       1.0  0.42400  0.51700  0.50600  1.0000
  Se  Se10      1.0  0.09330  0.57600  0.50600  1.0000
  Se  Se11      1.0  0.26200  0.16000  0.72400  1.0000
  Se  Se12      1.0  0.89900  0.73800  0.72400  1.0000
  Se  Se13      1.0  0.84000  0.10100  0.72400  1.0000
  Se  Se14      1.0  0.33300  0.66700  0.95300  1.0000
  Tb  Tb1       1.0  0.35600  0.22100  0.25600  1.0000
  Tb  Tb2       1.0  0.77900  0.13500  0.25600  1.0000
  Tb  Tb3       1.0  0.86500  0.64400  0.25600  1.0000
  Tb  Tb4       1.0  0.64400  0.77900  0.75600  1.0000
  Tb  Tb5       1.0  0.13500  0.35600  0.75600  1.0000
  Tb  Tb6       1.0  0.22100  0.86500  0.75600  1.0000
