data_image0
_chemical_formula_structural       S12Te4Tl8
_chemical_formula_sum              "S12 Te4 Tl8"
_cell_length_a       8.41359
_cell_length_b       13.5691
_cell_length_c       6.1262
_cell_angle_alpha    90
_cell_angle_beta     90
_cell_angle_gamma    90

_space_group_name_H-M_alt    "P 1"
_space_group_IT_number       1

loop_
  _space_group_symop_operation_xyz
  'x, y, z'

loop_
  _atom_site_type_symbol
  _atom_site_label
  _atom_site_symmetry_multiplicity
  _atom_site_fract_x
  _atom_site_fract_y
  _atom_site_fract_z
  _atom_site_occupancy
  S   S1        1.0  0.57800  0.75000  0.16100  1.0000
  S   S2        1.0  0.06790  0.11000  0.18800  1.0000
  S   S3        1.0  0.06790  0.39000  0.18800  1.0000
  S   S4        1.0  0.56800  0.11000  0.31200  1.0000
  S   S5        1.0  0.56800  0.39000  0.31200  1.0000
  S   S6        1.0  0.07790  0.75000  0.33900  1.0000
  S   S7        1.0  0.92200  0.25000  0.66100  1.0000
  S   S8        1.0  0.43200  0.61000  0.68800  1.0000
  S   S9        1.0  0.43200  0.89000  0.68800  1.0000
  S   S10       1.0  0.93200  0.61000  0.81200  1.0000
  S   S11       1.0  0.93200  0.89000  0.81200  1.0000
  S   S12       1.0  0.42200  0.25000  0.83900  1.0000
  Te  Te1       1.0  0.40200  0.25000  0.23100  1.0000
  Te  Te2       1.0  0.90200  0.25000  0.26900  1.0000
  Te  Te3       1.0  0.09770  0.75000  0.73100  1.0000
  Te  Te4       1.0  0.59800  0.75000  0.76900  1.0000
  Tl  Tl1       1.0  0.33200  0.58000  0.20800  1.0000
  Tl  Tl2       1.0  0.33200  0.92000  0.20800  1.0000
  Tl  Tl3       1.0  0.83200  0.58000  0.29200  1.0000
  Tl  Tl4       1.0  0.83200  0.92000  0.29200  1.0000
  Tl  Tl5       1.0  0.16800  0.08030  0.70800  1.0000
  Tl  Tl6       1.0  0.16800  0.42000  0.70800  1.0000
  Tl  Tl7       1.0  0.66800  0.08030  0.79200  1.0000
  Tl  Tl8       1.0  0.66800  0.42000  0.79200  1.0000
