data_image0
_chemical_formula_structural       Dy2Li2O16W4
_chemical_formula_sum              "Dy2 Li2 O16 W4"
_cell_length_a       9.99815
_cell_length_b       5.75369
_cell_length_c       4.99105
_cell_angle_alpha    90
_cell_angle_beta     94.7081
_cell_angle_gamma    90

_space_group_name_H-M_alt    "P 1"
_space_group_IT_number       1

loop_
  _space_group_symop_operation_xyz
  'x, y, z'

loop_
  _atom_site_type_symbol
  _atom_site_label
  _atom_site_symmetry_multiplicity
  _atom_site_fract_x
  _atom_site_fract_y
  _atom_site_fract_z
  _atom_site_occupancy
  Dy  Dy1       1.0  0.25000  0.70300  0.25000  1.0000
  Dy  Dy2       1.0  0.75000  0.29700  0.75000  1.0000
  Li  Li1       1.0  0.75000  0.74000  0.25000  1.0000
  Li  Li2       1.0  0.25000  0.26000  0.75000  1.0000
  O   O1        1.0  0.88300  0.92200  0.02640  1.0000
  O   O2        1.0  0.40600  0.88900  0.04660  1.0000
  O   O3        1.0  0.36000  0.37600  0.08480  1.0000
  O   O4        1.0  0.89400  0.38400  0.10300  1.0000
  O   O5        1.0  0.60600  0.38400  0.39700  1.0000
  O   O6        1.0  0.14000  0.37600  0.41500  1.0000
  O   O7        1.0  0.09430  0.88900  0.45300  1.0000
  O   O8        1.0  0.61700  0.92200  0.47400  1.0000
  O   O9        1.0  0.38300  0.07780  0.52600  1.0000
  O   O10       1.0  0.90600  0.11100  0.54700  1.0000
  O   O11       1.0  0.86000  0.62400  0.58500  1.0000
  O   O12       1.0  0.39400  0.61600  0.60300  1.0000
  O   O13       1.0  0.10600  0.61600  0.89700  1.0000
  O   O14       1.0  0.64000  0.62400  0.91500  1.0000
  O   O15       1.0  0.59400  0.11100  0.95300  1.0000
  O   O16       1.0  0.11700  0.07780  0.97400  1.0000
  W   W1        1.0  0.48200  0.18500  0.24900  1.0000
  W   W2        1.0  0.01770  0.18500  0.25100  1.0000
  W   W3        1.0  0.98200  0.81500  0.74900  1.0000
  W   W4        1.0  0.51800  0.81500  0.75100  1.0000
