data_image0
_chemical_formula_structural       Co4O16P4
_chemical_formula_sum              "Co4 O16 P4"
_cell_length_a       9.53839
_cell_length_b       5.74123
_cell_length_c       4.75996
_cell_angle_alpha    90
_cell_angle_beta     90
_cell_angle_gamma    90

_space_group_name_H-M_alt    "P 1"
_space_group_IT_number       1

loop_
  _space_group_symop_operation_xyz
  'x, y, z'

loop_
  _atom_site_type_symbol
  _atom_site_label
  _atom_site_symmetry_multiplicity
  _atom_site_fract_x
  _atom_site_fract_y
  _atom_site_fract_z
  _atom_site_occupancy
  Co  Co1       1.0  0.73400  0.75000  0.05440  1.0000
  Co  Co2       1.0  0.23400  0.75000  0.44600  1.0000
  Co  Co3       1.0  0.76600  0.25000  0.55400  1.0000
  Co  Co4       1.0  0.26600  0.25000  0.94600  1.0000
  O   O1        1.0  0.42900  0.25000  0.16600  1.0000
  O   O2        1.0  0.38300  0.75000  0.19800  1.0000
  O   O3        1.0  0.15800  0.03880  0.22900  1.0000
  O   O4        1.0  0.15800  0.46100  0.22900  1.0000
  O   O5        1.0  0.65800  0.03880  0.27100  1.0000
  O   O6        1.0  0.65800  0.46100  0.27100  1.0000
  O   O7        1.0  0.88300  0.75000  0.30200  1.0000
  O   O8        1.0  0.92900  0.25000  0.33400  1.0000
  O   O9        1.0  0.07090  0.75000  0.66600  1.0000
  O   O10       1.0  0.11700  0.25000  0.69800  1.0000
  O   O11       1.0  0.34200  0.53900  0.72900  1.0000
  O   O12       1.0  0.34200  0.96100  0.72900  1.0000
  O   O13       1.0  0.84200  0.53900  0.77100  1.0000
  O   O14       1.0  0.84200  0.96100  0.77100  1.0000
  O   O15       1.0  0.61700  0.25000  0.80200  1.0000
  O   O16       1.0  0.57100  0.75000  0.83400  1.0000
  P   P1        1.0  0.58800  0.25000  0.11900  1.0000
  P   P2        1.0  0.08820  0.25000  0.38100  1.0000
  P   P3        1.0  0.91200  0.75000  0.61900  1.0000
  P   P4        1.0  0.41200  0.75000  0.88100  1.0000
