data_image0
_chemical_formula_structural       F12O8Os2Xe2
_chemical_formula_sum              "F12 O8 Os2 Xe2"
_cell_length_a       4.84523
_cell_length_b       7.40657
_cell_length_c       8.80467
_cell_angle_alpha    81.1462
_cell_angle_beta     83.1381
_cell_angle_gamma    88.7502

_space_group_name_H-M_alt    "P 1"
_space_group_IT_number       1

loop_
  _space_group_symop_operation_xyz
  'x, y, z'

loop_
  _atom_site_type_symbol
  _atom_site_label
  _atom_site_symmetry_multiplicity
  _atom_site_fract_x
  _atom_site_fract_y
  _atom_site_fract_z
  _atom_site_occupancy
  F   F1        1.0  0.55300  0.66800  0.05070  1.0000
  F   F2        1.0  0.90200  0.38400  0.12000  1.0000
  F   F3        1.0  0.19800  0.08120  0.21400  1.0000
  F   F4        1.0  0.28600  0.44800  0.30500  1.0000
  F   F5        1.0  0.65100  0.12600  0.37700  1.0000
  F   F6        1.0  0.80100  0.48300  0.42700  1.0000
  F   F7        1.0  0.19900  0.51700  0.57300  1.0000
  F   F8        1.0  0.34900  0.87400  0.62300  1.0000
  F   F9        1.0  0.71400  0.55200  0.69500  1.0000
  F   F10       1.0  0.80200  0.91900  0.78600  1.0000
  F   F11       1.0  0.09780  0.61600  0.88000  1.0000
  F   F12       1.0  0.44700  0.33200  0.94900  1.0000
  O   O1        1.0  0.74000  0.03320  0.08110  1.0000
  O   O2        1.0  0.00673  0.73800  0.18300  1.0000
  O   O3        1.0  0.44500  0.77400  0.34000  1.0000
  O   O4        1.0  0.92500  0.81400  0.47200  1.0000
  O   O5        1.0  0.07490  0.18600  0.52800  1.0000
  O   O6        1.0  0.55500  0.22600  0.66000  1.0000
  O   O7        1.0  0.99300  0.26200  0.81700  1.0000
  O   O8        1.0  0.26000  0.96700  0.91900  1.0000
  Os  Os1       1.0  0.12300  0.68000  0.36000  1.0000
  Os  Os2       1.0  0.87700  0.32000  0.64000  1.0000
  Xe  Xe1       1.0  0.56100  0.22300  0.16000  1.0000
  Xe  Xe2       1.0  0.43900  0.77700  0.84000  1.0000
