data_image0
_chemical_formula_structural       B8Cu2O14
_chemical_formula_sum              "B8 Cu2 O14"
_cell_length_a       5.09978
_cell_length_b       6.28451
_cell_length_c       6.28451
_cell_angle_alpha    61.7962
_cell_angle_beta     90
_cell_angle_gamma    90

_space_group_name_H-M_alt    "P 1"
_space_group_IT_number       1

loop_
  _space_group_symop_operation_xyz
  'x, y, z'

loop_
  _atom_site_type_symbol
  _atom_site_label
  _atom_site_symmetry_multiplicity
  _atom_site_fract_x
  _atom_site_fract_y
  _atom_site_fract_z
  _atom_site_occupancy
  B   B1        1.0  0.25000  0.70300  0.07060  1.0000
  B   B2        1.0  0.00000  0.29700  0.29700  1.0000
  B   B3        1.0  0.50000  0.29700  0.29700  1.0000
  B   B4        1.0  0.25000  0.92900  0.29700  1.0000
  B   B5        1.0  0.75000  0.07060  0.70300  1.0000
  B   B6        1.0  0.00000  0.70300  0.70300  1.0000
  B   B7        1.0  0.50000  0.70300  0.70300  1.0000
  B   B8        1.0  0.75000  0.29700  0.92900  1.0000
  Cu  Cu1       1.0  0.75000  0.72200  0.27800  1.0000
  Cu  Cu2       1.0  0.25000  0.27800  0.72200  1.0000
  O   O1        1.0  0.25000  0.92800  0.07170  1.0000
  O   O2        1.0  0.02090  0.55800  0.19000  1.0000
  O   O3        1.0  0.47900  0.55800  0.19000  1.0000
  O   O4        1.0  0.75000  0.24200  0.19900  1.0000
  O   O5        1.0  0.25000  0.19900  0.24200  1.0000
  O   O6        1.0  0.02090  0.81000  0.44200  1.0000
  O   O7        1.0  0.47900  0.81000  0.44200  1.0000
  O   O8        1.0  0.52100  0.19000  0.55800  1.0000
  O   O9        1.0  0.97900  0.19000  0.55800  1.0000
  O   O10       1.0  0.75000  0.80100  0.75800  1.0000
  O   O11       1.0  0.25000  0.75800  0.80100  1.0000
  O   O12       1.0  0.52100  0.44200  0.81000  1.0000
  O   O13       1.0  0.97900  0.44200  0.81000  1.0000
  O   O14       1.0  0.75000  0.07170  0.92800  1.0000
