data_image0
_chemical_formula_structural       Ag4Cl12Rb8
_chemical_formula_sum              "Ag4 Cl12 Rb8"
_cell_length_a       9.26648
_cell_length_b       4.50729
_cell_length_c       17.9866
_cell_angle_alpha    90
_cell_angle_beta     90
_cell_angle_gamma    90

_space_group_name_H-M_alt    "P 1"
_space_group_IT_number       1

loop_
  _space_group_symop_operation_xyz
  'x, y, z'

loop_
  _atom_site_type_symbol
  _atom_site_label
  _atom_site_symmetry_multiplicity
  _atom_site_fract_x
  _atom_site_fract_y
  _atom_site_fract_z
  _atom_site_occupancy
  Ag  Ag1       1.0  0.12100  0.75000  0.13100  1.0000
  Ag  Ag2       1.0  0.62100  0.75000  0.36900  1.0000
  Ag  Ag3       1.0  0.37900  0.25000  0.63100  1.0000
  Ag  Ag4       1.0  0.87900  0.25000  0.86900  1.0000
  Cl  Cl1       1.0  0.37900  0.75000  0.07260  1.0000
  Cl  Cl2       1.0  0.99300  0.25000  0.09740  1.0000
  Cl  Cl3       1.0  0.68500  0.75000  0.22700  1.0000
  Cl  Cl4       1.0  0.18500  0.75000  0.27300  1.0000
  Cl  Cl5       1.0  0.49300  0.25000  0.40300  1.0000
  Cl  Cl6       1.0  0.87900  0.75000  0.42700  1.0000
  Cl  Cl7       1.0  0.12100  0.25000  0.57300  1.0000
  Cl  Cl8       1.0  0.50700  0.75000  0.59700  1.0000
  Cl  Cl9       1.0  0.81500  0.25000  0.72700  1.0000
  Cl  Cl10      1.0  0.31500  0.25000  0.77300  1.0000
  Cl  Cl11      1.0  0.00690  0.75000  0.90300  1.0000
  Cl  Cl12      1.0  0.62100  0.25000  0.92700  1.0000
  Rb  Rb1       1.0  0.73900  0.75000  0.04380  1.0000
  Rb  Rb2       1.0  0.42100  0.25000  0.21300  1.0000
  Rb  Rb3       1.0  0.92100  0.25000  0.28700  1.0000
  Rb  Rb4       1.0  0.23900  0.75000  0.45600  1.0000
  Rb  Rb5       1.0  0.76100  0.25000  0.54400  1.0000
  Rb  Rb6       1.0  0.07850  0.75000  0.71300  1.0000
  Rb  Rb7       1.0  0.57900  0.75000  0.78700  1.0000
  Rb  Rb8       1.0  0.26100  0.25000  0.95600  1.0000
