data_image0
_chemical_formula_structural       As4Eu4Rb4S12
_chemical_formula_sum              "As4 Eu4 Rb4 S12"
_cell_length_a       9.26749
_cell_length_b       8.28893
_cell_length_c       8.72587
_cell_angle_alpha    90
_cell_angle_beta     104.345
_cell_angle_gamma    90

_space_group_name_H-M_alt    "P 1"
_space_group_IT_number       1

loop_
  _space_group_symop_operation_xyz
  'x, y, z'

loop_
  _atom_site_type_symbol
  _atom_site_label
  _atom_site_symmetry_multiplicity
  _atom_site_fract_x
  _atom_site_fract_y
  _atom_site_fract_z
  _atom_site_occupancy
  As  As1       1.0  0.27900  0.04950  0.15000  1.0000
  As  As2       1.0  0.72100  0.54900  0.35000  1.0000
  As  As3       1.0  0.27900  0.45100  0.65000  1.0000
  As  As4       1.0  0.72100  0.95100  0.85000  1.0000
  Eu  Eu1       1.0  0.56400  0.28500  0.02820  1.0000
  Eu  Eu2       1.0  0.43600  0.78500  0.47200  1.0000
  Eu  Eu3       1.0  0.56400  0.21500  0.52800  1.0000
  Eu  Eu4       1.0  0.43600  0.71500  0.97200  1.0000
  Rb  Rb1       1.0  0.09080  0.43000  0.23000  1.0000
  Rb  Rb2       1.0  0.90900  0.93000  0.27000  1.0000
  Rb  Rb3       1.0  0.09080  0.07030  0.73000  1.0000
  Rb  Rb4       1.0  0.90900  0.57000  0.77000  1.0000
  S   S1        1.0  0.17300  0.80800  0.07550  1.0000
  S   S2        1.0  0.74400  0.58500  0.10100  1.0000
  S   S3        1.0  0.52900  0.98300  0.21900  1.0000
  S   S4        1.0  0.47100  0.48300  0.28100  1.0000
  S   S5        1.0  0.25600  0.08490  0.39900  1.0000
  S   S6        1.0  0.82700  0.30800  0.42500  1.0000
  S   S7        1.0  0.17300  0.69200  0.57500  1.0000
  S   S8        1.0  0.74400  0.91500  0.60100  1.0000
  S   S9        1.0  0.52900  0.51700  0.71900  1.0000
  S   S10       1.0  0.47100  0.01680  0.78100  1.0000
  S   S11       1.0  0.25600  0.41500  0.89900  1.0000
  S   S12       1.0  0.82700  0.19200  0.92500  1.0000
