data_image0
_chemical_formula_structural       B4Li4S12Sr4
_chemical_formula_sum              "B4 Li4 S12 Sr4"
_cell_length_a       7.58664
_cell_length_b       9.15026
_cell_length_c       7.1011
_cell_angle_alpha    90
_cell_angle_beta     90
_cell_angle_gamma    90

_space_group_name_H-M_alt    "P 1"
_space_group_IT_number       1

loop_
  _space_group_symop_operation_xyz
  'x, y, z'

loop_
  _atom_site_type_symbol
  _atom_site_label
  _atom_site_symmetry_multiplicity
  _atom_site_fract_x
  _atom_site_fract_y
  _atom_site_fract_z
  _atom_site_occupancy
  B   B1        1.0  0.71400  0.25000  0.03810  1.0000
  B   B2        1.0  0.21400  0.25000  0.46200  1.0000
  B   B3        1.0  0.78600  0.75000  0.53800  1.0000
  B   B4        1.0  0.28600  0.75000  0.96200  1.0000
  Li  Li1       1.0  0.50000  0.00000  0.00000  1.0000
  Li  Li2       1.0  0.50000  0.50000  0.00000  1.0000
  Li  Li3       1.0  0.00000  0.00000  0.50000  1.0000
  Li  Li4       1.0  0.00000  0.50000  0.50000  1.0000
  S   S1        1.0  0.47600  0.75000  0.12200  1.0000
  S   S2        1.0  0.80400  0.07960  0.13100  1.0000
  S   S3        1.0  0.80400  0.42000  0.13100  1.0000
  S   S4        1.0  0.30400  0.07960  0.36900  1.0000
  S   S5        1.0  0.30400  0.42000  0.36900  1.0000
  S   S6        1.0  0.97600  0.75000  0.37800  1.0000
  S   S7        1.0  0.02390  0.25000  0.62200  1.0000
  S   S8        1.0  0.69600  0.58000  0.63100  1.0000
  S   S9        1.0  0.69600  0.92000  0.63100  1.0000
  S   S10       1.0  0.19600  0.58000  0.86900  1.0000
  S   S11       1.0  0.19600  0.92000  0.86900  1.0000
  S   S12       1.0  0.52400  0.25000  0.87800  1.0000
  Sr  Sr1       1.0  0.14300  0.25000  0.02810  1.0000
  Sr  Sr2       1.0  0.64300  0.25000  0.47200  1.0000
  Sr  Sr3       1.0  0.35700  0.75000  0.52800  1.0000
  Sr  Sr4       1.0  0.85700  0.75000  0.97200  1.0000
