data_image0
_chemical_formula_structural       B4F16Tl4
_chemical_formula_sum              "B4 F16 Tl4"
_cell_length_a       8.78518
_cell_length_b       5.39319
_cell_length_c       7.02803
_cell_angle_alpha    90
_cell_angle_beta     90
_cell_angle_gamma    90

_space_group_name_H-M_alt    "P 1"
_space_group_IT_number       1

loop_
  _space_group_symop_operation_xyz
  'x, y, z'

loop_
  _atom_site_type_symbol
  _atom_site_label
  _atom_site_symmetry_multiplicity
  _atom_site_fract_x
  _atom_site_fract_y
  _atom_site_fract_z
  _atom_site_occupancy
  B   B1        1.0  0.43800  0.75000  0.19300  1.0000
  B   B2        1.0  0.93800  0.75000  0.30700  1.0000
  B   B3        1.0  0.06170  0.25000  0.69300  1.0000
  B   B4        1.0  0.56200  0.25000  0.80700  1.0000
  F   F1        1.0  0.32000  0.75000  0.05770  1.0000
  F   F2        1.0  0.58200  0.75000  0.10600  1.0000
  F   F3        1.0  0.92400  0.53700  0.19000  1.0000
  F   F4        1.0  0.92400  0.96300  0.19000  1.0000
  F   F5        1.0  0.42400  0.53700  0.31000  1.0000
  F   F6        1.0  0.42400  0.96300  0.31000  1.0000
  F   F7        1.0  0.08170  0.75000  0.39400  1.0000
  F   F8        1.0  0.82000  0.75000  0.44200  1.0000
  F   F9        1.0  0.18000  0.25000  0.55800  1.0000
  F   F10       1.0  0.91800  0.25000  0.60600  1.0000
  F   F11       1.0  0.57600  0.03700  0.69000  1.0000
  F   F12       1.0  0.57600  0.46300  0.69000  1.0000
  F   F13       1.0  0.07650  0.03700  0.81000  1.0000
  F   F14       1.0  0.07650  0.46300  0.81000  1.0000
  F   F15       1.0  0.41800  0.25000  0.89400  1.0000
  F   F16       1.0  0.68000  0.25000  0.94200  1.0000
  Tl  Tl1       1.0  0.18500  0.25000  0.16400  1.0000
  Tl  Tl2       1.0  0.68500  0.25000  0.33600  1.0000
  Tl  Tl3       1.0  0.31500  0.75000  0.66400  1.0000
  Tl  Tl4       1.0  0.81500  0.75000  0.83600  1.0000
