data_image0
_chemical_formula_structural       Cu4Gd4S12Sr4
_chemical_formula_sum              "Cu4 Gd4 S12 Sr4"
_cell_length_a       10.3579
_cell_length_b       3.95532
_cell_length_c       13.003
_cell_angle_alpha    90
_cell_angle_beta     90
_cell_angle_gamma    90

_space_group_name_H-M_alt    "P 1"
_space_group_IT_number       1

loop_
  _space_group_symop_operation_xyz
  'x, y, z'

loop_
  _atom_site_type_symbol
  _atom_site_label
  _atom_site_symmetry_multiplicity
  _atom_site_fract_x
  _atom_site_fract_y
  _atom_site_fract_z
  _atom_site_occupancy
  Cu  Cu1       1.0  0.73700  0.25000  0.22200  1.0000
  Cu  Cu2       1.0  0.23700  0.25000  0.27800  1.0000
  Cu  Cu3       1.0  0.76300  0.75000  0.72200  1.0000
  Cu  Cu4       1.0  0.26300  0.75000  0.77800  1.0000
  Gd  Gd1       1.0  0.98600  0.75000  0.24000  1.0000
  Gd  Gd2       1.0  0.48600  0.75000  0.26000  1.0000
  Gd  Gd3       1.0  0.51400  0.25000  0.74000  1.0000
  Gd  Gd4       1.0  0.01420  0.25000  0.76000  1.0000
  S   S1        1.0  0.90900  0.25000  0.10700  1.0000
  S   S2        1.0  0.55300  0.25000  0.11800  1.0000
  S   S3        1.0  0.24000  0.75000  0.17400  1.0000
  S   S4        1.0  0.74000  0.75000  0.32600  1.0000
  S   S5        1.0  0.05270  0.25000  0.38200  1.0000
  S   S6        1.0  0.40900  0.25000  0.39300  1.0000
  S   S7        1.0  0.59100  0.75000  0.60700  1.0000
  S   S8        1.0  0.94700  0.75000  0.61800  1.0000
  S   S9        1.0  0.26000  0.25000  0.67400  1.0000
  S   S10       1.0  0.76000  0.25000  0.82600  1.0000
  S   S11       1.0  0.44700  0.75000  0.88200  1.0000
  S   S12       1.0  0.09130  0.75000  0.89300  1.0000
  Sr  Sr1       1.0  0.27600  0.25000  0.00165  1.0000
  Sr  Sr2       1.0  0.77600  0.25000  0.49800  1.0000
  Sr  Sr3       1.0  0.22400  0.75000  0.50200  1.0000
  Sr  Sr4       1.0  0.72400  0.75000  0.99800  1.0000
