data_image0
_chemical_formula_structural       Cl4In4O12Te4
_chemical_formula_sum              "Cl4 In4 O12 Te4"
_cell_length_a       8.23189
_cell_length_b       6.89419
_cell_length_c       7.12043
_cell_angle_alpha    90
_cell_angle_beta     103.175
_cell_angle_gamma    90

_space_group_name_H-M_alt    "P 1"
_space_group_IT_number       1

loop_
  _space_group_symop_operation_xyz
  'x, y, z'

loop_
  _atom_site_type_symbol
  _atom_site_label
  _atom_site_symmetry_multiplicity
  _atom_site_fract_x
  _atom_site_fract_y
  _atom_site_fract_z
  _atom_site_occupancy
  Cl  Cl1       1.0  0.91200  0.79200  0.11000  1.0000
  Cl  Cl2       1.0  0.08790  0.29200  0.39000  1.0000
  Cl  Cl3       1.0  0.91200  0.70800  0.61000  1.0000
  Cl  Cl4       1.0  0.08790  0.20800  0.89000  1.0000
  In  In1       1.0  0.32200  0.25000  0.20300  1.0000
  In  In2       1.0  0.67800  0.75000  0.29700  1.0000
  In  In3       1.0  0.32200  0.25000  0.70300  1.0000
  In  In4       1.0  0.67800  0.75000  0.79700  1.0000
  O   O1        1.0  0.52600  0.78600  0.00690  1.0000
  O   O2        1.0  0.30700  0.55600  0.15600  1.0000
  O   O3        1.0  0.31100  0.94400  0.24300  1.0000
  O   O4        1.0  0.68900  0.44400  0.25700  1.0000
  O   O5        1.0  0.69300  0.05610  0.34400  1.0000
  O   O6        1.0  0.47400  0.28600  0.49300  1.0000
  O   O7        1.0  0.52600  0.71400  0.50700  1.0000
  O   O8        1.0  0.30700  0.94400  0.65600  1.0000
  O   O9        1.0  0.31100  0.55600  0.74300  1.0000
  O   O10       1.0  0.68900  0.05640  0.75700  1.0000
  O   O11       1.0  0.69300  0.44400  0.84400  1.0000
  O   O12       1.0  0.47400  0.21400  0.99300  1.0000
  Te  Te1       1.0  0.71300  0.26500  0.05660  1.0000
  Te  Te2       1.0  0.28700  0.76500  0.44300  1.0000
  Te  Te3       1.0  0.71300  0.23500  0.55700  1.0000
  Te  Te4       1.0  0.28700  0.73500  0.94300  1.0000
