data_image0
_chemical_formula_structural       Ce8Mn2O2Se12
_chemical_formula_sum              "Ce8 Mn2 O2 Se12"
_cell_length_a       9.82276
_cell_length_b       9.82288
_cell_length_c       7.11621
_cell_angle_alpha    90
_cell_angle_beta     90
_cell_angle_gamma    120

_space_group_name_H-M_alt    "P 1"
_space_group_IT_number       1

loop_
  _space_group_symop_operation_xyz
  'x, y, z'

loop_
  _atom_site_type_symbol
  _atom_site_label
  _atom_site_symmetry_multiplicity
  _atom_site_fract_x
  _atom_site_fract_y
  _atom_site_fract_z
  _atom_site_occupancy
  Ce  Ce1       1.0  0.80000  0.59900  0.16200  1.0000
  Ce  Ce2       1.0  0.40100  0.20000  0.16200  1.0000
  Ce  Ce3       1.0  0.80000  0.20000  0.16200  1.0000
  Ce  Ce4       1.0  0.33300  0.66700  0.20600  1.0000
  Ce  Ce5       1.0  0.20000  0.40100  0.66200  1.0000
  Ce  Ce6       1.0  0.20000  0.80000  0.66200  1.0000
  Ce  Ce7       1.0  0.59900  0.80000  0.66200  1.0000
  Ce  Ce8       1.0  0.66700  0.33300  0.70600  1.0000
  Mn  Mn1       1.0  0.00000  0.00000  0.49300  1.0000
  Mn  Mn2       1.0  0.00000  0.00000  0.99300  1.0000
  O   O1        1.0  0.66700  0.33300  0.04260  1.0000
  O   O2        1.0  0.33300  0.66700  0.54300  1.0000
  Se  Se1       1.0  0.12700  0.87300  0.26400  1.0000
  Se  Se2       1.0  0.74700  0.87300  0.26400  1.0000
  Se  Se3       1.0  0.12700  0.25300  0.26400  1.0000
  Se  Se4       1.0  0.53000  0.47000  0.44500  1.0000
  Se  Se5       1.0  0.94000  0.47000  0.44500  1.0000
  Se  Se6       1.0  0.53000  0.06010  0.44500  1.0000
  Se  Se7       1.0  0.25300  0.12700  0.76400  1.0000
  Se  Se8       1.0  0.87300  0.12700  0.76400  1.0000
  Se  Se9       1.0  0.87300  0.74700  0.76400  1.0000
  Se  Se10      1.0  0.06010  0.53000  0.94500  1.0000
  Se  Se11      1.0  0.47000  0.53000  0.94500  1.0000
  Se  Se12      1.0  0.47000  0.94000  0.94500  1.0000
