data_image0
_chemical_formula_structural       B4Ba4Cl2O12Y2
_chemical_formula_sum              "B4 Ba4 Cl2 O12 Y2"
_cell_length_a       6.43502
_cell_length_b       5.31129
_cell_length_c       11.2579
_cell_angle_alpha    90
_cell_angle_beta     96.509
_cell_angle_gamma    90

_space_group_name_H-M_alt    "P 1"
_space_group_IT_number       1

loop_
  _space_group_symop_operation_xyz
  'x, y, z'

loop_
  _atom_site_type_symbol
  _atom_site_label
  _atom_site_symmetry_multiplicity
  _atom_site_fract_x
  _atom_site_fract_y
  _atom_site_fract_z
  _atom_site_occupancy
  B   B1        1.0  0.37400  0.75000  0.22400  1.0000
  B   B2        1.0  0.78800  0.25000  0.42600  1.0000
  B   B3        1.0  0.21200  0.75000  0.57400  1.0000
  B   B4        1.0  0.62600  0.25000  0.77600  1.0000
  Ba  Ba1       1.0  0.33900  0.25000  0.07260  1.0000
  Ba  Ba2       1.0  0.90500  0.75000  0.29200  1.0000
  Ba  Ba3       1.0  0.09500  0.25000  0.70800  1.0000
  Ba  Ba4       1.0  0.66100  0.75000  0.92700  1.0000
  Cl  Cl1       1.0  0.84900  0.25000  0.08660  1.0000
  Cl  Cl2       1.0  0.15100  0.75000  0.91300  1.0000
  O   O1        1.0  0.52400  0.75000  0.14600  1.0000
  O   O2        1.0  0.28700  0.52800  0.26100  1.0000
  O   O3        1.0  0.28700  0.97200  0.26100  1.0000
  O   O4        1.0  0.99100  0.25000  0.40500  1.0000
  O   O5        1.0  0.67300  0.02940  0.43300  1.0000
  O   O6        1.0  0.67300  0.47100  0.43300  1.0000
  O   O7        1.0  0.32700  0.52900  0.56700  1.0000
  O   O8        1.0  0.32700  0.97100  0.56700  1.0000
  O   O9        1.0  0.00853  0.75000  0.59500  1.0000
  O   O10       1.0  0.71300  0.02750  0.73900  1.0000
  O   O11       1.0  0.71300  0.47200  0.73900  1.0000
  O   O12       1.0  0.47600  0.25000  0.85400  1.0000
  Y   Y1        1.0  0.34500  0.25000  0.41200  1.0000
  Y   Y2        1.0  0.65500  0.75000  0.58800  1.0000
