data_image0
_chemical_formula_structural       As8Ga4K8Li4
_chemical_formula_sum              "As8 Ga4 K8 Li4"
_cell_length_a       6.25256
_cell_length_b       9.91327
_cell_length_c       9.91327
_cell_angle_alpha    78.381
_cell_angle_beta     90
_cell_angle_gamma    90

_space_group_name_H-M_alt    "P 1"
_space_group_IT_number       1

loop_
  _space_group_symop_operation_xyz
  'x, y, z'

loop_
  _atom_site_type_symbol
  _atom_site_label
  _atom_site_symmetry_multiplicity
  _atom_site_fract_x
  _atom_site_fract_y
  _atom_site_fract_z
  _atom_site_occupancy
  As  As1       1.0  0.78600  0.09360  0.09360  1.0000
  As  As2       1.0  0.75000  0.65600  0.15600  1.0000
  As  As3       1.0  0.25000  0.84400  0.34400  1.0000
  As  As4       1.0  0.28600  0.40600  0.40600  1.0000
  As  As5       1.0  0.71400  0.59400  0.59400  1.0000
  As  As6       1.0  0.75000  0.15600  0.65600  1.0000
  As  As7       1.0  0.25000  0.34400  0.84400  1.0000
  As  As8       1.0  0.21400  0.90600  0.90600  1.0000
  Ga  Ga1       1.0  0.00000  0.86800  0.13200  1.0000
  Ga  Ga2       1.0  0.50000  0.63200  0.36800  1.0000
  Ga  Ga3       1.0  0.50000  0.36800  0.63200  1.0000
  Ga  Ga4       1.0  0.00000  0.13200  0.86800  1.0000
  K   K1        1.0  0.25000  0.57600  0.07620  1.0000
  K   K2        1.0  0.28100  0.17200  0.17200  1.0000
  K   K3        1.0  0.78100  0.32800  0.32800  1.0000
  K   K4        1.0  0.75000  0.92400  0.42400  1.0000
  K   K5        1.0  0.25000  0.07620  0.57600  1.0000
  K   K6        1.0  0.21900  0.67200  0.67200  1.0000
  K   K7        1.0  0.71900  0.82800  0.82800  1.0000
  K   K8        1.0  0.75000  0.42400  0.92400  1.0000
  Li  Li1       1.0  0.50000  0.88000  0.12000  1.0000
  Li  Li2       1.0  0.00000  0.62000  0.38000  1.0000
  Li  Li3       1.0  0.00000  0.38000  0.62000  1.0000
  Li  Li4       1.0  0.50000  0.12000  0.88000  1.0000
