data_image0
_chemical_formula_structural       F20Ta4
_chemical_formula_sum              "F20 Ta4"
_cell_length_a       4.63017
_cell_length_b       8.15573
_cell_length_c       8.15573
_cell_angle_alpha    113.08
_cell_angle_beta     95.3059
_cell_angle_gamma    95.3059

_space_group_name_H-M_alt    "P 1"
_space_group_IT_number       1

loop_
  _space_group_symop_operation_xyz
  'x, y, z'

loop_
  _atom_site_type_symbol
  _atom_site_label
  _atom_site_symmetry_multiplicity
  _atom_site_fract_x
  _atom_site_fract_y
  _atom_site_fract_z
  _atom_site_occupancy
  F   F1        1.0  0.37800  0.22200  0.02770  1.0000
  F   F2        1.0  0.13300  0.68700  0.07010  1.0000
  F   F3        1.0  0.89000  0.12400  0.12400  1.0000
  F   F4        1.0  0.63500  0.57100  0.17000  1.0000
  F   F5        1.0  0.37800  0.02770  0.22200  1.0000
  F   F6        1.0  0.13300  0.48700  0.27700  1.0000
  F   F7        1.0  0.86700  0.93000  0.31300  1.0000
  F   F8        1.0  0.62900  0.36400  0.36400  1.0000
  F   F9        1.0  0.36500  0.83000  0.42900  1.0000
  F   F10       1.0  0.13300  0.27700  0.48700  1.0000
  F   F11       1.0  0.86700  0.72300  0.51300  1.0000
  F   F12       1.0  0.63500  0.17000  0.57100  1.0000
  F   F13       1.0  0.37100  0.63600  0.63600  1.0000
  F   F14       1.0  0.13300  0.07010  0.68700  1.0000
  F   F15       1.0  0.86700  0.51300  0.72300  1.0000
  F   F16       1.0  0.62200  0.97200  0.77800  1.0000
  F   F17       1.0  0.36500  0.42900  0.83000  1.0000
  F   F18       1.0  0.11000  0.87600  0.87600  1.0000
  F   F19       1.0  0.86700  0.31300  0.93000  1.0000
  F   F20       1.0  0.62200  0.77800  0.97200  1.0000
  Ta  Ta1       1.0  0.50000  0.78800  0.21200  1.0000
  Ta  Ta2       1.0  0.23100  0.27000  0.27000  1.0000
  Ta  Ta3       1.0  0.76900  0.73000  0.73000  1.0000
  Ta  Ta4       1.0  0.50000  0.21200  0.78800  1.0000
