data_image0
_chemical_formula_structural       Fe2O2Se12Sm8
_chemical_formula_sum              "Fe2 O2 Se12 Sm8"
_cell_length_a       9.52632
_cell_length_b       9.56644
_cell_length_c       6.94879
_cell_angle_alpha    90
_cell_angle_beta     90
_cell_angle_gamma    119.861

_space_group_name_H-M_alt    "P 1"
_space_group_IT_number       1

loop_
  _space_group_symop_operation_xyz
  'x, y, z'

loop_
  _atom_site_type_symbol
  _atom_site_label
  _atom_site_symmetry_multiplicity
  _atom_site_fract_x
  _atom_site_fract_y
  _atom_site_fract_z
  _atom_site_occupancy
  Fe  Fe1       1.0  0.00174  0.00348  0.00126  1.0000
  Fe  Fe2       1.0  0.99800  0.99700  0.50100  1.0000
  O   O1        1.0  0.66600  0.33200  0.04140  1.0000
  O   O2        1.0  0.33400  0.66800  0.54100  1.0000
  Se  Se1       1.0  0.12600  0.87400  0.26400  1.0000
  Se  Se2       1.0  0.74800  0.87400  0.26400  1.0000
  Se  Se3       1.0  0.12700  0.25500  0.26700  1.0000
  Se  Se4       1.0  0.53100  0.46900  0.44500  1.0000
  Se  Se5       1.0  0.93800  0.46900  0.44500  1.0000
  Se  Se6       1.0  0.53200  0.06350  0.44600  1.0000
  Se  Se7       1.0  0.25200  0.12600  0.76400  1.0000
  Se  Se8       1.0  0.87400  0.12600  0.76400  1.0000
  Se  Se9       1.0  0.87300  0.74500  0.76700  1.0000
  Se  Se10      1.0  0.06220  0.53100  0.94500  1.0000
  Se  Se11      1.0  0.46900  0.53100  0.94500  1.0000
  Se  Se12      1.0  0.46800  0.93700  0.94600  1.0000
  Sm  Sm1       1.0  0.79800  0.59600  0.15900  1.0000
  Sm  Sm2       1.0  0.40100  0.20100  0.16100  1.0000
  Sm  Sm3       1.0  0.80000  0.20100  0.16100  1.0000
  Sm  Sm4       1.0  0.33300  0.66600  0.20800  1.0000
  Sm  Sm5       1.0  0.20200  0.40400  0.65900  1.0000
  Sm  Sm6       1.0  0.20000  0.79900  0.66100  1.0000
  Sm  Sm7       1.0  0.59900  0.79900  0.66100  1.0000
  Sm  Sm8       1.0  0.66700  0.33400  0.70800  1.0000
