data_image0
_chemical_formula_structural       Ge2P2Rb6Se14
_chemical_formula_sum              "Ge2 P2 Rb6 Se14"
_cell_length_a       7.44531
_cell_length_b       10.1264
_cell_length_c       12.2301
_cell_angle_alpha    78.52
_cell_angle_beta     89.2674
_cell_angle_gamma    68.5929

_space_group_name_H-M_alt    "P 1"
_space_group_IT_number       1

loop_
  _space_group_symop_operation_xyz
  'x, y, z'

loop_
  _atom_site_type_symbol
  _atom_site_label
  _atom_site_symmetry_multiplicity
  _atom_site_fract_x
  _atom_site_fract_y
  _atom_site_fract_z
  _atom_site_occupancy
  Ge  Ge1       1.0  0.40000  0.56200  0.37200  1.0000
  Ge  Ge2       1.0  0.60000  0.43800  0.62800  1.0000
  P   P1        1.0  0.23200  0.06920  0.22200  1.0000
  P   P2        1.0  0.76800  0.93100  0.77800  1.0000
  Rb  Rb1       1.0  0.61400  0.19000  0.00742  1.0000
  Rb  Rb2       1.0  0.94600  0.51400  0.21400  1.0000
  Rb  Rb3       1.0  0.67900  0.12800  0.39500  1.0000
  Rb  Rb4       1.0  0.32100  0.87200  0.60500  1.0000
  Rb  Rb5       1.0  0.05420  0.48600  0.78600  1.0000
  Rb  Rb6       1.0  0.38600  0.81000  0.99300  1.0000
  Se  Se1       1.0  0.10600  0.21800  0.06000  1.0000
  Se  Se2       1.0  0.04690  0.93200  0.19900  1.0000
  Se  Se3       1.0  0.47200  0.48600  0.20600  1.0000
  Se  Se4       1.0  0.53700  0.93300  0.22300  1.0000
  Se  Se5       1.0  0.08430  0.75900  0.36800  1.0000
  Se  Se6       1.0  0.15600  0.16400  0.37000  1.0000
  Se  Se7       1.0  0.64900  0.60800  0.46900  1.0000
  Se  Se8       1.0  0.35100  0.39200  0.53100  1.0000
  Se  Se9       1.0  0.84400  0.83600  0.63000  1.0000
  Se  Se10      1.0  0.91600  0.24100  0.63200  1.0000
  Se  Se11      1.0  0.46300  0.06690  0.77700  1.0000
  Se  Se12      1.0  0.52800  0.51400  0.79400  1.0000
  Se  Se13      1.0  0.95300  0.06770  0.80100  1.0000
  Se  Se14      1.0  0.89400  0.78200  0.94000  1.0000
