data_image0
_chemical_formula_structural       Ga2Li2Mo4O16
_chemical_formula_sum              "Ga2 Li2 Mo4 O16"
_cell_length_a       6.71855
_cell_length_b       7.10455
_cell_length_c       7.16281
_cell_angle_alpha    90.813
_cell_angle_beta     110.518
_cell_angle_gamma    105.662

_space_group_name_H-M_alt    "P 1"
_space_group_IT_number       1

loop_
  _space_group_symop_operation_xyz
  'x, y, z'

loop_
  _atom_site_type_symbol
  _atom_site_label
  _atom_site_symmetry_multiplicity
  _atom_site_fract_x
  _atom_site_fract_y
  _atom_site_fract_z
  _atom_site_occupancy
  Ga  Ga1       1.0  0.39900  0.09880  0.31800  1.0000
  Ga  Ga2       1.0  0.60100  0.90100  0.68200  1.0000
  Li  Li1       1.0  0.76800  0.44700  0.26100  1.0000
  Li  Li2       1.0  0.23200  0.55300  0.73900  1.0000
  Mo  Mo1       1.0  0.82300  0.96500  0.22500  1.0000
  Mo  Mo2       1.0  0.33000  0.57400  0.28500  1.0000
  Mo  Mo3       1.0  0.67000  0.42600  0.71500  1.0000
  Mo  Mo4       1.0  0.17700  0.03520  0.77500  1.0000
  O   O1        1.0  0.24400  0.57000  0.02660  1.0000
  O   O2        1.0  0.22500  0.03780  0.03500  1.0000
  O   O3        1.0  0.70800  0.71900  0.25700  1.0000
  O   O4        1.0  0.68300  0.13400  0.27000  1.0000
  O   O5        1.0  0.08870  0.47600  0.33400  1.0000
  O   O6        1.0  0.48200  0.38200  0.34600  1.0000
  O   O7        1.0  0.11900  0.04980  0.36700  1.0000
  O   O8        1.0  0.41400  0.84100  0.38400  1.0000
  O   O9        1.0  0.58600  0.15900  0.61600  1.0000
  O   O10       1.0  0.88100  0.95000  0.63300  1.0000
  O   O11       1.0  0.51800  0.61800  0.65400  1.0000
  O   O12       1.0  0.91100  0.52400  0.66600  1.0000
  O   O13       1.0  0.31700  0.86600  0.73000  1.0000
  O   O14       1.0  0.29200  0.28100  0.74300  1.0000
  O   O15       1.0  0.77500  0.96200  0.96500  1.0000
  O   O16       1.0  0.75600  0.43000  0.97300  1.0000
