data_image0
_chemical_formula_structural       K4Tl4
_chemical_formula_sum              "K4 Tl4"
_cell_length_a       5.47744
_cell_length_b       5.47731
_cell_length_c       12.4856
_cell_angle_alpha    90
_cell_angle_beta     90
_cell_angle_gamma    120.001

_space_group_name_H-M_alt    "P 1"
_space_group_IT_number       1

loop_
  _space_group_symop_operation_xyz
  'x, y, z'

loop_
  _atom_site_type_symbol
  _atom_site_label
  _atom_site_symmetry_multiplicity
  _atom_site_fract_x
  _atom_site_fract_y
  _atom_site_fract_z
  _atom_site_occupancy
  K   K1        1.0  0.33300  0.66700  0.08830  1.0000
  K   K2        1.0  0.33300  0.66700  0.41200  1.0000
  K   K3        1.0  0.66700  0.33300  0.58800  1.0000
  K   K4        1.0  0.66700  0.33300  0.91200  1.0000
  Tl  Tl1       1.0  0.00000  0.00001  0.25000  1.0000
  Tl  Tl2       1.0  0.66700  0.33300  0.25000  1.0000
  Tl  Tl3       1.0  0.00000  0.00000  0.75000  1.0000
  Tl  Tl4       1.0  0.33300  0.66700  0.75000  1.0000
