data_image0
_chemical_formula_structural       Ho2Li2O16W4
_chemical_formula_sum              "Ho2 Li2 O16 W4"
_cell_length_a       9.9554
_cell_length_b       5.7701
_cell_length_c       4.98295
_cell_angle_alpha    90
_cell_angle_beta     94.2264
_cell_angle_gamma    90

_space_group_name_H-M_alt    "P 1"
_space_group_IT_number       1

loop_
  _space_group_symop_operation_xyz
  'x, y, z'

loop_
  _atom_site_type_symbol
  _atom_site_label
  _atom_site_symmetry_multiplicity
  _atom_site_fract_x
  _atom_site_fract_y
  _atom_site_fract_z
  _atom_site_occupancy
  Ho  Ho1       1.0  0.25000  0.69800  0.25000  1.0000
  Ho  Ho2       1.0  0.75000  0.30200  0.75000  1.0000
  Li  Li1       1.0  0.75000  0.74500  0.25000  1.0000
  Li  Li2       1.0  0.25000  0.25500  0.75000  1.0000
  O   O1        1.0  0.88400  0.91900  0.03130  1.0000
  O   O2        1.0  0.40400  0.89000  0.04820  1.0000
  O   O3        1.0  0.36100  0.37600  0.08520  1.0000
  O   O4        1.0  0.89200  0.38100  0.10200  1.0000
  O   O5        1.0  0.60800  0.38100  0.39800  1.0000
  O   O6        1.0  0.13900  0.37600  0.41500  1.0000
  O   O7        1.0  0.09620  0.89000  0.45200  1.0000
  O   O8        1.0  0.61600  0.91900  0.46900  1.0000
  O   O9        1.0  0.38400  0.08140  0.53100  1.0000
  O   O10       1.0  0.90400  0.11000  0.54800  1.0000
  O   O11       1.0  0.86100  0.62400  0.58500  1.0000
  O   O12       1.0  0.39200  0.61900  0.60200  1.0000
  O   O13       1.0  0.10800  0.61900  0.89800  1.0000
  O   O14       1.0  0.63900  0.62400  0.91500  1.0000
  O   O15       1.0  0.59600  0.11000  0.95200  1.0000
  O   O16       1.0  0.11600  0.08140  0.96900  1.0000
  W   W1        1.0  0.48300  0.18400  0.24900  1.0000
  W   W2        1.0  0.01720  0.18400  0.25100  1.0000
  W   W3        1.0  0.98300  0.81600  0.74900  1.0000
  W   W4        1.0  0.51700  0.81600  0.75100  1.0000
