data_image0
_chemical_formula_structural       Eu2K2O16W4
_chemical_formula_sum              "Eu2 K2 O16 W4"
_cell_length_a       7.51768
_cell_length_b       7.51768
_cell_length_c       7.57823
_cell_angle_alpha    62.4974
_cell_angle_beta     117.503
_cell_angle_gamma    91.773

_space_group_name_H-M_alt    "P 1"
_space_group_IT_number       1

loop_
  _space_group_symop_operation_xyz
  'x, y, z'

loop_
  _atom_site_type_symbol
  _atom_site_label
  _atom_site_symmetry_multiplicity
  _atom_site_fract_x
  _atom_site_fract_y
  _atom_site_fract_z
  _atom_site_occupancy
  Eu  Eu1       1.0  0.26600  0.26600  0.25000  1.0000
  Eu  Eu2       1.0  0.73400  0.73400  0.75000  1.0000
  K   K1        1.0  0.70600  0.70600  0.25000  1.0000
  K   K2        1.0  0.29400  0.29400  0.75000  1.0000
  O   O1        1.0  0.07350  0.12100  0.01560  1.0000
  O   O2        1.0  0.73000  0.13100  0.04390  1.0000
  O   O3        1.0  0.89000  0.43800  0.13600  1.0000
  O   O4        1.0  0.53900  0.30400  0.17300  1.0000
  O   O5        1.0  0.30400  0.53900  0.32700  1.0000
  O   O6        1.0  0.43800  0.89000  0.36400  1.0000
  O   O7        1.0  0.13100  0.73000  0.45600  1.0000
  O   O8        1.0  0.12100  0.07350  0.48400  1.0000
  O   O9        1.0  0.87900  0.92600  0.51600  1.0000
  O   O10       1.0  0.86900  0.27000  0.54400  1.0000
  O   O11       1.0  0.56200  0.11000  0.63600  1.0000
  O   O12       1.0  0.69600  0.46100  0.67300  1.0000
  O   O13       1.0  0.46100  0.69600  0.82700  1.0000
  O   O14       1.0  0.11000  0.56200  0.86400  1.0000
  O   O15       1.0  0.27000  0.86900  0.95600  1.0000
  O   O16       1.0  0.92600  0.87900  0.98400  1.0000
  W   W1        1.0  0.21500  0.79500  0.24900  1.0000
  W   W2        1.0  0.79500  0.21500  0.25100  1.0000
  W   W3        1.0  0.20500  0.78500  0.74900  1.0000
  W   W4        1.0  0.78500  0.20500  0.75100  1.0000
