data_image0
_chemical_formula_structural       Eu4Mn2O14Si4
_chemical_formula_sum              "Eu4 Mn2 O14 Si4"
_cell_length_a       7.97628
_cell_length_b       7.97628
_cell_length_c       5.02924
_cell_angle_alpha    90
_cell_angle_beta     90
_cell_angle_gamma    90

_space_group_name_H-M_alt    "P 1"
_space_group_IT_number       1

loop_
  _space_group_symop_operation_xyz
  'x, y, z'

loop_
  _atom_site_type_symbol
  _atom_site_label
  _atom_site_symmetry_multiplicity
  _atom_site_fract_x
  _atom_site_fract_y
  _atom_site_fract_z
  _atom_site_occupancy
  Eu  Eu1       1.0  0.83500  0.33500  0.49600  1.0000
  Eu  Eu2       1.0  0.16500  0.66500  0.49600  1.0000
  Eu  Eu3       1.0  0.33500  0.16500  0.50400  1.0000
  Eu  Eu4       1.0  0.66500  0.83500  0.50400  1.0000
  Mn  Mn1       1.0  0.00000  0.00000  0.00000  1.0000
  Mn  Mn2       1.0  0.50000  0.50000  0.00000  1.0000
  O   O1        1.0  0.50000  0.00000  0.17800  1.0000
  O   O2        1.0  0.80800  0.07880  0.22800  1.0000
  O   O3        1.0  0.57900  0.30800  0.22800  1.0000
  O   O4        1.0  0.42100  0.69200  0.22800  1.0000
  O   O5        1.0  0.19200  0.92100  0.22800  1.0000
  O   O6        1.0  0.14300  0.35700  0.25100  1.0000
  O   O7        1.0  0.85700  0.64300  0.25100  1.0000
  O   O8        1.0  0.64300  0.14300  0.74900  1.0000
  O   O9        1.0  0.35700  0.85700  0.74900  1.0000
  O   O10       1.0  0.07880  0.19200  0.77200  1.0000
  O   O11       1.0  0.30800  0.42100  0.77200  1.0000
  O   O12       1.0  0.69200  0.57900  0.77200  1.0000
  O   O13       1.0  0.92100  0.80800  0.77200  1.0000
  O   O14       1.0  0.00000  0.50000  0.82200  1.0000
  Si  Si1       1.0  0.63900  0.13900  0.06940  1.0000
  Si  Si2       1.0  0.36100  0.86100  0.06940  1.0000
  Si  Si3       1.0  0.13900  0.36100  0.93100  1.0000
  Si  Si4       1.0  0.86100  0.63900  0.93100  1.0000
