data_image0
_chemical_formula_structural       B4Pd16Sr4
_chemical_formula_sum              "B4 Pd16 Sr4"
_cell_length_a       6.13796
_cell_length_b       5.58587
_cell_length_c       12.0136
_cell_angle_alpha    90
_cell_angle_beta     90
_cell_angle_gamma    90

_space_group_name_H-M_alt    "P 1"
_space_group_IT_number       1

loop_
  _space_group_symop_operation_xyz
  'x, y, z'

loop_
  _atom_site_type_symbol
  _atom_site_label
  _atom_site_symmetry_multiplicity
  _atom_site_fract_x
  _atom_site_fract_y
  _atom_site_fract_z
  _atom_site_occupancy
  B   B1        1.0  0.09800  0.25000  0.05220  1.0000
  B   B2        1.0  0.59800  0.25000  0.44800  1.0000
  B   B3        1.0  0.40200  0.75000  0.55200  1.0000
  B   B4        1.0  0.90200  0.75000  0.94800  1.0000
  Pd  Pd1       1.0  0.43800  0.25000  0.05890  1.0000
  Pd  Pd2       1.0  0.83600  0.00267  0.08520  1.0000
  Pd  Pd3       1.0  0.83600  0.49700  0.08520  1.0000
  Pd  Pd4       1.0  0.11400  0.25000  0.23300  1.0000
  Pd  Pd5       1.0  0.61400  0.25000  0.26700  1.0000
  Pd  Pd6       1.0  0.33600  0.00267  0.41500  1.0000
  Pd  Pd7       1.0  0.33600  0.49700  0.41500  1.0000
  Pd  Pd8       1.0  0.93800  0.25000  0.44100  1.0000
  Pd  Pd9       1.0  0.06240  0.75000  0.55900  1.0000
  Pd  Pd10      1.0  0.66400  0.50300  0.58500  1.0000
  Pd  Pd11      1.0  0.66400  0.99700  0.58500  1.0000
  Pd  Pd12      1.0  0.38600  0.75000  0.73300  1.0000
  Pd  Pd13      1.0  0.88600  0.75000  0.76700  1.0000
  Pd  Pd14      1.0  0.16400  0.50300  0.91500  1.0000
  Pd  Pd15      1.0  0.16400  0.99700  0.91500  1.0000
  Pd  Pd16      1.0  0.56200  0.75000  0.94100  1.0000
  Sr  Sr1       1.0  0.31200  0.75000  0.16000  1.0000
  Sr  Sr2       1.0  0.81200  0.75000  0.34000  1.0000
  Sr  Sr3       1.0  0.18800  0.25000  0.66000  1.0000
  Sr  Sr4       1.0  0.68800  0.25000  0.84000  1.0000
