data_image0
_chemical_formula_structural       Co4Ge12InYb7
_chemical_formula_sum              "Co4 Ge12 In1 Yb7"
_cell_length_a       10.3212
_cell_length_b       10.3212
_cell_length_c       4.26611
_cell_angle_alpha    90
_cell_angle_beta     90
_cell_angle_gamma    90

_space_group_name_H-M_alt    "P 1"
_space_group_IT_number       1

loop_
  _space_group_symop_operation_xyz
  'x, y, z'

loop_
  _atom_site_type_symbol
  _atom_site_label
  _atom_site_symmetry_multiplicity
  _atom_site_fract_x
  _atom_site_fract_y
  _atom_site_fract_z
  _atom_site_occupancy
  Co  Co1       1.0  0.72100  0.11500  0.00000  1.0000
  Co  Co2       1.0  0.11500  0.27900  0.00000  1.0000
  Co  Co3       1.0  0.88500  0.72100  0.00000  1.0000
  Co  Co4       1.0  0.27900  0.88500  0.00000  1.0000
  Ge  Ge1       1.0  0.28400  0.11500  0.00000  1.0000
  Ge  Ge2       1.0  0.51400  0.21000  0.00000  1.0000
  Ge  Ge3       1.0  0.88500  0.28400  0.00000  1.0000
  Ge  Ge4       1.0  0.21000  0.48600  0.00000  1.0000
  Ge  Ge5       1.0  0.79000  0.51400  0.00000  1.0000
  Ge  Ge6       1.0  0.11500  0.71600  0.00000  1.0000
  Ge  Ge7       1.0  0.48600  0.79000  0.00000  1.0000
  Ge  Ge8       1.0  0.71600  0.88500  0.00000  1.0000
  Ge  Ge9       1.0  0.80800  0.06570  0.50000  1.0000
  Ge  Ge10      1.0  0.06570  0.19200  0.50000  1.0000
  Ge  Ge11      1.0  0.93400  0.80800  0.50000  1.0000
  Ge  Ge12      1.0  0.19200  0.93400  0.50000  1.0000
  In  In1       1.0  0.50000  0.50000  0.00000  1.0000
  Yb  Yb1       1.0  0.00000  0.00000  0.00000  1.0000
  Yb  Yb2       1.0  0.50000  0.00000  0.50000  1.0000
  Yb  Yb3       1.0  0.32600  0.32500  0.50000  1.0000
  Yb  Yb4       1.0  0.67500  0.32600  0.50000  1.0000
  Yb  Yb5       1.0  0.00000  0.50000  0.50000  1.0000
  Yb  Yb6       1.0  0.32500  0.67400  0.50000  1.0000
  Yb  Yb7       1.0  0.67400  0.67500  0.50000  1.0000
