data_image0
_chemical_formula_structural       I4O16Rb2V2
_chemical_formula_sum              "I4 O16 Rb2 V2"
_cell_length_a       5.23074
_cell_length_b       7.83916
_cell_length_c       9.51658
_cell_angle_alpha    72.6229
_cell_angle_beta     90.4798
_cell_angle_gamma    88.0918

_space_group_name_H-M_alt    "P 1"
_space_group_IT_number       1

loop_
  _space_group_symop_operation_xyz
  'x, y, z'

loop_
  _atom_site_type_symbol
  _atom_site_label
  _atom_site_symmetry_multiplicity
  _atom_site_fract_x
  _atom_site_fract_y
  _atom_site_fract_z
  _atom_site_occupancy
  I   I1        1.0  0.25500  0.63500  0.23000  1.0000
  I   I2        1.0  0.68900  0.85700  0.43900  1.0000
  I   I3        1.0  0.31100  0.14300  0.56100  1.0000
  I   I4        1.0  0.74500  0.36500  0.77000  1.0000
  O   O1        1.0  0.21400  0.83500  0.07760  1.0000
  O   O2        1.0  0.51300  0.52600  0.15100  1.0000
  O   O3        1.0  0.00318  0.50400  0.16800  1.0000
  O   O4        1.0  0.80200  0.16900  0.26700  1.0000
  O   O5        1.0  0.68900  0.73900  0.29800  1.0000
  O   O6        1.0  0.37000  0.96400  0.38700  1.0000
  O   O7        1.0  0.42500  0.33300  0.40000  1.0000
  O   O8        1.0  0.92200  0.34800  0.45900  1.0000
  O   O9        1.0  0.07830  0.65200  0.54100  1.0000
  O   O10       1.0  0.57500  0.66700  0.60000  1.0000
  O   O11       1.0  0.63000  0.03620  0.61300  1.0000
  O   O12       1.0  0.31100  0.26100  0.70200  1.0000
  O   O13       1.0  0.19800  0.83100  0.73300  1.0000
  O   O14       1.0  0.99700  0.49600  0.83200  1.0000
  O   O15       1.0  0.48700  0.47400  0.84900  1.0000
  O   O16       1.0  0.78600  0.16500  0.92200  1.0000
  Rb  Rb1       1.0  0.26800  0.19300  0.08250  1.0000
  Rb  Rb2       1.0  0.73200  0.80700  0.91800  1.0000
  V   V1        1.0  0.76100  0.36500  0.30200  1.0000
  V   V2        1.0  0.23900  0.63500  0.69800  1.0000
