data_image0
_chemical_formula_structural       Cl16Ga4K4
_chemical_formula_sum              "Cl16 Ga4 K4"
_cell_length_a       7.22937
_cell_length_b       10.452
_cell_length_c       9.35938
_cell_angle_alpha    90
_cell_angle_beta     93.8446
_cell_angle_gamma    90

_space_group_name_H-M_alt    "P 1"
_space_group_IT_number       1

loop_
  _space_group_symop_operation_xyz
  'x, y, z'

loop_
  _atom_site_type_symbol
  _atom_site_label
  _atom_site_symmetry_multiplicity
  _atom_site_fract_x
  _atom_site_fract_y
  _atom_site_fract_z
  _atom_site_occupancy
  Cl  Cl1       1.0  0.78300  0.22000  0.04660  1.0000
  Cl  Cl2       1.0  0.69100  0.87600  0.06310  1.0000
  Cl  Cl3       1.0  0.96800  0.58100  0.17000  1.0000
  Cl  Cl4       1.0  0.47800  0.53500  0.19000  1.0000
  Cl  Cl5       1.0  0.02220  0.03490  0.31000  1.0000
  Cl  Cl6       1.0  0.53200  0.08060  0.33000  1.0000
  Cl  Cl7       1.0  0.80900  0.37600  0.43700  1.0000
  Cl  Cl8       1.0  0.71700  0.72000  0.45300  1.0000
  Cl  Cl9       1.0  0.28300  0.28000  0.54700  1.0000
  Cl  Cl10      1.0  0.19100  0.62400  0.56300  1.0000
  Cl  Cl11      1.0  0.46800  0.91900  0.67000  1.0000
  Cl  Cl12      1.0  0.97800  0.96500  0.69000  1.0000
  Cl  Cl13      1.0  0.52200  0.46500  0.81000  1.0000
  Cl  Cl14      1.0  0.03170  0.41900  0.83000  1.0000
  Cl  Cl15      1.0  0.30900  0.12400  0.93700  1.0000
  Cl  Cl16      1.0  0.21700  0.78000  0.95300  1.0000
  Ga  Ga1       1.0  0.75400  0.05260  0.18500  1.0000
  Ga  Ga2       1.0  0.74600  0.55300  0.31500  1.0000
  Ga  Ga3       1.0  0.25400  0.44700  0.68500  1.0000
  Ga  Ga4       1.0  0.24600  0.94700  0.81500  1.0000
  K   K1        1.0  0.18900  0.30400  0.19900  1.0000
  K   K2        1.0  0.31100  0.80400  0.30100  1.0000
  K   K3        1.0  0.68900  0.19600  0.69900  1.0000
  K   K4        1.0  0.81100  0.69600  0.80100  1.0000
