data_image0
_chemical_formula_structural       Al2Mo4Na2O16
_chemical_formula_sum              "Al2 Mo4 Na2 O16"
_cell_length_a       5.29839
_cell_length_b       5.49207
_cell_length_c       12.9055
_cell_angle_alpha    90.2843
_cell_angle_beta     90
_cell_angle_gamma    118.84

_space_group_name_H-M_alt    "P 1"
_space_group_IT_number       1

loop_
  _space_group_symop_operation_xyz
  'x, y, z'

loop_
  _atom_site_type_symbol
  _atom_site_label
  _atom_site_symmetry_multiplicity
  _atom_site_fract_x
  _atom_site_fract_y
  _atom_site_fract_z
  _atom_site_occupancy
  Al  Al1       1.0  0.00000  0.00000  0.00000  1.0000
  Al  Al2       1.0  0.00000  0.00000  0.50000  1.0000
  Mo  Mo1       1.0  0.70500  0.34200  0.12600  1.0000
  Mo  Mo2       1.0  0.36300  0.65800  0.37400  1.0000
  Mo  Mo3       1.0  0.63700  0.34200  0.62600  1.0000
  Mo  Mo4       1.0  0.29500  0.65800  0.87400  1.0000
  Na  Na1       1.0  0.08370  0.00000  0.25000  1.0000
  Na  Na2       1.0  0.91600  0.00000  0.75000  1.0000
  O   O1        1.0  0.38600  0.17900  0.04950  1.0000
  O   O2        1.0  0.92400  0.69300  0.08160  1.0000
  O   O3        1.0  0.89400  0.14300  0.11600  1.0000
  O   O4        1.0  0.25800  0.66200  0.24600  1.0000
  O   O5        1.0  0.59600  0.33800  0.25400  1.0000
  O   O6        1.0  0.75200  0.85700  0.38400  1.0000
  O   O7        1.0  0.23100  0.30700  0.41800  1.0000
  O   O8        1.0  0.20700  0.82100  0.45000  1.0000
  O   O9        1.0  0.79300  0.17900  0.55000  1.0000
  O   O10       1.0  0.76900  0.69300  0.58200  1.0000
  O   O11       1.0  0.24800  0.14300  0.61600  1.0000
  O   O12       1.0  0.40400  0.66200  0.74600  1.0000
  O   O13       1.0  0.74200  0.33800  0.75400  1.0000
  O   O14       1.0  0.10600  0.85700  0.88400  1.0000
  O   O15       1.0  0.07630  0.30700  0.91800  1.0000
  O   O16       1.0  0.61400  0.82100  0.95000  1.0000
