data_image0
_chemical_formula_structural       Co4Ge12Ho7In
_chemical_formula_sum              "Co4 Ge12 Ho7 In1"
_cell_length_a       10.3544
_cell_length_b       10.3544
_cell_length_c       4.17847
_cell_angle_alpha    90
_cell_angle_beta     90
_cell_angle_gamma    90

_space_group_name_H-M_alt    "P 1"
_space_group_IT_number       1

loop_
  _space_group_symop_operation_xyz
  'x, y, z'

loop_
  _atom_site_type_symbol
  _atom_site_label
  _atom_site_symmetry_multiplicity
  _atom_site_fract_x
  _atom_site_fract_y
  _atom_site_fract_z
  _atom_site_occupancy
  Co  Co1       1.0  0.27800  0.11700  0.00000  1.0000
  Co  Co2       1.0  0.88300  0.27800  0.00000  1.0000
  Co  Co3       1.0  0.11700  0.72200  0.00000  1.0000
  Co  Co4       1.0  0.72200  0.88300  0.00000  1.0000
  Ge  Ge1       1.0  0.71500  0.11300  0.00000  1.0000
  Ge  Ge2       1.0  0.48600  0.21300  0.00000  1.0000
  Ge  Ge3       1.0  0.11300  0.28500  0.00000  1.0000
  Ge  Ge4       1.0  0.78700  0.48600  0.00000  1.0000
  Ge  Ge5       1.0  0.21300  0.51400  0.00000  1.0000
  Ge  Ge6       1.0  0.88700  0.71500  0.00000  1.0000
  Ge  Ge7       1.0  0.51400  0.78700  0.00000  1.0000
  Ge  Ge8       1.0  0.28500  0.88700  0.00000  1.0000
  Ge  Ge9       1.0  0.19500  0.06500  0.50000  1.0000
  Ge  Ge10      1.0  0.93500  0.19500  0.50000  1.0000
  Ge  Ge11      1.0  0.06500  0.80500  0.50000  1.0000
  Ge  Ge12      1.0  0.80500  0.93500  0.50000  1.0000
  Ho  Ho1       1.0  0.00000  0.00000  0.00000  1.0000
  Ho  Ho2       1.0  0.50000  0.00000  0.50000  1.0000
  Ho  Ho3       1.0  0.67400  0.32200  0.50000  1.0000
  Ho  Ho4       1.0  0.32200  0.32600  0.50000  1.0000
  Ho  Ho5       1.0  0.00000  0.50000  0.50000  1.0000
  Ho  Ho6       1.0  0.67800  0.67400  0.50000  1.0000
  Ho  Ho7       1.0  0.32600  0.67800  0.50000  1.0000
  In  In1       1.0  0.50000  0.50000  0.00000  1.0000
