data_image0
_chemical_formula_structural       F16K4Pr4
_chemical_formula_sum              "F16 K4 Pr4"
_cell_length_a       6.17646
_cell_length_b       3.73105
_cell_length_c       15.2539
_cell_angle_alpha    90
_cell_angle_beta     90
_cell_angle_gamma    90

_space_group_name_H-M_alt    "P 1"
_space_group_IT_number       1

loop_
  _space_group_symop_operation_xyz
  'x, y, z'

loop_
  _atom_site_type_symbol
  _atom_site_label
  _atom_site_symmetry_multiplicity
  _atom_site_fract_x
  _atom_site_fract_y
  _atom_site_fract_z
  _atom_site_occupancy
  F   F1        1.0  0.14000  0.25000  0.03950  1.0000
  F   F2        1.0  0.49400  0.75000  0.06060  1.0000
  F   F3        1.0  0.90000  0.75000  0.13700  1.0000
  F   F4        1.0  0.58600  0.25000  0.19800  1.0000
  F   F5        1.0  0.08580  0.25000  0.30200  1.0000
  F   F6        1.0  0.40000  0.75000  0.36300  1.0000
  F   F7        1.0  0.99400  0.75000  0.43900  1.0000
  F   F8        1.0  0.64000  0.25000  0.46100  1.0000
  F   F9        1.0  0.36000  0.75000  0.53900  1.0000
  F   F10       1.0  0.00641  0.25000  0.56100  1.0000
  F   F11       1.0  0.60000  0.25000  0.63700  1.0000
  F   F12       1.0  0.91400  0.75000  0.69800  1.0000
  F   F13       1.0  0.41400  0.75000  0.80200  1.0000
  F   F14       1.0  0.10000  0.25000  0.86300  1.0000
  F   F15       1.0  0.50600  0.25000  0.93900  1.0000
  F   F16       1.0  0.86000  0.75000  0.96100  1.0000
  K   K1        1.0  0.27600  0.75000  0.20200  1.0000
  K   K2        1.0  0.77600  0.75000  0.29800  1.0000
  K   K3        1.0  0.22400  0.25000  0.70200  1.0000
  K   K4        1.0  0.72400  0.25000  0.79800  1.0000
  Pr  Pr1       1.0  0.75200  0.25000  0.06210  1.0000
  Pr  Pr2       1.0  0.25200  0.25000  0.43800  1.0000
  Pr  Pr3       1.0  0.74800  0.75000  0.56200  1.0000
  Pr  Pr4       1.0  0.24800  0.75000  0.93800  1.0000
