data_image0
_chemical_formula_structural       B8Ni2O14
_chemical_formula_sum              "B8 Ni2 O14"
_cell_length_a       5.16021
_cell_length_b       6.2785
_cell_length_c       6.2785
_cell_angle_alpha    60.7972
_cell_angle_beta     90
_cell_angle_gamma    90

_space_group_name_H-M_alt    "P 1"
_space_group_IT_number       1

loop_
  _space_group_symop_operation_xyz
  'x, y, z'

loop_
  _atom_site_type_symbol
  _atom_site_label
  _atom_site_symmetry_multiplicity
  _atom_site_fract_x
  _atom_site_fract_y
  _atom_site_fract_z
  _atom_site_occupancy
  B   B1        1.0  0.25000  0.70000  0.06850  1.0000
  B   B2        1.0  0.00000  0.29800  0.29800  1.0000
  B   B3        1.0  0.50000  0.29800  0.29800  1.0000
  B   B4        1.0  0.25000  0.93100  0.30000  1.0000
  B   B5        1.0  0.75000  0.06850  0.70000  1.0000
  B   B6        1.0  0.00000  0.70200  0.70200  1.0000
  B   B7        1.0  0.50000  0.70200  0.70200  1.0000
  B   B8        1.0  0.75000  0.30000  0.93100  1.0000
  Ni  Ni1       1.0  0.75000  0.74400  0.25600  1.0000
  Ni  Ni2       1.0  0.25000  0.25600  0.74400  1.0000
  O   O1        1.0  0.25000  0.93400  0.06600  1.0000
  O   O2        1.0  0.02130  0.56000  0.18800  1.0000
  O   O3        1.0  0.47900  0.56000  0.18800  1.0000
  O   O4        1.0  0.75000  0.24300  0.20000  1.0000
  O   O5        1.0  0.25000  0.20000  0.24300  1.0000
  O   O6        1.0  0.02130  0.81200  0.44000  1.0000
  O   O7        1.0  0.47900  0.81200  0.44000  1.0000
  O   O8        1.0  0.52100  0.18800  0.56000  1.0000
  O   O9        1.0  0.97900  0.18800  0.56000  1.0000
  O   O10       1.0  0.75000  0.80000  0.75700  1.0000
  O   O11       1.0  0.25000  0.75700  0.80000  1.0000
  O   O12       1.0  0.52100  0.44000  0.81200  1.0000
  O   O13       1.0  0.97900  0.44000  0.81200  1.0000
  O   O14       1.0  0.75000  0.06600  0.93400  1.0000
