data_image0
_chemical_formula_structural       As4Cs4Eu4S12
_chemical_formula_sum              "As4 Cs4 Eu4 S12"
_cell_length_a       9.58614
_cell_length_b       8.35412
_cell_length_c       8.84073
_cell_angle_alpha    90
_cell_angle_beta     103.262
_cell_angle_gamma    90

_space_group_name_H-M_alt    "P 1"
_space_group_IT_number       1

loop_
  _space_group_symop_operation_xyz
  'x, y, z'

loop_
  _atom_site_type_symbol
  _atom_site_label
  _atom_site_symmetry_multiplicity
  _atom_site_fract_x
  _atom_site_fract_y
  _atom_site_fract_z
  _atom_site_occupancy
  As  As1       1.0  0.79200  0.95200  0.15600  1.0000
  As  As2       1.0  0.20800  0.45200  0.34400  1.0000
  As  As3       1.0  0.79200  0.54800  0.65600  1.0000
  As  As4       1.0  0.20800  0.04830  0.84400  1.0000
  Cs  Cs1       1.0  0.59100  0.57000  0.23100  1.0000
  Cs  Cs2       1.0  0.40900  0.07000  0.26900  1.0000
  Cs  Cs3       1.0  0.59100  0.93000  0.73100  1.0000
  Cs  Cs4       1.0  0.40900  0.43000  0.76900  1.0000
  Eu  Eu1       1.0  0.05860  0.71700  0.02910  1.0000
  Eu  Eu2       1.0  0.94100  0.21700  0.47100  1.0000
  Eu  Eu3       1.0  0.05860  0.78300  0.52900  1.0000
  Eu  Eu4       1.0  0.94100  0.28300  0.97100  1.0000
  S   S1        1.0  0.68800  0.18800  0.07860  1.0000
  S   S2        1.0  0.23200  0.42200  0.09750  1.0000
  S   S3        1.0  0.03050  0.01980  0.21700  1.0000
  S   S4        1.0  0.96900  0.52000  0.28300  1.0000
  S   S5        1.0  0.76800  0.92200  0.40300  1.0000
  S   S6        1.0  0.31200  0.68800  0.42100  1.0000
  S   S7        1.0  0.68800  0.31200  0.57900  1.0000
  S   S8        1.0  0.23200  0.07850  0.59700  1.0000
  S   S9        1.0  0.03050  0.48000  0.71700  1.0000
  S   S10       1.0  0.96900  0.98000  0.78300  1.0000
  S   S11       1.0  0.76800  0.57800  0.90300  1.0000
  S   S12       1.0  0.31200  0.81200  0.92100  1.0000
