data_image0
_chemical_formula_structural       Cu4Pb4Se12Tm4
_chemical_formula_sum              "Cu4 Pb4 Se12 Tm4"
_cell_length_a       10.5108
_cell_length_b       4.03762
_cell_length_c       13.6055
_cell_angle_alpha    90
_cell_angle_beta     90
_cell_angle_gamma    90

_space_group_name_H-M_alt    "P 1"
_space_group_IT_number       1

loop_
  _space_group_symop_operation_xyz
  'x, y, z'

loop_
  _atom_site_type_symbol
  _atom_site_label
  _atom_site_symmetry_multiplicity
  _atom_site_fract_x
  _atom_site_fract_y
  _atom_site_fract_z
  _atom_site_occupancy
  Cu  Cu1       1.0  0.25500  0.75000  0.21800  1.0000
  Cu  Cu2       1.0  0.75500  0.75000  0.28200  1.0000
  Cu  Cu3       1.0  0.24500  0.25000  0.71800  1.0000
  Cu  Cu4       1.0  0.74500  0.25000  0.78100  1.0000
  Pb  Pb1       1.0  0.26500  0.25000  0.00785  1.0000
  Pb  Pb2       1.0  0.76500  0.25000  0.49200  1.0000
  Pb  Pb3       1.0  0.23500  0.75000  0.50800  1.0000
  Pb  Pb4       1.0  0.73500  0.75000  0.99200  1.0000
  Se  Se1       1.0  0.07140  0.75000  0.10700  1.0000
  Se  Se2       1.0  0.44700  0.75000  0.11400  1.0000
  Se  Se3       1.0  0.75600  0.25000  0.17100  1.0000
  Se  Se4       1.0  0.25600  0.25000  0.32900  1.0000
  Se  Se5       1.0  0.94700  0.75000  0.38600  1.0000
  Se  Se6       1.0  0.57100  0.75000  0.39300  1.0000
  Se  Se7       1.0  0.42900  0.25000  0.60700  1.0000
  Se  Se8       1.0  0.05260  0.25000  0.61400  1.0000
  Se  Se9       1.0  0.74400  0.75000  0.67100  1.0000
  Se  Se10      1.0  0.24400  0.75000  0.82900  1.0000
  Se  Se11      1.0  0.55300  0.25000  0.88600  1.0000
  Se  Se12      1.0  0.92900  0.25000  0.89300  1.0000
  Tm  Tm1       1.0  0.00853  0.25000  0.24500  1.0000
  Tm  Tm2       1.0  0.50900  0.25000  0.25500  1.0000
  Tm  Tm3       1.0  0.49100  0.75000  0.74500  1.0000
  Tm  Tm4       1.0  0.99100  0.75000  0.75500  1.0000
