data_image0
_chemical_formula_structural       Li2O16W4Y2
_chemical_formula_sum              "Li2 O16 W4 Y2"
_cell_length_a       9.98965
_cell_length_b       5.78984
_cell_length_c       4.98656
_cell_angle_alpha    90
_cell_angle_beta     94.1322
_cell_angle_gamma    90

_space_group_name_H-M_alt    "P 1"
_space_group_IT_number       1

loop_
  _space_group_symop_operation_xyz
  'x, y, z'

loop_
  _atom_site_type_symbol
  _atom_site_label
  _atom_site_symmetry_multiplicity
  _atom_site_fract_x
  _atom_site_fract_y
  _atom_site_fract_z
  _atom_site_occupancy
  Li  Li1       1.0  0.75000  0.74800  0.25000  1.0000
  Li  Li2       1.0  0.25000  0.25200  0.75000  1.0000
  O   O1        1.0  0.88500  0.91700  0.03240  1.0000
  O   O2        1.0  0.40300  0.89200  0.04700  1.0000
  O   O3        1.0  0.36200  0.37400  0.08330  1.0000
  O   O4        1.0  0.89300  0.38000  0.10400  1.0000
  O   O5        1.0  0.60700  0.38000  0.39600  1.0000
  O   O6        1.0  0.13800  0.37400  0.41700  1.0000
  O   O7        1.0  0.09660  0.89200  0.45300  1.0000
  O   O8        1.0  0.61500  0.91700  0.46800  1.0000
  O   O9        1.0  0.38500  0.08280  0.53200  1.0000
  O   O10       1.0  0.90300  0.10800  0.54700  1.0000
  O   O11       1.0  0.86200  0.62600  0.58300  1.0000
  O   O12       1.0  0.39300  0.62000  0.60400  1.0000
  O   O13       1.0  0.10700  0.62000  0.89600  1.0000
  O   O14       1.0  0.63800  0.62600  0.91700  1.0000
  O   O15       1.0  0.59700  0.10800  0.95300  1.0000
  O   O16       1.0  0.11500  0.08280  0.96800  1.0000
  W   W1        1.0  0.48300  0.18400  0.24900  1.0000
  W   W2        1.0  0.01720  0.18400  0.25100  1.0000
  W   W3        1.0  0.98300  0.81600  0.74900  1.0000
  W   W4        1.0  0.51700  0.81600  0.75100  1.0000
  Y   Y1        1.0  0.25000  0.69600  0.25000  1.0000
  Y   Y2        1.0  0.75000  0.30400  0.75000  1.0000
