data_image0
_chemical_formula_structural       Eu4Ga4Ge2S14
_chemical_formula_sum              "Eu4 Ga4 Ge2 S14"
_cell_length_a       9.64366
_cell_length_b       9.64366
_cell_length_c       6.26555
_cell_angle_alpha    90
_cell_angle_beta     90
_cell_angle_gamma    90

_space_group_name_H-M_alt    "P 1"
_space_group_IT_number       1

loop_
  _space_group_symop_operation_xyz
  'x, y, z'

loop_
  _atom_site_type_symbol
  _atom_site_label
  _atom_site_symmetry_multiplicity
  _atom_site_fract_x
  _atom_site_fract_y
  _atom_site_fract_z
  _atom_site_occupancy
  Eu  Eu1       1.0  0.34900  0.15100  0.48200  1.0000
  Eu  Eu2       1.0  0.65100  0.84900  0.48200  1.0000
  Eu  Eu3       1.0  0.84900  0.34900  0.51800  1.0000
  Eu  Eu4       1.0  0.15100  0.65100  0.51800  1.0000
  Ga  Ga1       1.0  0.14700  0.35300  0.02480  1.0000
  Ga  Ga2       1.0  0.85300  0.64700  0.02480  1.0000
  Ga  Ga3       1.0  0.64700  0.14700  0.97500  1.0000
  Ga  Ga4       1.0  0.35300  0.85300  0.97500  1.0000
  Ge  Ge1       1.0  0.00000  0.00000  0.00000  1.0000
  Ge  Ge2       1.0  0.50000  0.50000  0.00000  1.0000
  S   S1        1.0  0.00000  0.50000  0.19700  1.0000
  S   S2        1.0  0.08100  0.15900  0.22700  1.0000
  S   S3        1.0  0.34100  0.41900  0.22700  1.0000
  S   S4        1.0  0.65900  0.58100  0.22700  1.0000
  S   S5        1.0  0.91900  0.84100  0.22700  1.0000
  S   S6        1.0  0.64600  0.14600  0.32600  1.0000
  S   S7        1.0  0.35400  0.85400  0.32600  1.0000
  S   S8        1.0  0.14600  0.35400  0.67400  1.0000
  S   S9        1.0  0.85400  0.64600  0.67400  1.0000
  S   S10       1.0  0.84100  0.08100  0.77300  1.0000
  S   S11       1.0  0.58100  0.34100  0.77300  1.0000
  S   S12       1.0  0.41900  0.65900  0.77300  1.0000
  S   S13       1.0  0.15900  0.91900  0.77300  1.0000
  S   S14       1.0  0.50000  0.00000  0.80300  1.0000
