data_image0
_chemical_formula_structural       Ba8Co4S12
_chemical_formula_sum              "Ba8 Co4 S12"
_cell_length_a       12.0972
_cell_length_b       12.4138
_cell_length_c       4.20477
_cell_angle_alpha    90
_cell_angle_beta     90
_cell_angle_gamma    90

_space_group_name_H-M_alt    "P 1"
_space_group_IT_number       1

loop_
  _space_group_symop_operation_xyz
  'x, y, z'

loop_
  _atom_site_type_symbol
  _atom_site_label
  _atom_site_symmetry_multiplicity
  _atom_site_fract_x
  _atom_site_fract_y
  _atom_site_fract_z
  _atom_site_occupancy
  Ba  Ba1       1.0  0.32700  0.02250  0.25000  1.0000
  Ba  Ba2       1.0  0.82700  0.47800  0.25000  1.0000
  Ba  Ba3       1.0  0.48800  0.67400  0.25000  1.0000
  Ba  Ba4       1.0  0.98800  0.82600  0.25000  1.0000
  Ba  Ba5       1.0  0.01220  0.17400  0.75000  1.0000
  Ba  Ba6       1.0  0.51200  0.32600  0.75000  1.0000
  Ba  Ba7       1.0  0.17300  0.52200  0.75000  1.0000
  Ba  Ba8       1.0  0.67300  0.97800  0.75000  1.0000
  Co  Co1       1.0  0.74600  0.19700  0.25000  1.0000
  Co  Co2       1.0  0.24600  0.30300  0.25000  1.0000
  Co  Co3       1.0  0.75400  0.69700  0.75000  1.0000
  Co  Co4       1.0  0.25400  0.80300  0.75000  1.0000
  S   S1        1.0  0.86100  0.05390  0.25000  1.0000
  S   S2        1.0  0.56500  0.14000  0.25000  1.0000
  S   S3        1.0  0.06530  0.36000  0.25000  1.0000
  S   S4        1.0  0.36100  0.44600  0.25000  1.0000
  S   S5        1.0  0.22700  0.71900  0.25000  1.0000
  S   S6        1.0  0.72700  0.78100  0.25000  1.0000
  S   S7        1.0  0.27300  0.21900  0.75000  1.0000
  S   S8        1.0  0.77300  0.28100  0.75000  1.0000
  S   S9        1.0  0.63900  0.55400  0.75000  1.0000
  S   S10       1.0  0.93500  0.64000  0.75000  1.0000
  S   S11       1.0  0.43500  0.86000  0.75000  1.0000
  S   S12       1.0  0.13900  0.94600  0.75000  1.0000
