data_image0
_chemical_formula_structural       O16Pb4Te2U2
_chemical_formula_sum              "O16 Pb4 Te2 U2"
_cell_length_a       5.7186
_cell_length_b       7.80933
_cell_length_c       7.95708
_cell_angle_alpha    90
_cell_angle_beta     90.8235
_cell_angle_gamma    90

_space_group_name_H-M_alt    "P 1"
_space_group_IT_number       1

loop_
  _space_group_symop_operation_xyz
  'x, y, z'

loop_
  _atom_site_type_symbol
  _atom_site_label
  _atom_site_symmetry_multiplicity
  _atom_site_fract_x
  _atom_site_fract_y
  _atom_site_fract_z
  _atom_site_occupancy
  O   O1        1.0  0.36000  0.72900  0.00375  1.0000
  O   O2        1.0  0.79800  0.93600  0.06550  1.0000
  O   O3        1.0  0.20200  0.41100  0.07080  1.0000
  O   O4        1.0  0.61600  0.52900  0.23200  1.0000
  O   O5        1.0  0.38400  0.02890  0.26800  1.0000
  O   O6        1.0  0.79800  0.91100  0.42900  1.0000
  O   O7        1.0  0.20200  0.43600  0.43400  1.0000
  O   O8        1.0  0.64000  0.22900  0.49600  1.0000
  O   O9        1.0  0.36000  0.77100  0.50400  1.0000
  O   O10       1.0  0.79800  0.56400  0.56600  1.0000
  O   O11       1.0  0.20200  0.08880  0.57100  1.0000
  O   O12       1.0  0.61600  0.97100  0.73200  1.0000
  O   O13       1.0  0.38400  0.47100  0.76800  1.0000
  O   O14       1.0  0.79800  0.58900  0.92900  1.0000
  O   O15       1.0  0.20200  0.06440  0.93400  1.0000
  O   O16       1.0  0.64000  0.27100  0.99600  1.0000
  Pb  Pb1       1.0  0.00113  0.66700  0.18900  1.0000
  Pb  Pb2       1.0  0.99900  0.16700  0.31100  1.0000
  Pb  Pb3       1.0  0.00113  0.83300  0.68900  1.0000
  Pb  Pb4       1.0  0.99900  0.33300  0.81100  1.0000
  Te  Te1       1.0  0.50000  0.50000  0.00000  1.0000
  Te  Te2       1.0  0.50000  0.00000  0.50000  1.0000
  U   U1        1.0  0.50000  0.00000  0.00000  1.0000
  U   U2        1.0  0.50000  0.50000  0.50000  1.0000
