data_image0
_chemical_formula_structural       B16Co4Yb4
_chemical_formula_sum              "B16 Co4 Yb4"
_cell_length_a       5.89151
_cell_length_b       11.4038
_cell_length_c       3.29955
_cell_angle_alpha    90
_cell_angle_beta     90
_cell_angle_gamma    90

_space_group_name_H-M_alt    "P 1"
_space_group_IT_number       1

loop_
  _space_group_symop_operation_xyz
  'x, y, z'

loop_
  _atom_site_type_symbol
  _atom_site_label
  _atom_site_symmetry_multiplicity
  _atom_site_fract_x
  _atom_site_fract_y
  _atom_site_fract_z
  _atom_site_occupancy
  B   B1        1.0  0.86000  0.03140  0.50000  1.0000
  B   B2        1.0  0.38900  0.04620  0.50000  1.0000
  B   B3        1.0  0.78200  0.18300  0.50000  1.0000
  B   B4        1.0  0.47600  0.19000  0.50000  1.0000
  B   B5        1.0  0.97600  0.31000  0.50000  1.0000
  B   B6        1.0  0.28200  0.31700  0.50000  1.0000
  B   B7        1.0  0.88900  0.45400  0.50000  1.0000
  B   B8        1.0  0.36000  0.46900  0.50000  1.0000
  B   B9        1.0  0.64000  0.53100  0.50000  1.0000
  B   B10       1.0  0.11100  0.54600  0.50000  1.0000
  B   B11       1.0  0.71800  0.68300  0.50000  1.0000
  B   B12       1.0  0.02430  0.69000  0.50000  1.0000
  B   B13       1.0  0.52400  0.81000  0.50000  1.0000
  B   B14       1.0  0.21800  0.81700  0.50000  1.0000
  B   B15       1.0  0.61100  0.95400  0.50000  1.0000
  B   B16       1.0  0.14000  0.96900  0.50000  1.0000
  Co  Co1       1.0  0.63400  0.08840  0.00000  1.0000
  Co  Co2       1.0  0.13400  0.41200  0.00000  1.0000
  Co  Co3       1.0  0.86600  0.58800  0.00000  1.0000
  Co  Co4       1.0  0.36600  0.91200  0.00000  1.0000
  Yb  Yb1       1.0  0.12700  0.15100  0.00000  1.0000
  Yb  Yb2       1.0  0.62700  0.34900  0.00000  1.0000
  Yb  Yb3       1.0  0.37300  0.65100  0.00000  1.0000
  Yb  Yb4       1.0  0.87300  0.84900  0.00000  1.0000
