data_image0
_chemical_formula_structural       Ba4Cl2Co4F14
_chemical_formula_sum              "Ba4 Cl2 Co4 F14"
_cell_length_a       7.5682
_cell_length_b       5.72367
_cell_length_c       8.80296
_cell_angle_alpha    90
_cell_angle_beta     106.797
_cell_angle_gamma    90

_space_group_name_H-M_alt    "P 1"
_space_group_IT_number       1

loop_
  _space_group_symop_operation_xyz
  'x, y, z'

loop_
  _atom_site_type_symbol
  _atom_site_label
  _atom_site_symmetry_multiplicity
  _atom_site_fract_x
  _atom_site_fract_y
  _atom_site_fract_z
  _atom_site_occupancy
  Ba  Ba1       1.0  0.29400  0.25000  0.07240  1.0000
  Ba  Ba2       1.0  0.67600  0.75000  0.41400  1.0000
  Ba  Ba3       1.0  0.32400  0.25000  0.58600  1.0000
  Ba  Ba4       1.0  0.70600  0.75000  0.92800  1.0000
  Cl  Cl1       1.0  0.88400  0.25000  0.47000  1.0000
  Cl  Cl2       1.0  0.11600  0.75000  0.53000  1.0000
  Co  Co1       1.0  0.81700  0.25000  0.17900  1.0000
  Co  Co2       1.0  0.17500  0.75000  0.27200  1.0000
  Co  Co3       1.0  0.82500  0.25000  0.72800  1.0000
  Co  Co4       1.0  0.18300  0.75000  0.82100  1.0000
  F   F1        1.0  0.25800  0.75000  0.06770  1.0000
  F   F2        1.0  0.62500  0.00632  0.16000  1.0000
  F   F3        1.0  0.62500  0.49400  0.16000  1.0000
  F   F4        1.0  0.99600  0.50100  0.17000  1.0000
  F   F5        1.0  0.99600  0.99900  0.17000  1.0000
  F   F6        1.0  0.36600  0.00165  0.34700  1.0000
  F   F7        1.0  0.36600  0.49800  0.34700  1.0000
  F   F8        1.0  0.63400  0.50200  0.65300  1.0000
  F   F9        1.0  0.63400  0.99800  0.65300  1.0000
  F   F10       1.0  0.00422  0.00083  0.83000  1.0000
  F   F11       1.0  0.00422  0.49900  0.83000  1.0000
  F   F12       1.0  0.37500  0.50600  0.84000  1.0000
  F   F13       1.0  0.37500  0.99400  0.84000  1.0000
  F   F14       1.0  0.74200  0.25000  0.93200  1.0000
