data_image0
_chemical_formula_structural       K2O16W4Yb2
_chemical_formula_sum              "K2 O16 W4 Yb2"
_cell_length_a       7.41455
_cell_length_b       7.41455
_cell_length_c       7.50106
_cell_angle_alpha    117.847
_cell_angle_beta     62.153
_cell_angle_gamma    91.6607

_space_group_name_H-M_alt    "P 1"
_space_group_IT_number       1

loop_
  _space_group_symop_operation_xyz
  'x, y, z'

loop_
  _atom_site_type_symbol
  _atom_site_label
  _atom_site_symmetry_multiplicity
  _atom_site_fract_x
  _atom_site_fract_y
  _atom_site_fract_z
  _atom_site_occupancy
  K   K1        1.0  0.70200  0.70200  0.25000  1.0000
  K   K2        1.0  0.29800  0.29800  0.75000  1.0000
  O   O1        1.0  0.13300  0.08470  0.02300  1.0000
  O   O2        1.0  0.12100  0.73200  0.04810  1.0000
  O   O3        1.0  0.43600  0.88800  0.13200  1.0000
  O   O4        1.0  0.29800  0.53900  0.18100  1.0000
  O   O5        1.0  0.53900  0.29800  0.31900  1.0000
  O   O6        1.0  0.88800  0.43600  0.36800  1.0000
  O   O7        1.0  0.73200  0.12100  0.45200  1.0000
  O   O8        1.0  0.08470  0.13300  0.47700  1.0000
  O   O9        1.0  0.91500  0.86700  0.52300  1.0000
  O   O10       1.0  0.26800  0.87900  0.54800  1.0000
  O   O11       1.0  0.11200  0.56400  0.63200  1.0000
  O   O12       1.0  0.46100  0.70200  0.68100  1.0000
  O   O13       1.0  0.70200  0.46100  0.81900  1.0000
  O   O14       1.0  0.56400  0.11200  0.86800  1.0000
  O   O15       1.0  0.87900  0.26800  0.95200  1.0000
  O   O16       1.0  0.86700  0.91500  0.97700  1.0000
  W   W1        1.0  0.80100  0.20100  0.23700  1.0000
  W   W2        1.0  0.20100  0.80100  0.26300  1.0000
  W   W3        1.0  0.79900  0.19900  0.73700  1.0000
  W   W4        1.0  0.19900  0.79900  0.76300  1.0000
  Yb  Yb1       1.0  0.27000  0.27000  0.25000  1.0000
  Yb  Yb2       1.0  0.73000  0.73000  0.75000  1.0000
