data_image0
_chemical_formula_structural       As8K14Nb2
_chemical_formula_sum              "As8 K14 Nb2"
_cell_length_a       10.3018
_cell_length_b       9.25502
_cell_length_c       8.37525
_cell_angle_alpha    90
_cell_angle_beta     90
_cell_angle_gamma    90

_space_group_name_H-M_alt    "P 1"
_space_group_IT_number       1

loop_
  _space_group_symop_operation_xyz
  'x, y, z'

loop_
  _atom_site_type_symbol
  _atom_site_label
  _atom_site_symmetry_multiplicity
  _atom_site_fract_x
  _atom_site_fract_y
  _atom_site_fract_z
  _atom_site_occupancy
  As  As1       1.0  0.00000  0.31500  0.30000  1.0000
  As  As2       1.0  0.29600  0.81000  0.40500  1.0000
  As  As3       1.0  0.70400  0.81000  0.40500  1.0000
  As  As4       1.0  0.50000  0.41300  0.42100  1.0000
  As  As5       1.0  0.50000  0.68500  0.80000  1.0000
  As  As6       1.0  0.20400  0.19000  0.90500  1.0000
  As  As7       1.0  0.79600  0.19000  0.90500  1.0000
  As  As8       1.0  0.00000  0.58700  0.92100  1.0000
  K   K1        1.0  0.50000  0.89900  0.10700  1.0000
  K   K2        1.0  0.28900  0.53600  0.12800  1.0000
  K   K3        1.0  0.71100  0.53600  0.12800  1.0000
  K   K4        1.0  0.00000  0.96500  0.12800  1.0000
  K   K5        1.0  0.28500  0.16800  0.29200  1.0000
  K   K6        1.0  0.71500  0.16800  0.29200  1.0000
  K   K7        1.0  0.00000  0.65800  0.34000  1.0000
  K   K8        1.0  0.00000  0.10100  0.60700  1.0000
  K   K9        1.0  0.21100  0.46400  0.62800  1.0000
  K   K10       1.0  0.78900  0.46400  0.62800  1.0000
  K   K11       1.0  0.50000  0.03490  0.62800  1.0000
  K   K12       1.0  0.21500  0.83200  0.79200  1.0000
  K   K13       1.0  0.78500  0.83200  0.79200  1.0000
  K   K14       1.0  0.50000  0.34200  0.84000  1.0000
  Nb  Nb1       1.0  0.00000  0.32300  0.00052  1.0000
  Nb  Nb2       1.0  0.50000  0.67700  0.50100  1.0000
