data_image0
_chemical_formula_structural       N4Nd4O16
_chemical_formula_sum              "N4 Nd4 O16"
_cell_length_a       6.92983
_cell_length_b       5.23667
_cell_length_c       9.00863
_cell_angle_alpha    90
_cell_angle_beta     90
_cell_angle_gamma    90

_space_group_name_H-M_alt    "P 1"
_space_group_IT_number       1

loop_
  _space_group_symop_operation_xyz
  'x, y, z'

loop_
  _atom_site_type_symbol
  _atom_site_label
  _atom_site_symmetry_multiplicity
  _atom_site_fract_x
  _atom_site_fract_y
  _atom_site_fract_z
  _atom_site_occupancy
  N   N1        1.0  0.30400  0.25000  0.17200  1.0000
  N   N2        1.0  0.80400  0.25000  0.32800  1.0000
  N   N3        1.0  0.19600  0.75000  0.67200  1.0000
  N   N4        1.0  0.69600  0.75000  0.82800  1.0000
  Nd  Nd1       1.0  0.69700  0.75000  0.15500  1.0000
  Nd  Nd2       1.0  0.19700  0.75000  0.34500  1.0000
  Nd  Nd3       1.0  0.80300  0.25000  0.65500  1.0000
  Nd  Nd4       1.0  0.30300  0.25000  0.84500  1.0000
  O   O1        1.0  0.33900  0.04040  0.10600  1.0000
  O   O2        1.0  0.33900  0.46000  0.10600  1.0000
  O   O3        1.0  0.00390  0.75000  0.15600  1.0000
  O   O4        1.0  0.73100  0.25000  0.20000  1.0000
  O   O5        1.0  0.23100  0.25000  0.30000  1.0000
  O   O6        1.0  0.50400  0.75000  0.34400  1.0000
  O   O7        1.0  0.83900  0.04040  0.39400  1.0000
  O   O8        1.0  0.83900  0.46000  0.39400  1.0000
  O   O9        1.0  0.16100  0.54000  0.60600  1.0000
  O   O10       1.0  0.16100  0.96000  0.60600  1.0000
  O   O11       1.0  0.49600  0.25000  0.65600  1.0000
  O   O12       1.0  0.76900  0.75000  0.70000  1.0000
  O   O13       1.0  0.26900  0.75000  0.80000  1.0000
  O   O14       1.0  0.99600  0.25000  0.84400  1.0000
  O   O15       1.0  0.66100  0.54000  0.89400  1.0000
  O   O16       1.0  0.66100  0.96000  0.89400  1.0000
