data_image0
_chemical_formula_structural       Ba5Co5O14
_chemical_formula_sum              "Ba5 Co5 O14"
_cell_length_a       5.65192
_cell_length_b       5.65317
_cell_length_c       11.8527
_cell_angle_alpha    90
_cell_angle_beta     90.0635
_cell_angle_gamma    120.007

_space_group_name_H-M_alt    "P 1"
_space_group_IT_number       1

loop_
  _space_group_symop_operation_xyz
  'x, y, z'

loop_
  _atom_site_type_symbol
  _atom_site_label
  _atom_site_symmetry_multiplicity
  _atom_site_fract_x
  _atom_site_fract_y
  _atom_site_fract_z
  _atom_site_occupancy
  Ba  Ba1       1.0  0.00000  0.00000  0.00000  1.0000
  Ba  Ba2       1.0  0.66500  0.33200  0.22700  1.0000
  Ba  Ba3       1.0  0.33300  0.66600  0.41800  1.0000
  Ba  Ba4       1.0  0.66700  0.33400  0.58200  1.0000
  Ba  Ba5       1.0  0.33500  0.66800  0.77300  1.0000
  Co  Co1       1.0  0.33300  0.66600  0.13900  1.0000
  Co  Co2       1.0  0.99900  0.99900  0.29300  1.0000
  Co  Co3       1.0  0.00000  0.00000  0.50000  1.0000
  Co  Co4       1.0  0.00129  0.00064  0.70700  1.0000
  Co  Co5       1.0  0.66700  0.33400  0.86100  1.0000
  O   O1        1.0  0.66200  0.33100  0.00682  1.0000
  O   O2        1.0  0.67500  0.83700  0.19700  1.0000
  O   O3        1.0  0.16100  0.32400  0.19700  1.0000
  O   O4        1.0  0.16100  0.83700  0.19700  1.0000
  O   O5        1.0  0.85100  0.14800  0.39800  1.0000
  O   O6        1.0  0.85100  0.70200  0.39800  1.0000
  O   O7        1.0  0.29700  0.14800  0.39900  1.0000
  O   O8        1.0  0.70300  0.85200  0.60100  1.0000
  O   O9        1.0  0.14900  0.29800  0.60200  1.0000
  O   O10       1.0  0.14900  0.85200  0.60200  1.0000
  O   O11       1.0  0.83900  0.16300  0.80300  1.0000
  O   O12       1.0  0.83900  0.67600  0.80300  1.0000
  O   O13       1.0  0.32500  0.16300  0.80300  1.0000
  O   O14       1.0  0.33800  0.66900  0.99300  1.0000
