data_image0
_chemical_formula_structural       F16Li2Na2Yb4
_chemical_formula_sum              "F16 Li2 Na2 Yb4"
_cell_length_a       6.45769
_cell_length_b       6.45769
_cell_length_c       6.72786
_cell_angle_alpha    90.0036
_cell_angle_beta     90.0036
_cell_angle_gamma    77.5496

_space_group_name_H-M_alt    "P 1"
_space_group_IT_number       1

loop_
  _space_group_symop_operation_xyz
  'x, y, z'

loop_
  _atom_site_type_symbol
  _atom_site_label
  _atom_site_symmetry_multiplicity
  _atom_site_fract_x
  _atom_site_fract_y
  _atom_site_fract_z
  _atom_site_occupancy
  F   F1        1.0  0.31600  0.95600  0.05410  1.0000
  F   F2        1.0  0.04490  0.68400  0.05410  1.0000
  F   F3        1.0  0.67000  0.73700  0.24800  1.0000
  F   F4        1.0  0.90500  0.09500  0.25000  1.0000
  F   F5        1.0  0.59400  0.40600  0.25000  1.0000
  F   F6        1.0  0.26300  0.33000  0.25200  1.0000
  F   F7        1.0  0.31600  0.95500  0.44600  1.0000
  F   F8        1.0  0.04400  0.68400  0.44600  1.0000
  F   F9        1.0  0.95600  0.31600  0.55400  1.0000
  F   F10       1.0  0.68400  0.04490  0.55400  1.0000
  F   F11       1.0  0.73700  0.67000  0.74800  1.0000
  F   F12       1.0  0.40600  0.59400  0.75000  1.0000
  F   F13       1.0  0.09500  0.90500  0.75000  1.0000
  F   F14       1.0  0.33000  0.26300  0.75200  1.0000
  F   F15       1.0  0.95500  0.31600  0.94600  1.0000
  F   F16       1.0  0.68400  0.04400  0.94600  1.0000
  Li  Li1       1.0  0.00000  0.00000  0.00000  1.0000
  Li  Li2       1.0  0.00000  0.00000  0.50000  1.0000
  Na  Na1       1.0  0.32700  0.67300  0.25000  1.0000
  Na  Na2       1.0  0.67300  0.32700  0.75000  1.0000
  Yb  Yb1       1.0  0.92300  0.45000  0.25000  1.0000
  Yb  Yb2       1.0  0.55000  0.07710  0.25000  1.0000
  Yb  Yb3       1.0  0.45000  0.92300  0.75000  1.0000
  Yb  Yb4       1.0  0.07710  0.55000  0.75000  1.0000
