data_image0
_chemical_formula_structural       Ba12O4Sb8
_chemical_formula_sum              "Ba12 O4 Sb8"
_cell_length_a       12.5417
_cell_length_b       12.8267
_cell_length_c       5.12969
_cell_angle_alpha    90
_cell_angle_beta     90
_cell_angle_gamma    90

_space_group_name_H-M_alt    "P 1"
_space_group_IT_number       1

loop_
  _space_group_symop_operation_xyz
  'x, y, z'

loop_
  _atom_site_type_symbol
  _atom_site_label
  _atom_site_symmetry_multiplicity
  _atom_site_fract_x
  _atom_site_fract_y
  _atom_site_fract_z
  _atom_site_occupancy
  Ba  Ba1       1.0  0.82000  0.01640  0.00000  1.0000
  Ba  Ba2       1.0  0.52800  0.17200  0.00000  1.0000
  Ba  Ba3       1.0  0.02780  0.32800  0.00000  1.0000
  Ba  Ba4       1.0  0.32000  0.48400  0.00000  1.0000
  Ba  Ba5       1.0  0.68000  0.51600  0.00000  1.0000
  Ba  Ba6       1.0  0.97200  0.67200  0.00000  1.0000
  Ba  Ba7       1.0  0.47200  0.82800  0.00000  1.0000
  Ba  Ba8       1.0  0.18000  0.98400  0.00000  1.0000
  Ba  Ba9       1.0  0.75600  0.24100  0.50000  1.0000
  Ba  Ba10      1.0  0.25600  0.25900  0.50000  1.0000
  Ba  Ba11      1.0  0.74400  0.74100  0.50000  1.0000
  Ba  Ba12      1.0  0.24400  0.75900  0.50000  1.0000
  O   O1        1.0  0.73000  0.19500  0.00000  1.0000
  O   O2        1.0  0.23000  0.30500  0.00000  1.0000
  O   O3        1.0  0.77000  0.69500  0.00000  1.0000
  O   O4        1.0  0.27000  0.80500  0.00000  1.0000
  Sb  Sb1       1.0  0.38700  0.02110  0.50000  1.0000
  Sb  Sb2       1.0  0.01150  0.11200  0.50000  1.0000
  Sb  Sb3       1.0  0.51100  0.38800  0.50000  1.0000
  Sb  Sb4       1.0  0.88700  0.47900  0.50000  1.0000
  Sb  Sb5       1.0  0.11300  0.52100  0.50000  1.0000
  Sb  Sb6       1.0  0.48900  0.61200  0.50000  1.0000
  Sb  Sb7       1.0  0.98900  0.88800  0.50000  1.0000
  Sb  Sb8       1.0  0.61300  0.97900  0.50000  1.0000
