data_image0
_chemical_formula_structural       In2O16Se4V2
_chemical_formula_sum              "In2 O16 Se4 V2"
_cell_length_a       4.56767
_cell_length_b       6.88825
_cell_length_c       10.4352
_cell_angle_alpha    90
_cell_angle_beta     97.8927
_cell_angle_gamma    90

_space_group_name_H-M_alt    "P 1"
_space_group_IT_number       1

loop_
  _space_group_symop_operation_xyz
  'x, y, z'

loop_
  _atom_site_type_symbol
  _atom_site_label
  _atom_site_symmetry_multiplicity
  _atom_site_fract_x
  _atom_site_fract_y
  _atom_site_fract_z
  _atom_site_occupancy
  In  In1       1.0  0.21900  0.25000  0.94700  1.0000
  In  In2       1.0  0.21900  0.75000  0.94700  1.0000
  O   O1        1.0  0.00787  0.00000  0.02660  1.0000
  O   O2        1.0  0.14500  0.50000  0.07030  1.0000
  O   O3        1.0  0.57100  0.20200  0.10100  1.0000
  O   O4        1.0  0.57100  0.79800  0.10100  1.0000
  O   O5        1.0  0.13100  0.30200  0.27700  1.0000
  O   O6        1.0  0.13100  0.69800  0.27700  1.0000
  O   O7        1.0  0.22200  0.00000  0.42400  1.0000
  O   O8        1.0  0.77100  0.24700  0.46600  1.0000
  O   O9        1.0  0.77100  0.75300  0.46600  1.0000
  O   O10       1.0  0.24800  0.50000  0.49000  1.0000
  O   O11       1.0  0.28800  0.19900  0.63900  1.0000
  O   O12       1.0  0.28800  0.80100  0.63900  1.0000
  O   O13       1.0  0.81300  0.29600  0.82300  1.0000
  O   O14       1.0  0.81300  0.70400  0.82300  1.0000
  O   O15       1.0  0.34800  0.50000  0.83900  1.0000
  O   O16       1.0  0.37300  0.00000  0.84700  1.0000
  Se  Se1       1.0  0.77600  0.00000  0.15100  1.0000
  Se  Se2       1.0  0.32900  0.50000  0.23100  1.0000
  Se  Se3       1.0  0.50000  0.00000  0.69500  1.0000
  Se  Se4       1.0  0.64800  0.50000  0.74800  1.0000
  V   V1        1.0  0.12400  0.24900  0.45900  1.0000
  V   V2        1.0  0.12400  0.75100  0.45900  1.0000
