data_image0
_chemical_formula_structural       Cs4F12O4V4
_chemical_formula_sum              "Cs4 F12 O4 V4"
_cell_length_a       8.82452
_cell_length_b       11.3517
_cell_length_c       3.90702
_cell_angle_alpha    90
_cell_angle_beta     90
_cell_angle_gamma    90

_space_group_name_H-M_alt    "P 1"
_space_group_IT_number       1

loop_
  _space_group_symop_operation_xyz
  'x, y, z'

loop_
  _atom_site_type_symbol
  _atom_site_label
  _atom_site_symmetry_multiplicity
  _atom_site_fract_x
  _atom_site_fract_y
  _atom_site_fract_z
  _atom_site_occupancy
  Cs  Cs1       1.0  0.50200  0.19700  0.50000  1.0000
  Cs  Cs2       1.0  0.00174  0.30300  0.50000  1.0000
  Cs  Cs3       1.0  0.99800  0.69700  0.50000  1.0000
  Cs  Cs4       1.0  0.49800  0.80300  0.50000  1.0000
  F   F1        1.0  0.04290  0.10500  0.00000  1.0000
  F   F2        1.0  0.76300  0.19500  0.00000  1.0000
  F   F3        1.0  0.26300  0.30500  0.00000  1.0000
  F   F4        1.0  0.54300  0.39500  0.00000  1.0000
  F   F5        1.0  0.45700  0.60500  0.00000  1.0000
  F   F6        1.0  0.73700  0.69500  0.00000  1.0000
  F   F7        1.0  0.23700  0.80500  0.00000  1.0000
  F   F8        1.0  0.95700  0.89500  0.00000  1.0000
  F   F9        1.0  0.84400  0.04540  0.50000  1.0000
  F   F10       1.0  0.34400  0.45500  0.50000  1.0000
  F   F11       1.0  0.65600  0.54500  0.50000  1.0000
  F   F12       1.0  0.15600  0.95500  0.50000  1.0000
  O   O1        1.0  0.34500  0.03460  0.00000  1.0000
  O   O2        1.0  0.84500  0.46500  0.00000  1.0000
  O   O3        1.0  0.15500  0.53500  0.00000  1.0000
  O   O4        1.0  0.65500  0.96500  0.00000  1.0000
  V   V1        1.0  0.81900  0.03250  0.00000  1.0000
  V   V2        1.0  0.31900  0.46800  0.00000  1.0000
  V   V3        1.0  0.68100  0.53200  0.00000  1.0000
  V   V4        1.0  0.18100  0.96800  0.00000  1.0000
