data_image0
_chemical_formula_structural       B4Co14U6
_chemical_formula_sum              "B4 Co14 U6"
_cell_length_a       4.96055
_cell_length_b       4.96056
_cell_length_c       13.9559
_cell_angle_alpha    90
_cell_angle_beta     90
_cell_angle_gamma    120

_space_group_name_H-M_alt    "P 1"
_space_group_IT_number       1

loop_
  _space_group_symop_operation_xyz
  'x, y, z'

loop_
  _atom_site_type_symbol
  _atom_site_label
  _atom_site_symmetry_multiplicity
  _atom_site_fract_x
  _atom_site_fract_y
  _atom_site_fract_z
  _atom_site_occupancy
  B   B1        1.0  0.00000  0.00000  0.25000  1.0000
  B   B2        1.0  0.66700  0.33300  0.25000  1.0000
  B   B3        1.0  0.00000  0.00000  0.75000  1.0000
  B   B4        1.0  0.33300  0.66700  0.75000  1.0000
  Co  Co1       1.0  0.00000  0.00000  0.00000  1.0000
  Co  Co2       1.0  0.83500  0.66900  0.14700  1.0000
  Co  Co3       1.0  0.33100  0.16500  0.14700  1.0000
  Co  Co4       1.0  0.83500  0.16500  0.14700  1.0000
  Co  Co5       1.0  0.33100  0.16500  0.35300  1.0000
  Co  Co6       1.0  0.83500  0.16500  0.35300  1.0000
  Co  Co7       1.0  0.83500  0.66900  0.35300  1.0000
  Co  Co8       1.0  0.00000  0.00000  0.50000  1.0000
  Co  Co9       1.0  0.16500  0.33100  0.64700  1.0000
  Co  Co10      1.0  0.16500  0.83500  0.64700  1.0000
  Co  Co11      1.0  0.66900  0.83500  0.64700  1.0000
  Co  Co12      1.0  0.16500  0.83500  0.85300  1.0000
  Co  Co13      1.0  0.66900  0.83500  0.85300  1.0000
  Co  Co14      1.0  0.16500  0.33100  0.85300  1.0000
  U   U1        1.0  0.33300  0.66700  0.03050  1.0000
  U   U2        1.0  0.33300  0.66700  0.25000  1.0000
  U   U3        1.0  0.33300  0.66700  0.46900  1.0000
  U   U4        1.0  0.66700  0.33300  0.53100  1.0000
  U   U5        1.0  0.66700  0.33300  0.75000  1.0000
  U   U6        1.0  0.66700  0.33300  0.96900  1.0000
