data_image0
_chemical_formula_structural       F12O4Rb4V4
_chemical_formula_sum              "F12 O4 Rb4 V4"
_cell_length_a       8.35056
_cell_length_b       11.2189
_cell_length_c       3.88067
_cell_angle_alpha    90
_cell_angle_beta     90
_cell_angle_gamma    90

_space_group_name_H-M_alt    "P 1"
_space_group_IT_number       1

loop_
  _space_group_symop_operation_xyz
  'x, y, z'

loop_
  _atom_site_type_symbol
  _atom_site_label
  _atom_site_symmetry_multiplicity
  _atom_site_fract_x
  _atom_site_fract_y
  _atom_site_fract_z
  _atom_site_occupancy
  F   F1        1.0  0.53200  0.10800  0.00000  1.0000
  F   F2        1.0  0.22800  0.17900  0.00000  1.0000
  F   F3        1.0  0.72800  0.32100  0.00000  1.0000
  F   F4        1.0  0.03180  0.39200  0.00000  1.0000
  F   F5        1.0  0.96800  0.60800  0.00000  1.0000
  F   F6        1.0  0.27200  0.67900  0.00000  1.0000
  F   F7        1.0  0.77200  0.82100  0.00000  1.0000
  F   F8        1.0  0.46800  0.89200  0.00000  1.0000
  F   F9        1.0  0.33100  0.03560  0.50000  1.0000
  F   F10       1.0  0.83100  0.46400  0.50000  1.0000
  F   F11       1.0  0.16900  0.53600  0.50000  1.0000
  F   F12       1.0  0.66900  0.96400  0.50000  1.0000
  O   O1        1.0  0.85600  0.06510  0.00000  1.0000
  O   O2        1.0  0.35600  0.43500  0.00000  1.0000
  O   O3        1.0  0.64400  0.56500  0.00000  1.0000
  O   O4        1.0  0.14400  0.93500  0.00000  1.0000
  Rb  Rb1       1.0  0.98800  0.21600  0.50000  1.0000
  Rb  Rb2       1.0  0.48800  0.28400  0.50000  1.0000
  Rb  Rb3       1.0  0.51200  0.71600  0.50000  1.0000
  Rb  Rb4       1.0  0.01170  0.78400  0.50000  1.0000
  V   V1        1.0  0.30400  0.01950  0.00000  1.0000
  V   V2        1.0  0.80400  0.48100  0.00000  1.0000
  V   V3        1.0  0.19600  0.51900  0.00000  1.0000
  V   V4        1.0  0.69600  0.98100  0.00000  1.0000
