data_image0
_chemical_formula_structural       Ba6O6S8V4
_chemical_formula_sum              "Ba6 O6 S8 V4"
_cell_length_a       10.2061
_cell_length_b       10.2302
_cell_length_c       6.01009
_cell_angle_alpha    90
_cell_angle_beta     90
_cell_angle_gamma    120.036

_space_group_name_H-M_alt    "P 1"
_space_group_IT_number       1

loop_
  _space_group_symop_operation_xyz
  'x, y, z'

loop_
  _atom_site_type_symbol
  _atom_site_label
  _atom_site_symmetry_multiplicity
  _atom_site_fract_x
  _atom_site_fract_y
  _atom_site_fract_z
  _atom_site_occupancy
  Ba  Ba1       1.0  0.69000  0.06670  0.17100  1.0000
  Ba  Ba2       1.0  0.93300  0.62200  0.17200  1.0000
  Ba  Ba3       1.0  0.37700  0.31000  0.17200  1.0000
  Ba  Ba4       1.0  0.31000  0.93300  0.67100  1.0000
  Ba  Ba5       1.0  0.06710  0.37800  0.67200  1.0000
  Ba  Ba6       1.0  0.62300  0.69000  0.67200  1.0000
  O   O1        1.0  0.16100  0.62900  0.41500  1.0000
  O   O2        1.0  0.46800  0.83900  0.41500  1.0000
  O   O3        1.0  0.37100  0.53200  0.41500  1.0000
  O   O4        1.0  0.83900  0.37100  0.91500  1.0000
  O   O5        1.0  0.53200  0.16100  0.91500  1.0000
  O   O6        1.0  0.62900  0.46800  0.91500  1.0000
  S   S1        1.0  0.78900  0.82300  0.18300  1.0000
  S   S2        1.0  0.03570  0.21300  0.18300  1.0000
  S   S3        1.0  0.17600  0.96400  0.18300  1.0000
  S   S4        1.0  0.66700  0.33300  0.44300  1.0000
  S   S5        1.0  0.21100  0.17700  0.68300  1.0000
  S   S6        1.0  0.96400  0.78700  0.68300  1.0000
  S   S7        1.0  0.82400  0.03640  0.68300  1.0000
  S   S8        1.0  0.33300  0.66700  0.94300  1.0000
  V   V1        1.0  0.33300  0.66700  0.31100  1.0000
  V   V2        1.0  0.00018  0.00000  0.43300  1.0000
  V   V3        1.0  0.66700  0.33300  0.81100  1.0000
  V   V4        1.0  0.00000  0.00014  0.93300  1.0000
