data_image0
_chemical_formula_structural       Al4I16Na4
_chemical_formula_sum              "Al4 I16 Na4"
_cell_length_a       15.072
_cell_length_b       8.25323
_cell_length_c       8.2246
_cell_angle_alpha    90
_cell_angle_beta     90
_cell_angle_gamma    90

_space_group_name_H-M_alt    "P 1"
_space_group_IT_number       1

loop_
  _space_group_symop_operation_xyz
  'x, y, z'

loop_
  _atom_site_type_symbol
  _atom_site_label
  _atom_site_symmetry_multiplicity
  _atom_site_fract_x
  _atom_site_fract_y
  _atom_site_fract_z
  _atom_site_occupancy
  Al  Al1       1.0  0.39800  0.25000  0.19800  1.0000
  Al  Al2       1.0  0.89800  0.25000  0.30200  1.0000
  Al  Al3       1.0  0.10200  0.75000  0.69800  1.0000
  Al  Al4       1.0  0.60200  0.75000  0.80200  1.0000
  I   I1        1.0  0.55300  0.75000  0.10000  1.0000
  I   I2        1.0  0.03540  0.25000  0.12100  1.0000
  I   I3        1.0  0.79900  0.00252  0.24000  1.0000
  I   I4        1.0  0.79900  0.49700  0.24000  1.0000
  I   I5        1.0  0.29900  0.00252  0.26000  1.0000
  I   I6        1.0  0.29900  0.49700  0.26000  1.0000
  I   I7        1.0  0.53500  0.25000  0.37900  1.0000
  I   I8        1.0  0.05280  0.75000  0.40000  1.0000
  I   I9        1.0  0.94700  0.25000  0.60000  1.0000
  I   I10       1.0  0.46500  0.75000  0.62100  1.0000
  I   I11       1.0  0.70100  0.50300  0.74000  1.0000
  I   I12       1.0  0.70100  0.99700  0.74000  1.0000
  I   I13       1.0  0.20100  0.50300  0.76000  1.0000
  I   I14       1.0  0.20100  0.99700  0.76000  1.0000
  I   I15       1.0  0.96500  0.75000  0.87900  1.0000
  I   I16       1.0  0.44700  0.25000  0.90000  1.0000
  Na  Na1       1.0  0.65000  0.25000  0.05410  1.0000
  Na  Na2       1.0  0.15000  0.25000  0.44600  1.0000
  Na  Na3       1.0  0.85000  0.75000  0.55400  1.0000
  Na  Na4       1.0  0.35000  0.75000  0.94600  1.0000
