data_image0
_chemical_formula_structural       Cu2Dy6Ge2Se14
_chemical_formula_sum              "Cu2 Dy6 Ge2 Se14"
_cell_length_a       10.3299
_cell_length_b       10.33
_cell_length_c       6.1057
_cell_angle_alpha    90
_cell_angle_beta     90
_cell_angle_gamma    120

_space_group_name_H-M_alt    "P 1"
_space_group_IT_number       1

loop_
  _space_group_symop_operation_xyz
  'x, y, z'

loop_
  _atom_site_type_symbol
  _atom_site_label
  _atom_site_symmetry_multiplicity
  _atom_site_fract_x
  _atom_site_fract_y
  _atom_site_fract_z
  _atom_site_occupancy
  Cu  Cu1       1.0  0.00000  0.00000  0.47300  1.0000
  Cu  Cu2       1.0  0.00000  0.00000  0.97300  1.0000
  Dy  Dy1       1.0  0.13600  0.78000  0.42000  1.0000
  Dy  Dy2       1.0  0.22000  0.35600  0.42000  1.0000
  Dy  Dy3       1.0  0.64400  0.86400  0.42000  1.0000
  Dy  Dy4       1.0  0.86400  0.22000  0.92000  1.0000
  Dy  Dy5       1.0  0.78000  0.64400  0.92000  1.0000
  Dy  Dy6       1.0  0.35600  0.13600  0.92000  1.0000
  Ge  Ge1       1.0  0.66700  0.33300  0.33700  1.0000
  Ge  Ge2       1.0  0.33300  0.66700  0.83700  1.0000
  Se  Se1       1.0  0.57500  0.09290  0.17000  1.0000
  Se  Se2       1.0  0.51800  0.42500  0.17000  1.0000
  Se  Se3       1.0  0.90700  0.48200  0.17000  1.0000
  Se  Se4       1.0  0.33300  0.66700  0.22500  1.0000
  Se  Se5       1.0  0.26300  0.10300  0.45600  1.0000
  Se  Se6       1.0  0.89700  0.16000  0.45600  1.0000
  Se  Se7       1.0  0.84000  0.73700  0.45600  1.0000
  Se  Se8       1.0  0.48200  0.57500  0.67000  1.0000
  Se  Se9       1.0  0.42500  0.90700  0.67000  1.0000
  Se  Se10      1.0  0.09290  0.51800  0.67000  1.0000
  Se  Se11      1.0  0.66700  0.33300  0.72500  1.0000
  Se  Se12      1.0  0.10300  0.84000  0.95600  1.0000
  Se  Se13      1.0  0.73700  0.89700  0.95600  1.0000
  Se  Se14      1.0  0.16000  0.26300  0.95600  1.0000
