data_image0
_chemical_formula_structural       B8Mn2O14
_chemical_formula_sum              "B8 Mn2 O14"
_cell_length_a       5.1833
_cell_length_b       6.3656
_cell_length_c       6.3656
_cell_angle_alpha    62.7958
_cell_angle_beta     90
_cell_angle_gamma    90

_space_group_name_H-M_alt    "P 1"
_space_group_IT_number       1

loop_
  _space_group_symop_operation_xyz
  'x, y, z'

loop_
  _atom_site_type_symbol
  _atom_site_label
  _atom_site_symmetry_multiplicity
  _atom_site_fract_x
  _atom_site_fract_y
  _atom_site_fract_z
  _atom_site_occupancy
  B   B1        1.0  0.25000  0.67800  0.08320  1.0000
  B   B2        1.0  0.00000  0.29300  0.29300  1.0000
  B   B3        1.0  0.50000  0.29300  0.29300  1.0000
  B   B4        1.0  0.25000  0.91700  0.32200  1.0000
  B   B5        1.0  0.75000  0.08320  0.67800  1.0000
  B   B6        1.0  0.00000  0.70700  0.70700  1.0000
  B   B7        1.0  0.50000  0.70700  0.70700  1.0000
  B   B8        1.0  0.75000  0.32200  0.91700  1.0000
  Mn  Mn1       1.0  0.75000  0.77700  0.22300  1.0000
  Mn  Mn2       1.0  0.25000  0.22300  0.77700  1.0000
  O   O1        1.0  0.25000  0.90300  0.09670  1.0000
  O   O2        1.0  0.02270  0.54500  0.18900  1.0000
  O   O3        1.0  0.47700  0.54500  0.18900  1.0000
  O   O4        1.0  0.75000  0.24100  0.19000  1.0000
  O   O5        1.0  0.25000  0.19000  0.24100  1.0000
  O   O6        1.0  0.02270  0.81100  0.45500  1.0000
  O   O7        1.0  0.47700  0.81100  0.45500  1.0000
  O   O8        1.0  0.52300  0.18900  0.54500  1.0000
  O   O9        1.0  0.97700  0.18900  0.54500  1.0000
  O   O10       1.0  0.75000  0.81000  0.75900  1.0000
  O   O11       1.0  0.25000  0.75900  0.81000  1.0000
  O   O12       1.0  0.52300  0.45500  0.81100  1.0000
  O   O13       1.0  0.97700  0.45500  0.81100  1.0000
  O   O14       1.0  0.75000  0.09670  0.90300  1.0000
