data_image0
_chemical_formula_structural       Ga2N10Sr12
_chemical_formula_sum              "Ga2 N10 Sr12"
_cell_length_a       6.66769
_cell_length_b       6.66769
_cell_length_c       12.9655
_cell_angle_alpha    90
_cell_angle_beta     90
_cell_angle_gamma    120

_space_group_name_H-M_alt    "P 1"
_space_group_IT_number       1

loop_
  _space_group_symop_operation_xyz
  'x, y, z'

loop_
  _atom_site_type_symbol
  _atom_site_label
  _atom_site_symmetry_multiplicity
  _atom_site_fract_x
  _atom_site_fract_y
  _atom_site_fract_z
  _atom_site_occupancy
  Ga  Ga1       1.0  0.00000  0.00000  0.25000  1.0000
  Ga  Ga2       1.0  0.00000  0.00000  0.75000  1.0000
  N   N1        1.0  0.66700  0.33300  0.00000  1.0000
  N   N2        1.0  0.33300  0.66700  0.00000  1.0000
  N   N3        1.0  0.71400  0.71400  0.25000  1.0000
  N   N4        1.0  0.28600  0.00000  0.25000  1.0000
  N   N5        1.0  0.00000  0.28600  0.25000  1.0000
  N   N6        1.0  0.66700  0.33300  0.50000  1.0000
  N   N7        1.0  0.33300  0.66700  0.50000  1.0000
  N   N8        1.0  0.28600  0.28600  0.75000  1.0000
  N   N9        1.0  0.71400  0.00000  0.75000  1.0000
  N   N10       1.0  0.00000  0.71400  0.75000  1.0000
  Sr  Sr1       1.0  0.59500  0.00000  0.12400  1.0000
  Sr  Sr2       1.0  0.00000  0.59500  0.12400  1.0000
  Sr  Sr3       1.0  0.40500  0.40500  0.12400  1.0000
  Sr  Sr4       1.0  0.40500  0.40500  0.37600  1.0000
  Sr  Sr5       1.0  0.59500  0.00000  0.37600  1.0000
  Sr  Sr6       1.0  0.00000  0.59500  0.37600  1.0000
  Sr  Sr7       1.0  0.40500  0.00000  0.62400  1.0000
  Sr  Sr8       1.0  0.00000  0.40500  0.62400  1.0000
  Sr  Sr9       1.0  0.59500  0.59500  0.62400  1.0000
  Sr  Sr10      1.0  0.59500  0.59500  0.87600  1.0000
  Sr  Sr11      1.0  0.40500  0.00000  0.87600  1.0000
  Sr  Sr12      1.0  0.00000  0.40500  0.87600  1.0000
