data_image0
_chemical_formula_structural       Ba3F18Ir3
_chemical_formula_sum              "Ba3 F18 Ir3"
_cell_length_a       7.184
_cell_length_b       7.184
_cell_length_c       7.08406
_cell_angle_alpha    89.9962
_cell_angle_beta     90.0024
_cell_angle_gamma    120.002

_space_group_name_H-M_alt    "P 1"
_space_group_IT_number       1

loop_
  _space_group_symop_operation_xyz
  'x, y, z'

loop_
  _atom_site_type_symbol
  _atom_site_label
  _atom_site_symmetry_multiplicity
  _atom_site_fract_x
  _atom_site_fract_y
  _atom_site_fract_z
  _atom_site_occupancy
  Ba  Ba1       1.0  0.33300  0.66700  0.16700  1.0000
  Ba  Ba2       1.0  0.00000  0.00000  0.50000  1.0000
  Ba  Ba3       1.0  0.66700  0.33300  0.83300  1.0000
  F   F1        1.0  0.61300  0.09750  0.16300  1.0000
  F   F2        1.0  0.90300  0.51500  0.16300  1.0000
  F   F3        1.0  0.48500  0.38700  0.16300  1.0000
  F   F4        1.0  0.05420  0.23600  0.17100  1.0000
  F   F5        1.0  0.18200  0.94600  0.17100  1.0000
  F   F6        1.0  0.76400  0.81800  0.17100  1.0000
  F   F7        1.0  0.15200  0.72100  0.49600  1.0000
  F   F8        1.0  0.56900  0.84800  0.49600  1.0000
  F   F9        1.0  0.27900  0.43100  0.49600  1.0000
  F   F10       1.0  0.84800  0.27900  0.50400  1.0000
  F   F11       1.0  0.72100  0.56900  0.50400  1.0000
  F   F12       1.0  0.43100  0.15200  0.50400  1.0000
  F   F13       1.0  0.81800  0.05420  0.82900  1.0000
  F   F14       1.0  0.23600  0.18200  0.82900  1.0000
  F   F15       1.0  0.94600  0.76400  0.82900  1.0000
  F   F16       1.0  0.38800  0.90300  0.83700  1.0000
  F   F17       1.0  0.09730  0.48500  0.83700  1.0000
  F   F18       1.0  0.51500  0.61200  0.83700  1.0000
  Ir  Ir1       1.0  0.00000  0.00000  0.00000  1.0000
  Ir  Ir2       1.0  0.66700  0.33300  0.33300  1.0000
  Ir  Ir3       1.0  0.33300  0.66700  0.66700  1.0000
