data_image0
_chemical_formula_structural       Mn2Nd8O2Se12
_chemical_formula_sum              "Mn2 Nd8 O2 Se12"
_cell_length_a       9.68177
_cell_length_b       9.68233
_cell_length_c       7.03571
_cell_angle_alpha    90
_cell_angle_beta     90
_cell_angle_gamma    119.998

_space_group_name_H-M_alt    "P 1"
_space_group_IT_number       1

loop_
  _space_group_symop_operation_xyz
  'x, y, z'

loop_
  _atom_site_type_symbol
  _atom_site_label
  _atom_site_symmetry_multiplicity
  _atom_site_fract_x
  _atom_site_fract_y
  _atom_site_fract_z
  _atom_site_occupancy
  Mn  Mn1       1.0  0.00000  0.00000  0.00343  1.0000
  Mn  Mn2       1.0  0.00000  0.00000  0.50300  1.0000
  Nd  Nd1       1.0  0.33300  0.66700  0.29300  1.0000
  Nd  Nd2       1.0  0.40200  0.20100  0.33900  1.0000
  Nd  Nd3       1.0  0.79900  0.20100  0.33900  1.0000
  Nd  Nd4       1.0  0.79900  0.59800  0.33900  1.0000
  Nd  Nd5       1.0  0.66700  0.33300  0.79300  1.0000
  Nd  Nd6       1.0  0.20100  0.79900  0.83900  1.0000
  Nd  Nd7       1.0  0.59800  0.79900  0.83900  1.0000
  Nd  Nd8       1.0  0.20100  0.40200  0.83900  1.0000
  O   O1        1.0  0.66700  0.33300  0.45800  1.0000
  O   O2        1.0  0.33300  0.66700  0.95800  1.0000
  Se  Se1       1.0  0.53100  0.06200  0.05530  1.0000
  Se  Se2       1.0  0.53100  0.46900  0.05540  1.0000
  Se  Se3       1.0  0.93800  0.46900  0.05540  1.0000
  Se  Se4       1.0  0.12800  0.25600  0.23500  1.0000
  Se  Se5       1.0  0.12800  0.87200  0.23500  1.0000
  Se  Se6       1.0  0.74400  0.87200  0.23500  1.0000
  Se  Se7       1.0  0.46900  0.93800  0.55500  1.0000
  Se  Se8       1.0  0.06200  0.53100  0.55500  1.0000
  Se  Se9       1.0  0.46900  0.53100  0.55500  1.0000
  Se  Se10      1.0  0.87200  0.74400  0.73500  1.0000
  Se  Se11      1.0  0.25600  0.12800  0.73500  1.0000
  Se  Se12      1.0  0.87200  0.12800  0.73500  1.0000
