data_image0
_chemical_formula_structural       C8F4N4O4S4
_chemical_formula_sum              "C8 F4 N4 O4 S4"
_cell_length_a       10.9538
_cell_length_b       5.38518
_cell_length_c       5.8076
_cell_angle_alpha    90
_cell_angle_beta     90
_cell_angle_gamma    90

_space_group_name_H-M_alt    "P 1"
_space_group_IT_number       1

loop_
  _space_group_symop_operation_xyz
  'x, y, z'

loop_
  _atom_site_type_symbol
  _atom_site_label
  _atom_site_symmetry_multiplicity
  _atom_site_fract_x
  _atom_site_fract_y
  _atom_site_fract_z
  _atom_site_occupancy
  C   C1        1.0  0.92200  0.75000  0.06190  1.0000
  C   C2        1.0  0.25000  0.75000  0.15000  1.0000
  C   C3        1.0  0.75000  0.75000  0.35000  1.0000
  C   C4        1.0  0.42200  0.75000  0.43800  1.0000
  C   C5        1.0  0.57800  0.25000  0.56200  1.0000
  C   C6        1.0  0.25000  0.25000  0.65000  1.0000
  C   C7        1.0  0.75000  0.25000  0.85000  1.0000
  C   C8        1.0  0.07790  0.25000  0.93800  1.0000
  F   F1        1.0  0.78700  0.25000  0.07390  1.0000
  F   F2        1.0  0.28700  0.25000  0.42600  1.0000
  F   F3        1.0  0.71300  0.75000  0.57400  1.0000
  F   F4        1.0  0.21300  0.75000  0.92600  1.0000
  N   N1        1.0  0.06740  0.25000  0.13800  1.0000
  N   N2        1.0  0.56700  0.25000  0.36200  1.0000
  N   N3        1.0  0.43300  0.75000  0.63800  1.0000
  N   N4        1.0  0.93300  0.75000  0.86200  1.0000
  O   O1        1.0  0.68000  0.75000  0.19200  1.0000
  O   O2        1.0  0.18000  0.75000  0.30800  1.0000
  O   O3        1.0  0.82000  0.25000  0.69200  1.0000
  O   O4        1.0  0.32000  0.25000  0.80800  1.0000
  S   S1        1.0  0.41200  0.75000  0.15000  1.0000
  S   S2        1.0  0.91200  0.75000  0.35000  1.0000
  S   S3        1.0  0.08800  0.25000  0.65000  1.0000
  S   S4        1.0  0.58800  0.25000  0.85000  1.0000
