data_image0
_chemical_formula_structural       O16Pr4Sb4
_chemical_formula_sum              "O16 Pr4 Sb4"
_cell_length_a       7.66354
_cell_length_b       5.54903
_cell_length_c       7.70037
_cell_angle_alpha    90
_cell_angle_beta     100.56
_cell_angle_gamma    90

_space_group_name_H-M_alt    "P 1"
_space_group_IT_number       1

loop_
  _space_group_symop_operation_xyz
  'x, y, z'

loop_
  _atom_site_type_symbol
  _atom_site_label
  _atom_site_symmetry_multiplicity
  _atom_site_fract_x
  _atom_site_fract_y
  _atom_site_fract_z
  _atom_site_occupancy
  O   O1        1.0  0.66500  0.64000  0.05460  1.0000
  O   O2        1.0  0.16800  0.00618  0.13000  1.0000
  O   O3        1.0  0.11900  0.47900  0.17300  1.0000
  O   O4        1.0  0.56200  0.09080  0.20100  1.0000
  O   O5        1.0  0.43800  0.59100  0.29900  1.0000
  O   O6        1.0  0.88100  0.97900  0.32700  1.0000
  O   O7        1.0  0.83200  0.50600  0.37000  1.0000
  O   O8        1.0  0.33500  0.14000  0.44500  1.0000
  O   O9        1.0  0.66500  0.86000  0.55500  1.0000
  O   O10       1.0  0.16800  0.49400  0.63000  1.0000
  O   O11       1.0  0.11900  0.02100  0.67300  1.0000
  O   O12       1.0  0.56200  0.40900  0.70100  1.0000
  O   O13       1.0  0.43800  0.90900  0.79900  1.0000
  O   O14       1.0  0.88100  0.52100  0.82700  1.0000
  O   O15       1.0  0.83200  0.99400  0.87000  1.0000
  O   O16       1.0  0.33500  0.36000  0.94500  1.0000
  Pr  Pr1       1.0  0.84900  0.27200  0.09870  1.0000
  Pr  Pr2       1.0  0.15100  0.77200  0.40100  1.0000
  Pr  Pr3       1.0  0.84900  0.22800  0.59900  1.0000
  Pr  Pr4       1.0  0.15100  0.72800  0.90100  1.0000
  Sb  Sb1       1.0  0.33600  0.26900  0.19900  1.0000
  Sb  Sb2       1.0  0.66400  0.76900  0.30100  1.0000
  Sb  Sb3       1.0  0.33600  0.23100  0.69900  1.0000
  Sb  Sb4       1.0  0.66400  0.73100  0.80100  1.0000
