data_image0
_chemical_formula_structural       Au4Br16K4
_chemical_formula_sum              "Au4 Br16 K4"
_cell_length_a       9.56506
_cell_length_b       6.82374
_cell_length_c       13.07
_cell_angle_alpha    90
_cell_angle_beta     97.794
_cell_angle_gamma    90

_space_group_name_H-M_alt    "P 1"
_space_group_IT_number       1

loop_
  _space_group_symop_operation_xyz
  'x, y, z'

loop_
  _atom_site_type_symbol
  _atom_site_label
  _atom_site_symmetry_multiplicity
  _atom_site_fract_x
  _atom_site_fract_y
  _atom_site_fract_z
  _atom_site_occupancy
  Au  Au1       1.0  0.00000  0.00000  0.00000  1.0000
  Au  Au2       1.0  0.50000  0.00000  0.00000  1.0000
  Au  Au3       1.0  0.50000  0.50000  0.50000  1.0000
  Au  Au4       1.0  0.00000  0.50000  0.50000  1.0000
  Br  Br1       1.0  0.86900  0.29300  0.04690  1.0000
  Br  Br2       1.0  0.66100  0.73700  0.07430  1.0000
  Br  Br3       1.0  0.50100  0.14600  0.17400  1.0000
  Br  Br4       1.0  0.08930  0.94100  0.18500  1.0000
  Br  Br5       1.0  0.91100  0.44100  0.31500  1.0000
  Br  Br6       1.0  0.49900  0.64600  0.32600  1.0000
  Br  Br7       1.0  0.33900  0.23700  0.42600  1.0000
  Br  Br8       1.0  0.13100  0.79300  0.45300  1.0000
  Br  Br9       1.0  0.86900  0.20700  0.54700  1.0000
  Br  Br10      1.0  0.66100  0.76300  0.57400  1.0000
  Br  Br11      1.0  0.50100  0.35400  0.67400  1.0000
  Br  Br12      1.0  0.08930  0.55900  0.68500  1.0000
  Br  Br13      1.0  0.91100  0.05850  0.81500  1.0000
  Br  Br14      1.0  0.49900  0.85400  0.82600  1.0000
  Br  Br15      1.0  0.33900  0.26300  0.92600  1.0000
  Br  Br16      1.0  0.13100  0.70700  0.95300  1.0000
  K   K1        1.0  0.20800  0.44200  0.18400  1.0000
  K   K2        1.0  0.79200  0.94200  0.31600  1.0000
  K   K3        1.0  0.20800  0.05760  0.68400  1.0000
  K   K4        1.0  0.79200  0.55800  0.81600  1.0000
