data_image0
_chemical_formula_structural       Ge8In4Li4Sr8
_chemical_formula_sum              "Ge8 In4 Li4 Sr8"
_cell_length_a       7.52393
_cell_length_b       4.64065
_cell_length_c       17.5283
_cell_angle_alpha    90
_cell_angle_beta     90
_cell_angle_gamma    90

_space_group_name_H-M_alt    "P 1"
_space_group_IT_number       1

loop_
  _space_group_symop_operation_xyz
  'x, y, z'

loop_
  _atom_site_type_symbol
  _atom_site_label
  _atom_site_symmetry_multiplicity
  _atom_site_fract_x
  _atom_site_fract_y
  _atom_site_fract_z
  _atom_site_occupancy
  Ge  Ge1       1.0  0.77800  0.25000  0.06560  1.0000
  Ge  Ge2       1.0  0.28700  0.75000  0.18600  1.0000
  Ge  Ge3       1.0  0.78700  0.75000  0.31400  1.0000
  Ge  Ge4       1.0  0.27800  0.25000  0.43400  1.0000
  Ge  Ge5       1.0  0.72200  0.75000  0.56600  1.0000
  Ge  Ge6       1.0  0.21300  0.25000  0.68600  1.0000
  Ge  Ge7       1.0  0.71300  0.25000  0.81400  1.0000
  Ge  Ge8       1.0  0.22200  0.75000  0.93400  1.0000
  In  In1       1.0  0.66900  0.75000  0.15400  1.0000
  In  In2       1.0  0.16900  0.75000  0.34600  1.0000
  In  In3       1.0  0.83100  0.25000  0.65400  1.0000
  In  In4       1.0  0.33100  0.25000  0.84600  1.0000
  Li  Li1       1.0  0.01510  0.75000  0.06690  1.0000
  Li  Li2       1.0  0.51500  0.75000  0.43300  1.0000
  Li  Li3       1.0  0.48500  0.25000  0.56700  1.0000
  Li  Li4       1.0  0.98500  0.25000  0.93300  1.0000
  Sr  Sr1       1.0  0.34300  0.25000  0.06040  1.0000
  Sr  Sr2       1.0  0.00061  0.25000  0.22200  1.0000
  Sr  Sr3       1.0  0.50100  0.25000  0.27800  1.0000
  Sr  Sr4       1.0  0.84300  0.25000  0.44000  1.0000
  Sr  Sr5       1.0  0.15700  0.75000  0.56000  1.0000
  Sr  Sr6       1.0  0.49900  0.75000  0.72200  1.0000
  Sr  Sr7       1.0  0.99900  0.75000  0.77800  1.0000
  Sr  Sr8       1.0  0.65700  0.75000  0.94000  1.0000
