data_image0
_chemical_formula_structural       B4Ba4Cl2Gd2O12
_chemical_formula_sum              "B4 Ba4 Cl2 Gd2 O12"
_cell_length_a       6.44328
_cell_length_b       5.32956
_cell_length_c       11.3388
_cell_angle_alpha    90
_cell_angle_beta     96.3144
_cell_angle_gamma    90

_space_group_name_H-M_alt    "P 1"
_space_group_IT_number       1

loop_
  _space_group_symop_operation_xyz
  'x, y, z'

loop_
  _atom_site_type_symbol
  _atom_site_label
  _atom_site_symmetry_multiplicity
  _atom_site_fract_x
  _atom_site_fract_y
  _atom_site_fract_z
  _atom_site_occupancy
  B   B1        1.0  0.37900  0.75000  0.22300  1.0000
  B   B2        1.0  0.79200  0.25000  0.42400  1.0000
  B   B3        1.0  0.20800  0.75000  0.57600  1.0000
  B   B4        1.0  0.62100  0.25000  0.77700  1.0000
  Ba  Ba1       1.0  0.34000  0.25000  0.07230  1.0000
  Ba  Ba2       1.0  0.90800  0.75000  0.28900  1.0000
  Ba  Ba3       1.0  0.09170  0.25000  0.71100  1.0000
  Ba  Ba4       1.0  0.66000  0.75000  0.92800  1.0000
  Cl  Cl1       1.0  0.85100  0.25000  0.08250  1.0000
  Cl  Cl2       1.0  0.14900  0.75000  0.91800  1.0000
  Gd  Gd1       1.0  0.34800  0.25000  0.41200  1.0000
  Gd  Gd2       1.0  0.65200  0.75000  0.58800  1.0000
  O   O1        1.0  0.53100  0.75000  0.14600  1.0000
  O   O2        1.0  0.29200  0.52800  0.25900  1.0000
  O   O3        1.0  0.29200  0.97200  0.25900  1.0000
  O   O4        1.0  0.99200  0.25000  0.39700  1.0000
  O   O5        1.0  0.67900  0.02950  0.43400  1.0000
  O   O6        1.0  0.67900  0.47100  0.43400  1.0000
  O   O7        1.0  0.32100  0.53000  0.56600  1.0000
  O   O8        1.0  0.32100  0.97100  0.56600  1.0000
  O   O9        1.0  0.00807  0.75000  0.60300  1.0000
  O   O10       1.0  0.70800  0.02810  0.74100  1.0000
  O   O11       1.0  0.70800  0.47200  0.74100  1.0000
  O   O12       1.0  0.46900  0.25000  0.85400  1.0000
