data_image0
_chemical_formula_structural       As2NaSn2
_chemical_formula_sum              "As2 Na1 Sn2"
_cell_length_a       4.05005
_cell_length_b       4.05005
_cell_length_c       9.56805
_cell_angle_alpha    77.7813
_cell_angle_beta     102.219
_cell_angle_gamma    120

_space_group_name_H-M_alt    "P 1"
_space_group_IT_number       1

loop_
  _space_group_symop_operation_xyz
  'x, y, z'

loop_
  _atom_site_type_symbol
  _atom_site_label
  _atom_site_symmetry_multiplicity
  _atom_site_fract_x
  _atom_site_fract_y
  _atom_site_fract_z
  _atom_site_occupancy
  As  As1       1.0  0.40700  0.59300  0.22100  1.0000
  As  As2       1.0  0.59300  0.40700  0.77900  1.0000
  Na  Na1       1.0  0.00000  0.00000  0.00000  1.0000
  Sn  Sn1       1.0  0.79000  0.21000  0.37000  1.0000
  Sn  Sn2       1.0  0.21000  0.79000  0.63000  1.0000
