data_image0
_chemical_formula_structural       Er2Li2O16W4
_chemical_formula_sum              "Er2 Li2 O16 W4"
_cell_length_a       9.91654
_cell_length_b       5.76894
_cell_length_c       4.97999
_cell_angle_alpha    90
_cell_angle_beta     93.913
_cell_angle_gamma    90

_space_group_name_H-M_alt    "P 1"
_space_group_IT_number       1

loop_
  _space_group_symop_operation_xyz
  'x, y, z'

loop_
  _atom_site_type_symbol
  _atom_site_label
  _atom_site_symmetry_multiplicity
  _atom_site_fract_x
  _atom_site_fract_y
  _atom_site_fract_z
  _atom_site_occupancy
  Er  Er1       1.0  0.25000  0.69500  0.25000  1.0000
  Er  Er2       1.0  0.75000  0.30500  0.75000  1.0000
  Li  Li1       1.0  0.75000  0.73600  0.25000  1.0000
  Li  Li2       1.0  0.25000  0.26400  0.75000  1.0000
  O   O1        1.0  0.88400  0.91700  0.03380  1.0000
  O   O2        1.0  0.40300  0.89100  0.05060  1.0000
  O   O3        1.0  0.36200  0.37600  0.08660  1.0000
  O   O4        1.0  0.89100  0.38000  0.10200  1.0000
  O   O5        1.0  0.60900  0.38000  0.39800  1.0000
  O   O6        1.0  0.13800  0.37600  0.41300  1.0000
  O   O7        1.0  0.09700  0.89100  0.44900  1.0000
  O   O8        1.0  0.61600  0.91700  0.46600  1.0000
  O   O9        1.0  0.38400  0.08320  0.53400  1.0000
  O   O10       1.0  0.90300  0.10900  0.55100  1.0000
  O   O11       1.0  0.86200  0.62400  0.58700  1.0000
  O   O12       1.0  0.39100  0.62000  0.60200  1.0000
  O   O13       1.0  0.10900  0.62000  0.89800  1.0000
  O   O14       1.0  0.63800  0.62400  0.91300  1.0000
  O   O15       1.0  0.59700  0.10900  0.94900  1.0000
  O   O16       1.0  0.11600  0.08320  0.96600  1.0000
  W   W1        1.0  0.48300  0.18300  0.25000  1.0000
  W   W2        1.0  0.01650  0.18300  0.25000  1.0000
  W   W3        1.0  0.98300  0.81700  0.75000  1.0000
  W   W4        1.0  0.51700  0.81700  0.75000  1.0000
