data_image0
_chemical_formula_structural       B4Na12P8
_chemical_formula_sum              "B4 Na12 P8"
_cell_length_a       7.01216
_cell_length_b       9.29262
_cell_length_c       9.15609
_cell_angle_alpha    90
_cell_angle_beta     110.978
_cell_angle_gamma    90

_space_group_name_H-M_alt    "P 1"
_space_group_IT_number       1

loop_
  _space_group_symop_operation_xyz
  'x, y, z'

loop_
  _atom_site_type_symbol
  _atom_site_label
  _atom_site_symmetry_multiplicity
  _atom_site_fract_x
  _atom_site_fract_y
  _atom_site_fract_z
  _atom_site_occupancy
  B   B1        1.0  0.22500  0.67100  0.18200  1.0000
  B   B2        1.0  0.77500  0.17100  0.31800  1.0000
  B   B3        1.0  0.22500  0.82900  0.68200  1.0000
  B   B4        1.0  0.77500  0.32900  0.81800  1.0000
  Na  Na1       1.0  0.75600  0.06940  0.02180  1.0000
  Na  Na2       1.0  0.77800  0.47300  0.11100  1.0000
  Na  Na3       1.0  0.26400  0.28700  0.18200  1.0000
  Na  Na4       1.0  0.73600  0.78700  0.31800  1.0000
  Na  Na5       1.0  0.22200  0.97300  0.38900  1.0000
  Na  Na6       1.0  0.24400  0.56900  0.47800  1.0000
  Na  Na7       1.0  0.75600  0.43100  0.52200  1.0000
  Na  Na8       1.0  0.77800  0.02730  0.61100  1.0000
  Na  Na9       1.0  0.26400  0.21300  0.68200  1.0000
  Na  Na10      1.0  0.73600  0.71300  0.81800  1.0000
  Na  Na11      1.0  0.22200  0.52700  0.88900  1.0000
  Na  Na12      1.0  0.24400  0.93100  0.97800  1.0000
  P   P1        1.0  0.99700  0.77500  0.13500  1.0000
  P   P2        1.0  0.44700  0.56200  0.23200  1.0000
  P   P3        1.0  0.55300  0.06170  0.26800  1.0000
  P   P4        1.0  0.00297  0.27500  0.36500  1.0000
  P   P5        1.0  0.99700  0.72500  0.63500  1.0000
  P   P6        1.0  0.44700  0.93800  0.73200  1.0000
  P   P7        1.0  0.55300  0.43800  0.76800  1.0000
  P   P8        1.0  0.00297  0.22500  0.86500  1.0000
