data_image0
_chemical_formula_structural       Mn2O14Si4Sr4
_chemical_formula_sum              "Mn2 O14 Si4 Sr4"
_cell_length_a       8.11364
_cell_length_b       8.11364
_cell_length_c       5.14352
_cell_angle_alpha    90
_cell_angle_beta     90
_cell_angle_gamma    90

_space_group_name_H-M_alt    "P 1"
_space_group_IT_number       1

loop_
  _space_group_symop_operation_xyz
  'x, y, z'

loop_
  _atom_site_type_symbol
  _atom_site_label
  _atom_site_symmetry_multiplicity
  _atom_site_fract_x
  _atom_site_fract_y
  _atom_site_fract_z
  _atom_site_occupancy
  Mn  Mn1       1.0  0.00000  0.00000  0.00000  1.0000
  Mn  Mn2       1.0  0.50000  0.50000  0.00000  1.0000
  O   O1        1.0  0.50000  0.00000  0.16700  1.0000
  O   O2        1.0  0.80600  0.07890  0.21400  1.0000
  O   O3        1.0  0.57900  0.30600  0.21400  1.0000
  O   O4        1.0  0.42100  0.69400  0.21400  1.0000
  O   O5        1.0  0.19400  0.92100  0.21400  1.0000
  O   O6        1.0  0.14100  0.35900  0.25100  1.0000
  O   O7        1.0  0.85900  0.64100  0.25100  1.0000
  O   O8        1.0  0.64100  0.14100  0.74900  1.0000
  O   O9        1.0  0.35900  0.85900  0.74900  1.0000
  O   O10       1.0  0.07890  0.19400  0.78600  1.0000
  O   O11       1.0  0.30600  0.42100  0.78600  1.0000
  O   O12       1.0  0.69400  0.57900  0.78600  1.0000
  O   O13       1.0  0.92100  0.80600  0.78600  1.0000
  O   O14       1.0  0.00000  0.50000  0.83300  1.0000
  Si  Si1       1.0  0.63800  0.13800  0.06190  1.0000
  Si  Si2       1.0  0.36200  0.86200  0.06190  1.0000
  Si  Si3       1.0  0.13800  0.36200  0.93800  1.0000
  Si  Si4       1.0  0.86200  0.63800  0.93800  1.0000
  Sr  Sr1       1.0  0.83500  0.33500  0.49400  1.0000
  Sr  Sr2       1.0  0.16500  0.66500  0.49400  1.0000
  Sr  Sr3       1.0  0.33500  0.16500  0.50600  1.0000
  Sr  Sr4       1.0  0.66500  0.83500  0.50600  1.0000
