data_image0
_chemical_formula_structural       As8K14Ta2
_chemical_formula_sum              "As8 K14 Ta2"
_cell_length_a       10.273
_cell_length_b       9.24814
_cell_length_c       8.3784
_cell_angle_alpha    90
_cell_angle_beta     90
_cell_angle_gamma    90

_space_group_name_H-M_alt    "P 1"
_space_group_IT_number       1

loop_
  _space_group_symop_operation_xyz
  'x, y, z'

loop_
  _atom_site_type_symbol
  _atom_site_label
  _atom_site_symmetry_multiplicity
  _atom_site_fract_x
  _atom_site_fract_y
  _atom_site_fract_z
  _atom_site_occupancy
  As  As1       1.0  0.00000  0.31400  0.29900  1.0000
  As  As2       1.0  0.29600  0.81000  0.40500  1.0000
  As  As3       1.0  0.70400  0.81000  0.40500  1.0000
  As  As4       1.0  0.50000  0.41500  0.42100  1.0000
  As  As5       1.0  0.50000  0.68600  0.79900  1.0000
  As  As6       1.0  0.20400  0.19000  0.90500  1.0000
  As  As7       1.0  0.79600  0.19000  0.90500  1.0000
  As  As8       1.0  0.00000  0.58500  0.92100  1.0000
  K   K1        1.0  0.50000  0.90100  0.10600  1.0000
  K   K2        1.0  0.28900  0.53600  0.12700  1.0000
  K   K3        1.0  0.71100  0.53600  0.12700  1.0000
  K   K4        1.0  0.00000  0.96200  0.13000  1.0000
  K   K5        1.0  0.28500  0.16800  0.29200  1.0000
  K   K6        1.0  0.71500  0.16800  0.29200  1.0000
  K   K7        1.0  0.00000  0.65700  0.33900  1.0000
  K   K8        1.0  0.00000  0.09870  0.60600  1.0000
  K   K9        1.0  0.21100  0.46400  0.62700  1.0000
  K   K10       1.0  0.78900  0.46400  0.62700  1.0000
  K   K11       1.0  0.50000  0.03790  0.63000  1.0000
  K   K12       1.0  0.21500  0.83200  0.79200  1.0000
  K   K13       1.0  0.78500  0.83200  0.79200  1.0000
  K   K14       1.0  0.50000  0.34300  0.83900  1.0000
  Ta  Ta1       1.0  0.00000  0.32200  0.00029  1.0000
  Ta  Ta2       1.0  0.50000  0.67800  0.50000  1.0000
