data_image0
_chemical_formula_structural       B2C4Cs2F16
_chemical_formula_sum              "B2 C4 Cs2 F16"
_cell_length_a       5.56367
_cell_length_b       7.13944
_cell_length_c       7.67347
_cell_angle_alpha    90
_cell_angle_beta     101.406
_cell_angle_gamma    90

_space_group_name_H-M_alt    "P 1"
_space_group_IT_number       1

loop_
  _space_group_symop_operation_xyz
  'x, y, z'

loop_
  _atom_site_type_symbol
  _atom_site_label
  _atom_site_symmetry_multiplicity
  _atom_site_fract_x
  _atom_site_fract_y
  _atom_site_fract_z
  _atom_site_occupancy
  B   B1        1.0  0.31300  0.75000  0.19800  1.0000
  B   B2        1.0  0.68700  0.25000  0.80200  1.0000
  C   C1        1.0  0.58700  0.75000  0.15800  1.0000
  C   C2        1.0  0.30800  0.75000  0.41100  1.0000
  C   C3        1.0  0.69200  0.25000  0.58900  1.0000
  C   C4        1.0  0.41300  0.25000  0.84200  1.0000
  Cs  Cs1       1.0  0.00662  0.25000  0.22900  1.0000
  Cs  Cs2       1.0  0.99300  0.75000  0.77100  1.0000
  F   F1        1.0  0.41900  0.25000  0.02250  1.0000
  F   F2        1.0  0.19300  0.58800  0.11900  1.0000
  F   F3        1.0  0.19300  0.91200  0.11900  1.0000
  F   F4        1.0  0.72300  0.59700  0.22600  1.0000
  F   F5        1.0  0.72300  0.90300  0.22600  1.0000
  F   F6        1.0  0.18900  0.59700  0.46200  1.0000
  F   F7        1.0  0.18900  0.90300  0.46200  1.0000
  F   F8        1.0  0.46600  0.25000  0.47600  1.0000
  F   F9        1.0  0.53400  0.75000  0.52400  1.0000
  F   F10       1.0  0.81100  0.09650  0.53800  1.0000
  F   F11       1.0  0.81100  0.40300  0.53800  1.0000
  F   F12       1.0  0.27700  0.09690  0.77400  1.0000
  F   F13       1.0  0.27700  0.40300  0.77400  1.0000
  F   F14       1.0  0.80700  0.08780  0.88100  1.0000
  F   F15       1.0  0.80700  0.41200  0.88100  1.0000
  F   F16       1.0  0.58100  0.75000  0.97700  1.0000
