data_image0
_chemical_formula_structural       As8Nb2Rb14
_chemical_formula_sum              "As8 Nb2 Rb14"
_cell_length_a       10.7082
_cell_length_b       9.64718
_cell_length_c       8.71941
_cell_angle_alpha    90
_cell_angle_beta     90
_cell_angle_gamma    90

_space_group_name_H-M_alt    "P 1"
_space_group_IT_number       1

loop_
  _space_group_symop_operation_xyz
  'x, y, z'

loop_
  _atom_site_type_symbol
  _atom_site_label
  _atom_site_symmetry_multiplicity
  _atom_site_fract_x
  _atom_site_fract_y
  _atom_site_fract_z
  _atom_site_occupancy
  As  As1       1.0  0.00000  0.31500  0.29000  1.0000
  As  As2       1.0  0.30300  0.80400  0.40900  1.0000
  As  As3       1.0  0.69700  0.80400  0.40900  1.0000
  As  As4       1.0  0.50000  0.42300  0.42400  1.0000
  As  As5       1.0  0.50000  0.68500  0.79000  1.0000
  As  As6       1.0  0.19700  0.19600  0.90900  1.0000
  As  As7       1.0  0.80300  0.19600  0.90900  1.0000
  As  As8       1.0  0.00000  0.57700  0.92400  1.0000
  Nb  Nb1       1.0  0.00000  0.32400  0.00095  1.0000
  Nb  Nb2       1.0  0.50000  0.67600  0.50100  1.0000
  Rb  Rb1       1.0  0.50000  0.89700  0.10600  1.0000
  Rb  Rb2       1.0  0.29000  0.53400  0.12500  1.0000
  Rb  Rb3       1.0  0.71000  0.53400  0.12500  1.0000
  Rb  Rb4       1.0  0.00000  0.96800  0.12800  1.0000
  Rb  Rb5       1.0  0.28700  0.16900  0.29300  1.0000
  Rb  Rb6       1.0  0.71300  0.16900  0.29300  1.0000
  Rb  Rb7       1.0  0.00000  0.65800  0.33600  1.0000
  Rb  Rb8       1.0  0.00000  0.10300  0.60600  1.0000
  Rb  Rb9       1.0  0.21000  0.46600  0.62500  1.0000
  Rb  Rb10      1.0  0.79000  0.46600  0.62500  1.0000
  Rb  Rb11      1.0  0.50000  0.03200  0.62800  1.0000
  Rb  Rb12      1.0  0.21300  0.83100  0.79300  1.0000
  Rb  Rb13      1.0  0.78700  0.83100  0.79300  1.0000
  Rb  Rb14      1.0  0.50000  0.34200  0.83600  1.0000
