data_image0
_chemical_formula_structural       K8S12Te4
_chemical_formula_sum              "K8 S12 Te4"
_cell_length_a       6.43232
_cell_length_b       9.15124
_cell_length_c       13.3573
_cell_angle_alpha    90
_cell_angle_beta     90.557
_cell_angle_gamma    90

_space_group_name_H-M_alt    "P 1"
_space_group_IT_number       1

loop_
  _space_group_symop_operation_xyz
  'x, y, z'

loop_
  _atom_site_type_symbol
  _atom_site_label
  _atom_site_symmetry_multiplicity
  _atom_site_fract_x
  _atom_site_fract_y
  _atom_site_fract_z
  _atom_site_occupancy
  K   K1        1.0  0.74800  0.86900  0.08400  1.0000
  K   K2        1.0  0.25800  0.61000  0.24900  1.0000
  K   K3        1.0  0.24200  0.11000  0.25100  1.0000
  K   K4        1.0  0.75200  0.36900  0.41600  1.0000
  K   K5        1.0  0.24800  0.63100  0.58400  1.0000
  K   K6        1.0  0.75800  0.89000  0.74900  1.0000
  K   K7        1.0  0.74200  0.39000  0.75100  1.0000
  K   K8        1.0  0.25200  0.13100  0.91600  1.0000
  S   S1        1.0  0.24600  0.83600  0.06030  1.0000
  S   S2        1.0  0.16300  0.36000  0.08850  1.0000
  S   S3        1.0  0.74400  0.15900  0.21800  1.0000
  S   S4        1.0  0.75600  0.65900  0.28200  1.0000
  S   S5        1.0  0.33700  0.86000  0.41200  1.0000
  S   S6        1.0  0.25400  0.33600  0.44000  1.0000
  S   S7        1.0  0.74600  0.66400  0.56000  1.0000
  S   S8        1.0  0.66300  0.14000  0.58800  1.0000
  S   S9        1.0  0.24400  0.34100  0.71800  1.0000
  S   S10       1.0  0.25600  0.84100  0.78200  1.0000
  S   S11       1.0  0.83700  0.64000  0.91200  1.0000
  S   S12       1.0  0.75400  0.16400  0.94000  1.0000
  Te  Te1       1.0  0.80000  0.32000  0.08080  1.0000
  Te  Te2       1.0  0.70000  0.82000  0.41900  1.0000
  Te  Te3       1.0  0.30000  0.18000  0.58100  1.0000
  Te  Te4       1.0  0.20000  0.68000  0.91900  1.0000
