data_image0
_chemical_formula_structural       Ag4Ba8Si12
_chemical_formula_sum              "Ag4 Ba8 Si12"
_cell_length_a       8.64329
_cell_length_b       8.64891
_cell_length_c       10.813
_cell_angle_alpha    101.52
_cell_angle_beta     113.558
_cell_angle_gamma    60.0215

_space_group_name_H-M_alt    "P 1"
_space_group_IT_number       1

loop_
  _space_group_symop_operation_xyz
  'x, y, z'

loop_
  _atom_site_type_symbol
  _atom_site_label
  _atom_site_symmetry_multiplicity
  _atom_site_fract_x
  _atom_site_fract_y
  _atom_site_fract_z
  _atom_site_occupancy
  Ag  Ag1       1.0  0.45800  0.08400  0.25000  1.0000
  Ag  Ag2       1.0  0.79200  0.41600  0.25000  1.0000
  Ag  Ag3       1.0  0.20800  0.58400  0.75000  1.0000
  Ag  Ag4       1.0  0.54200  0.91600  0.75000  1.0000
  Ba  Ba1       1.0  0.00000  0.75000  0.00016  1.0000
  Ba  Ba2       1.0  0.50100  0.75000  0.00117  1.0000
  Ba  Ba3       1.0  0.74900  0.75000  0.49900  1.0000
  Ba  Ba4       1.0  0.25000  0.75000  0.50000  1.0000
  Ba  Ba5       1.0  0.75000  0.25000  0.50000  1.0000
  Ba  Ba6       1.0  0.25100  0.25000  0.50100  1.0000
  Ba  Ba7       1.0  0.49900  0.25000  0.99900  1.0000
  Ba  Ba8       1.0  0.00000  0.25000  0.00000  1.0000
  Si  Si1       1.0  0.44100  0.59100  0.24400  1.0000
  Si  Si2       1.0  0.80400  0.90900  0.24400  1.0000
  Si  Si3       1.0  0.96600  0.06900  0.25000  1.0000
  Si  Si4       1.0  0.28400  0.43100  0.25000  1.0000
  Si  Si5       1.0  0.96900  0.59100  0.25600  1.0000
  Si  Si6       1.0  0.28700  0.90900  0.25600  1.0000
  Si  Si7       1.0  0.71300  0.09080  0.74400  1.0000
  Si  Si8       1.0  0.03150  0.40900  0.74400  1.0000
  Si  Si9       1.0  0.71600  0.56900  0.75000  1.0000
  Si  Si10      1.0  0.03450  0.93100  0.75000  1.0000
  Si  Si11      1.0  0.19600  0.09080  0.75600  1.0000
  Si  Si12      1.0  0.55900  0.40900  0.75600  1.0000
