data_image0
_chemical_formula_structural       Cs4Cu4S16
_chemical_formula_sum              "Cs4 Cu4 S16"
_cell_length_a       5.25333
_cell_length_b       8.8558
_cell_length_c       13.6634
_cell_angle_alpha    90
_cell_angle_beta     90
_cell_angle_gamma    90

_space_group_name_H-M_alt    "P 1"
_space_group_IT_number       1

loop_
  _space_group_symop_operation_xyz
  'x, y, z'

loop_
  _atom_site_type_symbol
  _atom_site_label
  _atom_site_symmetry_multiplicity
  _atom_site_fract_x
  _atom_site_fract_y
  _atom_site_fract_z
  _atom_site_occupancy
  Cs  Cs1       1.0  0.33800  0.57400  0.16400  1.0000
  Cs  Cs2       1.0  0.66200  0.07350  0.33600  1.0000
  Cs  Cs3       1.0  0.16200  0.42600  0.66400  1.0000
  Cs  Cs4       1.0  0.83800  0.92600  0.83600  1.0000
  Cu  Cu1       1.0  0.53600  0.14100  0.06120  1.0000
  Cu  Cu2       1.0  0.46400  0.64100  0.43900  1.0000
  Cu  Cu3       1.0  0.96400  0.85900  0.56100  1.0000
  Cu  Cu4       1.0  0.03630  0.35900  0.93900  1.0000
  S   S1        1.0  0.06780  0.93400  0.07620  1.0000
  S   S2        1.0  0.88100  0.29300  0.09180  1.0000
  S   S3        1.0  0.68500  0.90300  0.09740  1.0000
  S   S4        1.0  0.15000  0.14000  0.15000  1.0000
  S   S5        1.0  0.85000  0.64000  0.35000  1.0000
  S   S6        1.0  0.31500  0.40300  0.40300  1.0000
  S   S7        1.0  0.11900  0.79300  0.40800  1.0000
  S   S8        1.0  0.93200  0.43400  0.42400  1.0000
  S   S9        1.0  0.43200  0.06590  0.57600  1.0000
  S   S10       1.0  0.61900  0.70700  0.59200  1.0000
  S   S11       1.0  0.81500  0.09670  0.59700  1.0000
  S   S12       1.0  0.35000  0.86000  0.65000  1.0000
  S   S13       1.0  0.65000  0.36000  0.85000  1.0000
  S   S14       1.0  0.18500  0.59700  0.90300  1.0000
  S   S15       1.0  0.38100  0.20700  0.90800  1.0000
  S   S16       1.0  0.56800  0.56600  0.92400  1.0000
