data_image0
_chemical_formula_structural       Cu2Mo4O16Sb2
_chemical_formula_sum              "Cu2 Mo4 O16 Sb2"
_cell_length_a       4.89026
_cell_length_b       5.55611
_cell_length_c       11.1346
_cell_angle_alpha    100.943
_cell_angle_beta     102.685
_cell_angle_gamma    90

_space_group_name_H-M_alt    "P 1"
_space_group_IT_number       1

loop_
  _space_group_symop_operation_xyz
  'x, y, z'

loop_
  _atom_site_type_symbol
  _atom_site_label
  _atom_site_symmetry_multiplicity
  _atom_site_fract_x
  _atom_site_fract_y
  _atom_site_fract_z
  _atom_site_occupancy
  Cu  Cu1       1.0  0.50000  0.00000  0.50000  1.0000
  Cu  Cu2       1.0  0.00000  0.50000  0.50000  1.0000
  Mo  Mo1       1.0  0.39400  0.28700  0.27400  1.0000
  Mo  Mo2       1.0  0.88000  0.78700  0.27400  1.0000
  Mo  Mo3       1.0  0.12000  0.21300  0.72600  1.0000
  Mo  Mo4       1.0  0.60600  0.71300  0.72600  1.0000
  O   O1        1.0  0.14200  0.12000  0.10400  1.0000
  O   O2        1.0  0.96200  0.62000  0.10400  1.0000
  O   O3        1.0  0.56000  0.49600  0.20300  1.0000
  O   O4        1.0  0.64300  0.99600  0.20300  1.0000
  O   O5        1.0  0.11500  0.46400  0.32300  1.0000
  O   O6        1.0  0.20800  0.96400  0.32300  1.0000
  O   O7        1.0  0.63600  0.29700  0.42100  1.0000
  O   O8        1.0  0.78500  0.79700  0.42100  1.0000
  O   O9        1.0  0.21500  0.20300  0.57900  1.0000
  O   O10       1.0  0.36400  0.70300  0.57900  1.0000
  O   O11       1.0  0.79200  0.03560  0.67700  1.0000
  O   O12       1.0  0.88500  0.53600  0.67700  1.0000
  O   O13       1.0  0.35700  0.00381  0.79700  1.0000
  O   O14       1.0  0.44000  0.50400  0.79700  1.0000
  O   O15       1.0  0.85800  0.88000  0.89600  1.0000
  O   O16       1.0  0.03800  0.38000  0.89600  1.0000
  Sb  Sb1       1.0  0.79900  0.25000  0.00000  1.0000
  Sb  Sb2       1.0  0.20100  0.75000  0.00000  1.0000
