data_image0
_chemical_formula_structural       Cl14K2Mo4O4
_chemical_formula_sum              "Cl14 K2 Mo4 O4"
_cell_length_a       8.07242
_cell_length_b       8.07242
_cell_length_c       10.3528
_cell_angle_alpha    103.584
_cell_angle_beta     103.584
_cell_angle_gamma    91.9487

_space_group_name_H-M_alt    "P 1"
_space_group_IT_number       1

loop_
  _space_group_symop_operation_xyz
  'x, y, z'

loop_
  _atom_site_type_symbol
  _atom_site_label
  _atom_site_symmetry_multiplicity
  _atom_site_fract_x
  _atom_site_fract_y
  _atom_site_fract_z
  _atom_site_occupancy
  Cl  Cl1       1.0  0.16600  0.81100  0.06140  1.0000
  Cl  Cl2       1.0  0.74000  0.57700  0.08170  1.0000
  Cl  Cl3       1.0  0.53200  0.20200  0.12400  1.0000
  Cl  Cl4       1.0  0.90700  0.09350  0.25000  1.0000
  Cl  Cl5       1.0  0.79800  0.46800  0.37600  1.0000
  Cl  Cl6       1.0  0.42300  0.26000  0.41800  1.0000
  Cl  Cl7       1.0  0.18900  0.83400  0.43900  1.0000
  Cl  Cl8       1.0  0.81100  0.16600  0.56100  1.0000
  Cl  Cl9       1.0  0.57700  0.74000  0.58200  1.0000
  Cl  Cl10      1.0  0.20200  0.53200  0.62400  1.0000
  Cl  Cl11      1.0  0.09350  0.90700  0.75000  1.0000
  Cl  Cl12      1.0  0.46800  0.79800  0.87600  1.0000
  Cl  Cl13      1.0  0.26000  0.42300  0.91800  1.0000
  Cl  Cl14      1.0  0.83400  0.18900  0.93900  1.0000
  K   K1        1.0  0.41300  0.58700  0.25000  1.0000
  K   K2        1.0  0.58700  0.41300  0.75000  1.0000
  Mo  Mo1       1.0  0.87400  0.35600  0.16200  1.0000
  Mo  Mo2       1.0  0.64400  0.12600  0.33800  1.0000
  Mo  Mo3       1.0  0.35600  0.87400  0.66200  1.0000
  Mo  Mo4       1.0  0.12600  0.64400  0.83800  1.0000
  O   O1        1.0  0.08390  0.42600  0.20600  1.0000
  O   O2        1.0  0.57400  0.91600  0.29400  1.0000
  O   O3        1.0  0.42600  0.08390  0.70600  1.0000
  O   O4        1.0  0.91600  0.57400  0.79400  1.0000
