data_image0
_chemical_formula_structural       Ba4Cl16Pd4
_chemical_formula_sum              "Ba4 Cl16 Pd4"
_cell_length_a       6.94503
_cell_length_b       12.6293
_cell_length_c       7.59073
_cell_angle_alpha    90
_cell_angle_beta     90
_cell_angle_gamma    90

_space_group_name_H-M_alt    "P 1"
_space_group_IT_number       1

loop_
  _space_group_symop_operation_xyz
  'x, y, z'

loop_
  _atom_site_type_symbol
  _atom_site_label
  _atom_site_symmetry_multiplicity
  _atom_site_fract_x
  _atom_site_fract_y
  _atom_site_fract_z
  _atom_site_occupancy
  Ba  Ba1       1.0  0.50000  0.14800  0.25000  1.0000
  Ba  Ba2       1.0  0.00000  0.64800  0.25000  1.0000
  Ba  Ba3       1.0  0.00000  0.35200  0.75000  1.0000
  Ba  Ba4       1.0  0.50000  0.85200  0.75000  1.0000
  Cl  Cl1       1.0  0.11100  0.17300  0.03030  1.0000
  Cl  Cl2       1.0  0.38900  0.67300  0.03030  1.0000
  Cl  Cl3       1.0  0.20600  0.43600  0.10100  1.0000
  Cl  Cl4       1.0  0.29400  0.93600  0.10100  1.0000
  Cl  Cl5       1.0  0.79400  0.43600  0.39900  1.0000
  Cl  Cl6       1.0  0.70600  0.93600  0.39900  1.0000
  Cl  Cl7       1.0  0.88900  0.17300  0.47000  1.0000
  Cl  Cl8       1.0  0.61100  0.67300  0.47000  1.0000
  Cl  Cl9       1.0  0.38900  0.32700  0.53000  1.0000
  Cl  Cl10      1.0  0.11100  0.82700  0.53000  1.0000
  Cl  Cl11      1.0  0.29400  0.06390  0.60100  1.0000
  Cl  Cl12      1.0  0.20600  0.56400  0.60100  1.0000
  Cl  Cl13      1.0  0.70600  0.06390  0.89900  1.0000
  Cl  Cl14      1.0  0.79400  0.56400  0.89900  1.0000
  Cl  Cl15      1.0  0.61100  0.32700  0.97000  1.0000
  Cl  Cl16      1.0  0.88900  0.82700  0.97000  1.0000
  Pd  Pd1       1.0  0.00000  0.00000  0.00000  1.0000
  Pd  Pd2       1.0  0.50000  0.50000  0.00000  1.0000
  Pd  Pd3       1.0  0.00000  0.00000  0.50000  1.0000
  Pd  Pd4       1.0  0.50000  0.50000  0.50000  1.0000
