data_image0
_chemical_formula_structural       Ba3Cu6Ge3Se12
_chemical_formula_sum              "Ba3 Cu6 Ge3 Se12"
_cell_length_a       6.58806
_cell_length_b       6.58806
_cell_length_c       16.4273
_cell_angle_alpha    90
_cell_angle_beta     90
_cell_angle_gamma    120

_space_group_name_H-M_alt    "P 1"
_space_group_IT_number       1

loop_
  _space_group_symop_operation_xyz
  'x, y, z'

loop_
  _atom_site_type_symbol
  _atom_site_label
  _atom_site_symmetry_multiplicity
  _atom_site_fract_x
  _atom_site_fract_y
  _atom_site_fract_z
  _atom_site_occupancy
  Ba  Ba1       1.0  0.21700  0.88400  0.33300  1.0000
  Ba  Ba2       1.0  0.11600  0.33300  0.66600  1.0000
  Ba  Ba3       1.0  0.66700  0.78300  0.00000  1.0000
  Cu  Cu1       1.0  0.23400  0.98000  0.08880  1.0000
  Cu  Cu2       1.0  0.58800  0.68700  0.24400  1.0000
  Cu  Cu3       1.0  0.02010  0.25500  0.42200  1.0000
  Cu  Cu4       1.0  0.31300  0.90100  0.57700  1.0000
  Cu  Cu5       1.0  0.74500  0.76600  0.75600  1.0000
  Cu  Cu6       1.0  0.09890  0.41200  0.91000  1.0000
  Ge  Ge1       1.0  0.95300  0.33300  0.16600  1.0000
  Ge  Ge2       1.0  0.66700  0.62000  0.50000  1.0000
  Ge  Ge3       1.0  0.38000  0.04690  0.83300  1.0000
  Se  Se1       1.0  0.15900  0.29400  0.05050  1.0000
  Se  Se2       1.0  0.89700  0.67000  0.16400  1.0000
  Se  Se3       1.0  0.56000  0.99700  0.16900  1.0000
  Se  Se4       1.0  0.19800  0.37200  0.28200  1.0000
  Se  Se5       1.0  0.70600  0.86400  0.38400  1.0000
  Se  Se6       1.0  0.33000  0.22700  0.49700  1.0000
  Se  Se7       1.0  0.00334  0.56300  0.50200  1.0000
  Se  Se8       1.0  0.62800  0.82500  0.61500  1.0000
  Se  Se9       1.0  0.13600  0.84100  0.71700  1.0000
  Se  Se10      1.0  0.77300  0.10300  0.83000  1.0000
  Se  Se11      1.0  0.43700  0.44000  0.83600  1.0000
  Se  Se12      1.0  0.17500  0.80200  0.94900  1.0000
