data_image0
_chemical_formula_structural       Ce2P10
_chemical_formula_sum              "Ce2 P10"
_cell_length_a       5.07372
_cell_length_b       9.66173
_cell_length_c       5.52373
_cell_angle_alpha    90
_cell_angle_beta     102.419
_cell_angle_gamma    90

_space_group_name_H-M_alt    "P 1"
_space_group_IT_number       1

loop_
  _space_group_symop_operation_xyz
  'x, y, z'

loop_
  _atom_site_type_symbol
  _atom_site_label
  _atom_site_symmetry_multiplicity
  _atom_site_fract_x
  _atom_site_fract_y
  _atom_site_fract_z
  _atom_site_occupancy
  Ce  Ce1       1.0  0.48700  0.25000  0.14900  1.0000
  Ce  Ce2       1.0  0.51300  0.75000  0.85100  1.0000
  P   P1        1.0  0.20500  0.53200  0.09920  1.0000
  P   P2        1.0  0.20500  0.96800  0.09920  1.0000
  P   P3        1.0  0.79100  0.75000  0.40500  1.0000
  P   P4        1.0  0.11500  0.59000  0.45200  1.0000
  P   P5        1.0  0.11500  0.91000  0.45200  1.0000
  P   P6        1.0  0.88500  0.09020  0.54800  1.0000
  P   P7        1.0  0.88500  0.41000  0.54800  1.0000
  P   P8        1.0  0.20900  0.25000  0.59500  1.0000
  P   P9        1.0  0.79500  0.03210  0.90100  1.0000
  P   P10       1.0  0.79500  0.46800  0.90100  1.0000
