data_image0
_chemical_formula_structural       Au4P12Pr8
_chemical_formula_sum              "Au4 P12 Pr8"
_cell_length_a       7.78085
_cell_length_b       4.21737
_cell_length_c       16.3555
_cell_angle_alpha    90
_cell_angle_beta     90
_cell_angle_gamma    90

_space_group_name_H-M_alt    "P 1"
_space_group_IT_number       1

loop_
  _space_group_symop_operation_xyz
  'x, y, z'

loop_
  _atom_site_type_symbol
  _atom_site_label
  _atom_site_symmetry_multiplicity
  _atom_site_fract_x
  _atom_site_fract_y
  _atom_site_fract_z
  _atom_site_occupancy
  Au  Au1       1.0  0.50300  0.25000  0.14600  1.0000
  Au  Au2       1.0  0.00254  0.25000  0.35400  1.0000
  Au  Au3       1.0  0.99700  0.75000  0.64600  1.0000
  Au  Au4       1.0  0.49700  0.75000  0.85400  1.0000
  P   P1        1.0  0.61700  0.75000  0.08930  1.0000
  P   P2        1.0  0.03500  0.25000  0.09440  1.0000
  P   P3        1.0  0.20200  0.25000  0.20300  1.0000
  P   P4        1.0  0.70200  0.25000  0.29700  1.0000
  P   P5        1.0  0.53500  0.25000  0.40600  1.0000
  P   P6        1.0  0.11700  0.75000  0.41100  1.0000
  P   P7        1.0  0.88300  0.25000  0.58900  1.0000
  P   P8        1.0  0.46500  0.75000  0.59400  1.0000
  P   P9        1.0  0.29800  0.75000  0.70300  1.0000
  P   P10       1.0  0.79800  0.75000  0.79700  1.0000
  P   P11       1.0  0.96500  0.75000  0.90600  1.0000
  P   P12       1.0  0.38300  0.25000  0.91100  1.0000
  Pr  Pr1       1.0  0.26600  0.75000  0.02260  1.0000
  Pr  Pr2       1.0  0.90500  0.75000  0.20500  1.0000
  Pr  Pr3       1.0  0.40500  0.75000  0.29500  1.0000
  Pr  Pr4       1.0  0.76600  0.75000  0.47700  1.0000
  Pr  Pr5       1.0  0.23400  0.25000  0.52300  1.0000
  Pr  Pr6       1.0  0.59500  0.25000  0.70500  1.0000
  Pr  Pr7       1.0  0.09500  0.25000  0.79500  1.0000
  Pr  Pr8       1.0  0.73400  0.25000  0.97700  1.0000
