data_image0
_chemical_formula_structural       Au2Na2O16S4
_chemical_formula_sum              "Au2 Na2 O16 S4"
_cell_length_a       4.66361
_cell_length_b       8.29229
_cell_length_c       8.18365
_cell_angle_alpha    90
_cell_angle_beta     96.0044
_cell_angle_gamma    90

_space_group_name_H-M_alt    "P 1"
_space_group_IT_number       1

loop_
  _space_group_symop_operation_xyz
  'x, y, z'

loop_
  _atom_site_type_symbol
  _atom_site_label
  _atom_site_symmetry_multiplicity
  _atom_site_fract_x
  _atom_site_fract_y
  _atom_site_fract_z
  _atom_site_occupancy
  Au  Au1       1.0  0.00000  0.00000  0.00000  1.0000
  Au  Au2       1.0  0.50000  0.50000  0.50000  1.0000
  Na  Na1       1.0  0.00000  0.50000  0.00000  1.0000
  Na  Na2       1.0  0.50000  0.00000  0.50000  1.0000
  O   O1        1.0  0.66500  0.14400  0.04280  1.0000
  O   O2        1.0  0.82000  0.78800  0.06420  1.0000
  O   O3        1.0  0.44300  0.61500  0.12900  1.0000
  O   O4        1.0  0.02570  0.38700  0.24900  1.0000
  O   O5        1.0  0.47400  0.88700  0.25100  1.0000
  O   O6        1.0  0.05660  0.11500  0.37100  1.0000
  O   O7        1.0  0.68000  0.28800  0.43600  1.0000
  O   O8        1.0  0.83500  0.64400  0.45700  1.0000
  O   O9        1.0  0.16500  0.35600  0.54300  1.0000
  O   O10       1.0  0.32000  0.71200  0.56400  1.0000
  O   O11       1.0  0.94300  0.88500  0.62900  1.0000
  O   O12       1.0  0.52600  0.11300  0.74900  1.0000
  O   O13       1.0  0.97400  0.61300  0.75100  1.0000
  O   O14       1.0  0.55700  0.38500  0.87100  1.0000
  O   O15       1.0  0.18000  0.21200  0.93600  1.0000
  O   O16       1.0  0.33500  0.85600  0.95700  1.0000
  S   S1        1.0  0.50900  0.78500  0.11300  1.0000
  S   S2        1.0  0.99100  0.28500  0.38700  1.0000
  S   S3        1.0  0.00858  0.71500  0.61300  1.0000
  S   S4        1.0  0.49100  0.21500  0.88700  1.0000
