data_image0
_chemical_formula_structural       Ag8Bi4O12
_chemical_formula_sum              "Ag8 Bi4 O12"
_cell_length_a       5.8817
_cell_length_b       6.40821
_cell_length_c       9.23721
_cell_angle_alpha    90
_cell_angle_beta     90
_cell_angle_gamma    90

_space_group_name_H-M_alt    "P 1"
_space_group_IT_number       1

loop_
  _space_group_symop_operation_xyz
  'x, y, z'

loop_
  _atom_site_type_symbol
  _atom_site_label
  _atom_site_symmetry_multiplicity
  _atom_site_fract_x
  _atom_site_fract_y
  _atom_site_fract_z
  _atom_site_occupancy
  Ag  Ag1       1.0  0.02170  0.23100  0.25800  1.0000
  Ag  Ag2       1.0  0.97800  0.76900  0.25800  1.0000
  Ag  Ag3       1.0  0.47800  0.73100  0.75800  1.0000
  Ag  Ag4       1.0  0.52200  0.26900  0.75800  1.0000
  Ag  Ag5       1.0  0.25200  0.99600  0.49800  1.0000
  Ag  Ag6       1.0  0.74800  0.00361  0.49800  1.0000
  Ag  Ag7       1.0  0.24800  0.49600  0.99800  1.0000
  Ag  Ag8       1.0  0.75200  0.50400  0.99800  1.0000
  Bi  Bi1       1.0  0.00000  0.50000  0.61800  1.0000
  Bi  Bi2       1.0  0.50000  0.00000  0.11800  1.0000
  Bi  Bi3       1.0  0.00000  0.00000  0.89400  1.0000
  Bi  Bi4       1.0  0.50000  0.50000  0.39400  1.0000
  O   O1        1.0  0.38300  0.30500  0.22900  1.0000
  O   O2        1.0  0.61700  0.69500  0.22900  1.0000
  O   O3        1.0  0.11700  0.80500  0.72900  1.0000
  O   O4        1.0  0.88300  0.19500  0.72900  1.0000
  O   O5        1.0  0.19700  0.67700  0.43900  1.0000
  O   O6        1.0  0.80300  0.32300  0.43900  1.0000
  O   O7        1.0  0.30300  0.17700  0.93900  1.0000
  O   O8        1.0  0.69700  0.82300  0.93900  1.0000
  O   O9        1.0  0.82000  0.18800  0.05300  1.0000
  O   O10       1.0  0.18000  0.81200  0.05300  1.0000
  O   O11       1.0  0.68000  0.68800  0.55300  1.0000
  O   O12       1.0  0.32000  0.31200  0.55300  1.0000
