data_image0
_chemical_formula_structural       Ca10N8O4W2
_chemical_formula_sum              "Ca10 N8 O4 W2"
_cell_length_a       6.08089
_cell_length_b       6.72831
_cell_length_c       8.43169
_cell_angle_alpha    90
_cell_angle_beta     90.9705
_cell_angle_gamma    90

_space_group_name_H-M_alt    "P 1"
_space_group_IT_number       1

loop_
  _space_group_symop_operation_xyz
  'x, y, z'

loop_
  _atom_site_type_symbol
  _atom_site_label
  _atom_site_symmetry_multiplicity
  _atom_site_fract_x
  _atom_site_fract_y
  _atom_site_fract_z
  _atom_site_occupancy
  Ca  Ca1       1.0  0.00000  0.00000  0.00000  1.0000
  Ca  Ca2       1.0  0.00000  0.50000  0.00000  1.0000
  Ca  Ca3       1.0  0.50300  0.25000  0.01660  1.0000
  Ca  Ca4       1.0  0.19400  0.25000  0.32900  1.0000
  Ca  Ca5       1.0  0.72900  0.50900  0.33500  1.0000
  Ca  Ca6       1.0  0.72900  0.99000  0.33500  1.0000
  Ca  Ca7       1.0  0.27100  0.00950  0.66500  1.0000
  Ca  Ca8       1.0  0.27100  0.49100  0.66500  1.0000
  Ca  Ca9       1.0  0.80600  0.75000  0.67100  1.0000
  Ca  Ca10      1.0  0.49700  0.75000  0.98300  1.0000
  N   N1        1.0  0.33400  0.52400  0.19000  1.0000
  N   N2        1.0  0.33400  0.97600  0.19000  1.0000
  N   N3        1.0  0.02280  0.75000  0.44500  1.0000
  N   N4        1.0  0.50100  0.75000  0.47800  1.0000
  N   N5        1.0  0.49900  0.25000  0.52200  1.0000
  N   N6        1.0  0.97700  0.25000  0.55500  1.0000
  N   N7        1.0  0.66600  0.02450  0.81000  1.0000
  N   N8        1.0  0.66600  0.47600  0.81000  1.0000
  O   O1        1.0  0.80700  0.75000  0.12800  1.0000
  O   O2        1.0  0.84700  0.25000  0.17100  1.0000
  O   O3        1.0  0.15300  0.75000  0.82900  1.0000
  O   O4        1.0  0.19300  0.25000  0.87200  1.0000
  W   W1        1.0  0.27800  0.75000  0.32200  1.0000
  W   W2        1.0  0.72200  0.25000  0.67800  1.0000
