data_image0
_chemical_formula_structural       K8Sn4Te12
_chemical_formula_sum              "K8 Sn4 Te12"
_cell_length_a       8.7786
_cell_length_b       8.82317
_cell_length_c       12.4985
_cell_angle_alpha    90
_cell_angle_beta     69.4401
_cell_angle_gamma    90

_space_group_name_H-M_alt    "P 1"
_space_group_IT_number       1

loop_
  _space_group_symop_operation_xyz
  'x, y, z'

loop_
  _atom_site_type_symbol
  _atom_site_label
  _atom_site_symmetry_multiplicity
  _atom_site_fract_x
  _atom_site_fract_y
  _atom_site_fract_z
  _atom_site_occupancy
  K   K1        1.0  0.92200  0.00000  0.15600  1.0000
  K   K2        1.0  0.42200  0.50000  0.15600  1.0000
  K   K3        1.0  0.76500  0.00000  0.47000  1.0000
  K   K4        1.0  0.26500  0.50000  0.47000  1.0000
  K   K5        1.0  0.23500  0.00000  0.53000  1.0000
  K   K6        1.0  0.73500  0.50000  0.53000  1.0000
  K   K7        1.0  0.07800  0.00000  0.84400  1.0000
  K   K8        1.0  0.57800  0.50000  0.84400  1.0000
  Sn  Sn1       1.0  0.41600  0.00000  0.16800  1.0000
  Sn  Sn2       1.0  0.91600  0.50000  0.16800  1.0000
  Sn  Sn3       1.0  0.58400  0.00000  0.83200  1.0000
  Sn  Sn4       1.0  0.08420  0.50000  0.83200  1.0000
  Te  Te1       1.0  0.33200  0.16800  0.00000  1.0000
  Te  Te2       1.0  0.83200  0.33200  0.00000  1.0000
  Te  Te3       1.0  0.16800  0.66800  0.00000  1.0000
  Te  Te4       1.0  0.66800  0.83200  0.00000  1.0000
  Te  Te5       1.0  0.53700  0.18600  0.29900  1.0000
  Te  Te6       1.0  0.03670  0.31400  0.29900  1.0000
  Te  Te7       1.0  0.66400  0.68600  0.29900  1.0000
  Te  Te8       1.0  0.16400  0.81400  0.29900  1.0000
  Te  Te9       1.0  0.83600  0.18600  0.70100  1.0000
  Te  Te10      1.0  0.33600  0.31400  0.70100  1.0000
  Te  Te11      1.0  0.96300  0.68600  0.70100  1.0000
  Te  Te12      1.0  0.46300  0.81400  0.70100  1.0000
