data_image0
_chemical_formula_structural       Al4Li4Na8P8
_chemical_formula_sum              "Al4 Li4 Na8 P8"
_cell_length_a       5.76248
_cell_length_b       8.89507
_cell_length_c       8.89507
_cell_angle_alpha    80.7749
_cell_angle_beta     90
_cell_angle_gamma    90

_space_group_name_H-M_alt    "P 1"
_space_group_IT_number       1

loop_
  _space_group_symop_operation_xyz
  'x, y, z'

loop_
  _atom_site_type_symbol
  _atom_site_label
  _atom_site_symmetry_multiplicity
  _atom_site_fract_x
  _atom_site_fract_y
  _atom_site_fract_z
  _atom_site_occupancy
  Al  Al1       1.0  0.00000  0.87000  0.13000  1.0000
  Al  Al2       1.0  0.50000  0.63000  0.37000  1.0000
  Al  Al3       1.0  0.50000  0.37000  0.63000  1.0000
  Al  Al4       1.0  0.00000  0.13000  0.87000  1.0000
  Li  Li1       1.0  0.50000  0.88100  0.11900  1.0000
  Li  Li2       1.0  0.00000  0.61900  0.38100  1.0000
  Li  Li3       1.0  0.00000  0.38100  0.61900  1.0000
  Li  Li4       1.0  0.50000  0.11900  0.88100  1.0000
  Na  Na1       1.0  0.25000  0.56800  0.06830  1.0000
  Na  Na2       1.0  0.28600  0.17900  0.17900  1.0000
  Na  Na3       1.0  0.78600  0.32100  0.32100  1.0000
  Na  Na4       1.0  0.75000  0.93200  0.43200  1.0000
  Na  Na5       1.0  0.25000  0.06830  0.56800  1.0000
  Na  Na6       1.0  0.21400  0.67900  0.67900  1.0000
  Na  Na7       1.0  0.71400  0.82100  0.82100  1.0000
  Na  Na8       1.0  0.75000  0.43200  0.93200  1.0000
  P   P1        1.0  0.78500  0.10500  0.10500  1.0000
  P   P2        1.0  0.75000  0.64800  0.14800  1.0000
  P   P3        1.0  0.25000  0.85200  0.35200  1.0000
  P   P4        1.0  0.28500  0.39500  0.39500  1.0000
  P   P5        1.0  0.71500  0.60500  0.60500  1.0000
  P   P6        1.0  0.75000  0.14800  0.64800  1.0000
  P   P7        1.0  0.25000  0.35200  0.85200  1.0000
  P   P8        1.0  0.21500  0.89500  0.89500  1.0000
