data_image0
_chemical_formula_structural       Co4Gd12Ge8
_chemical_formula_sum              "Co4 Gd12 Ge8"
_cell_length_a       11.6522
_cell_length_b       4.17011
_cell_length_c       11.241
_cell_angle_alpha    90
_cell_angle_beta     90
_cell_angle_gamma    90

_space_group_name_H-M_alt    "P 1"
_space_group_IT_number       1

loop_
  _space_group_symop_operation_xyz
  'x, y, z'

loop_
  _atom_site_type_symbol
  _atom_site_label
  _atom_site_symmetry_multiplicity
  _atom_site_fract_x
  _atom_site_fract_y
  _atom_site_fract_z
  _atom_site_occupancy
  Co  Co1       1.0  0.13200  0.25000  0.13100  1.0000
  Co  Co2       1.0  0.63200  0.25000  0.36900  1.0000
  Co  Co3       1.0  0.36800  0.75000  0.63100  1.0000
  Co  Co4       1.0  0.86800  0.75000  0.86900  1.0000
  Gd  Gd1       1.0  0.88000  0.25000  0.05610  1.0000
  Gd  Gd2       1.0  0.55500  0.25000  0.13000  1.0000
  Gd  Gd3       1.0  0.27600  0.75000  0.20000  1.0000
  Gd  Gd4       1.0  0.77600  0.75000  0.30000  1.0000
  Gd  Gd5       1.0  0.05540  0.25000  0.37000  1.0000
  Gd  Gd6       1.0  0.38000  0.25000  0.44400  1.0000
  Gd  Gd7       1.0  0.62000  0.75000  0.55600  1.0000
  Gd  Gd8       1.0  0.94500  0.75000  0.63000  1.0000
  Gd  Gd9       1.0  0.22400  0.25000  0.70000  1.0000
  Gd  Gd10      1.0  0.72400  0.25000  0.80000  1.0000
  Gd  Gd11      1.0  0.44500  0.75000  0.87000  1.0000
  Gd  Gd12      1.0  0.12000  0.75000  0.94400  1.0000
  Ge  Ge1       1.0  0.30600  0.25000  0.00214  1.0000
  Ge  Ge2       1.0  0.01880  0.75000  0.18400  1.0000
  Ge  Ge3       1.0  0.51900  0.75000  0.31600  1.0000
  Ge  Ge4       1.0  0.80600  0.25000  0.49800  1.0000
  Ge  Ge5       1.0  0.19400  0.75000  0.50200  1.0000
  Ge  Ge6       1.0  0.48100  0.25000  0.68400  1.0000
  Ge  Ge7       1.0  0.98100  0.25000  0.81600  1.0000
  Ge  Ge8       1.0  0.69400  0.75000  0.99800  1.0000
