data_image0
_chemical_formula_structural       K8Te12Zr4
_chemical_formula_sum              "K8 Te12 Zr4"
_cell_length_a       9.30059
_cell_length_b       14.3485
_cell_length_c       6.99263
_cell_angle_alpha    90
_cell_angle_beta     105.963
_cell_angle_gamma    90

_space_group_name_H-M_alt    "P 1"
_space_group_IT_number       1

loop_
  _space_group_symop_operation_xyz
  'x, y, z'

loop_
  _atom_site_type_symbol
  _atom_site_label
  _atom_site_symmetry_multiplicity
  _atom_site_fract_x
  _atom_site_fract_y
  _atom_site_fract_z
  _atom_site_occupancy
  K   K1        1.0  0.10200  0.86200  0.05790  1.0000
  K   K2        1.0  0.34400  0.53600  0.16300  1.0000
  K   K3        1.0  0.65600  0.03590  0.33700  1.0000
  K   K4        1.0  0.89800  0.36200  0.44200  1.0000
  K   K5        1.0  0.10200  0.63800  0.55800  1.0000
  K   K6        1.0  0.34400  0.96400  0.66300  1.0000
  K   K7        1.0  0.65600  0.46400  0.83700  1.0000
  K   K8        1.0  0.89800  0.13800  0.94200  1.0000
  Te  Te1       1.0  0.92200  0.65000  0.00156  1.0000
  Te  Te2       1.0  0.27300  0.08450  0.07220  1.0000
  Te  Te3       1.0  0.53500  0.31200  0.16500  1.0000
  Te  Te4       1.0  0.46500  0.81200  0.33500  1.0000
  Te  Te5       1.0  0.72700  0.58500  0.42800  1.0000
  Te  Te6       1.0  0.07800  0.15000  0.49800  1.0000
  Te  Te7       1.0  0.92200  0.85000  0.50200  1.0000
  Te  Te8       1.0  0.27300  0.41500  0.57200  1.0000
  Te  Te9       1.0  0.53500  0.18800  0.66500  1.0000
  Te  Te10      1.0  0.46500  0.68800  0.83500  1.0000
  Te  Te11      1.0  0.72700  0.91500  0.92800  1.0000
  Te  Te12      1.0  0.07800  0.35000  0.99800  1.0000
  Zr  Zr1       1.0  0.70800  0.75100  0.19000  1.0000
  Zr  Zr2       1.0  0.29200  0.25100  0.31000  1.0000
  Zr  Zr3       1.0  0.70800  0.74900  0.69000  1.0000
  Zr  Zr4       1.0  0.29200  0.24900  0.81000  1.0000
