data_image0
_chemical_formula_structural       Cl12Hf2Hg6Se4
_chemical_formula_sum              "Cl12 Hf2 Hg6 Se4"
_cell_length_a       13.3586
_cell_length_b       7.65117
_cell_length_c       6.65944
_cell_angle_alpha    90
_cell_angle_beta     91.823
_cell_angle_gamma    90

_space_group_name_H-M_alt    "P 1"
_space_group_IT_number       1

loop_
  _space_group_symop_operation_xyz
  'x, y, z'

loop_
  _atom_site_type_symbol
  _atom_site_label
  _atom_site_symmetry_multiplicity
  _atom_site_fract_x
  _atom_site_fract_y
  _atom_site_fract_z
  _atom_site_occupancy
  Cl  Cl1       1.0  0.44200  0.64900  0.19000  1.0000
  Cl  Cl2       1.0  0.94200  0.85100  0.19000  1.0000
  Cl  Cl3       1.0  0.66400  0.44900  0.35200  1.0000
  Cl  Cl4       1.0  0.16400  0.05120  0.35200  1.0000
  Cl  Cl5       1.0  0.43400  0.22200  0.36400  1.0000
  Cl  Cl6       1.0  0.93400  0.27800  0.36400  1.0000
  Cl  Cl7       1.0  0.06600  0.72200  0.63600  1.0000
  Cl  Cl8       1.0  0.56600  0.77800  0.63600  1.0000
  Cl  Cl9       1.0  0.33600  0.55100  0.64800  1.0000
  Cl  Cl10      1.0  0.83600  0.94900  0.64800  1.0000
  Cl  Cl11      1.0  0.55800  0.35100  0.81000  1.0000
  Cl  Cl12      1.0  0.05810  0.14900  0.81000  1.0000
  Hf  Hf1       1.0  0.50000  0.50000  0.50000  1.0000
  Hf  Hf2       1.0  0.00000  0.00000  0.50000  1.0000
  Hg  Hg1       1.0  0.50000  0.00000  0.00000  1.0000
  Hg  Hg2       1.0  0.00000  0.50000  0.00000  1.0000
  Hg  Hg3       1.0  0.76200  0.20400  0.00608  1.0000
  Hg  Hg4       1.0  0.26200  0.29600  0.00608  1.0000
  Hg  Hg5       1.0  0.73800  0.70400  0.99400  1.0000
  Hg  Hg6       1.0  0.23800  0.79600  0.99400  1.0000
  Se  Se1       1.0  0.66900  0.96300  0.18600  1.0000
  Se  Se2       1.0  0.16900  0.53700  0.18600  1.0000
  Se  Se3       1.0  0.83100  0.46300  0.81400  1.0000
  Se  Se4       1.0  0.33100  0.03710  0.81400  1.0000
