data_image0
_chemical_formula_structural       C8K4N12
_chemical_formula_sum              "C8 K4 N12"
_cell_length_a       8.39979
_cell_length_b       6.34408
_cell_length_c       6.98219
_cell_angle_alpha    90
_cell_angle_beta     90
_cell_angle_gamma    90

_space_group_name_H-M_alt    "P 1"
_space_group_IT_number       1

loop_
  _space_group_symop_operation_xyz
  'x, y, z'

loop_
  _atom_site_type_symbol
  _atom_site_label
  _atom_site_symmetry_multiplicity
  _atom_site_fract_x
  _atom_site_fract_y
  _atom_site_fract_z
  _atom_site_occupancy
  C   C1        1.0  0.06400  0.13800  0.25000  1.0000
  C   C2        1.0  0.32000  0.26600  0.25000  1.0000
  C   C3        1.0  0.93600  0.63800  0.25000  1.0000
  C   C4        1.0  0.68000  0.76600  0.25000  1.0000
  C   C5        1.0  0.32000  0.23400  0.75000  1.0000
  C   C6        1.0  0.06400  0.36200  0.75000  1.0000
  C   C7        1.0  0.68000  0.73400  0.75000  1.0000
  C   C8        1.0  0.93600  0.86200  0.75000  1.0000
  K   K1        1.0  0.68000  0.25000  0.00000  1.0000
  K   K2        1.0  0.32000  0.75000  0.00000  1.0000
  K   K3        1.0  0.68000  0.25000  0.50000  1.0000
  K   K4        1.0  0.32000  0.75000  0.50000  1.0000
  N   N1        1.0  0.21800  0.11400  0.25000  1.0000
  N   N2        1.0  0.92400  0.14000  0.25000  1.0000
  N   N3        1.0  0.42600  0.39100  0.25000  1.0000
  N   N4        1.0  0.78200  0.61400  0.25000  1.0000
  N   N5        1.0  0.07640  0.64000  0.25000  1.0000
  N   N6        1.0  0.57400  0.89100  0.25000  1.0000
  N   N7        1.0  0.42600  0.10900  0.75000  1.0000
  N   N8        1.0  0.92400  0.36000  0.75000  1.0000
  N   N9        1.0  0.21800  0.38600  0.75000  1.0000
  N   N10       1.0  0.57400  0.60900  0.75000  1.0000
  N   N11       1.0  0.07640  0.86000  0.75000  1.0000
  N   N12       1.0  0.78200  0.88600  0.75000  1.0000
