data_image0
_chemical_formula_structural       As3B3Ba3O15
_chemical_formula_sum              "As3 B3 Ba3 O15"
_cell_length_a       7.28321
_cell_length_b       7.28321
_cell_length_c       7.11655
_cell_angle_alpha    90
_cell_angle_beta     90
_cell_angle_gamma    120

_space_group_name_H-M_alt    "P 1"
_space_group_IT_number       1

loop_
  _space_group_symop_operation_xyz
  'x, y, z'

loop_
  _atom_site_type_symbol
  _atom_site_label
  _atom_site_symmetry_multiplicity
  _atom_site_fract_x
  _atom_site_fract_y
  _atom_site_fract_z
  _atom_site_occupancy
  As  As1       1.0  0.66600  0.93400  0.00265  1.0000
  As  As2       1.0  0.06600  0.73200  0.33600  1.0000
  As  As3       1.0  0.26800  0.33400  0.66900  1.0000
  B   B1        1.0  0.76400  0.33300  0.17000  1.0000
  B   B2        1.0  0.66700  0.43100  0.50300  1.0000
  B   B3        1.0  0.56900  0.23600  0.83700  1.0000
  Ba  Ba1       1.0  0.27500  0.33300  0.16900  1.0000
  Ba  Ba2       1.0  0.66700  0.94200  0.50300  1.0000
  Ba  Ba3       1.0  0.05770  0.72500  0.83600  1.0000
  O   O1        1.0  0.66500  0.36200  0.00423  1.0000
  O   O2        1.0  0.81400  0.15500  0.14800  1.0000
  O   O3        1.0  0.51400  0.74400  0.15600  1.0000
  O   O4        1.0  0.10400  0.92200  0.18200  1.0000
  O   O5        1.0  0.99300  0.51100  0.19100  1.0000
  O   O6        1.0  0.63800  0.30300  0.33800  1.0000
  O   O7        1.0  0.84500  0.66000  0.48100  1.0000
  O   O8        1.0  0.25600  0.77000  0.49000  1.0000
  O   O9        1.0  0.07790  0.18200  0.51500  1.0000
  O   O10       1.0  0.48900  0.48200  0.52400  1.0000
  O   O11       1.0  0.69700  0.33500  0.67100  1.0000
  O   O12       1.0  0.34000  0.18600  0.81400  1.0000
  O   O13       1.0  0.23000  0.48600  0.82300  1.0000
  O   O14       1.0  0.81800  0.89600  0.84900  1.0000
  O   O15       1.0  0.51800  0.00702  0.85800  1.0000
