data_image0
_chemical_formula_structural       Co4Ge8Pr12
_chemical_formula_sum              "Co4 Ge8 Pr12"
_cell_length_a       12.0293
_cell_length_b       4.27384
_cell_length_c       11.6215
_cell_angle_alpha    90
_cell_angle_beta     90
_cell_angle_gamma    90

_space_group_name_H-M_alt    "P 1"
_space_group_IT_number       1

loop_
  _space_group_symop_operation_xyz
  'x, y, z'

loop_
  _atom_site_type_symbol
  _atom_site_label
  _atom_site_symmetry_multiplicity
  _atom_site_fract_x
  _atom_site_fract_y
  _atom_site_fract_z
  _atom_site_occupancy
  Co  Co1       1.0  0.13300  0.25000  0.13300  1.0000
  Co  Co2       1.0  0.63300  0.25000  0.36700  1.0000
  Co  Co3       1.0  0.36700  0.75000  0.63300  1.0000
  Co  Co4       1.0  0.86700  0.75000  0.86700  1.0000
  Ge  Ge1       1.0  0.30500  0.25000  0.00518  1.0000
  Ge  Ge2       1.0  0.02480  0.75000  0.18300  1.0000
  Ge  Ge3       1.0  0.52500  0.75000  0.31700  1.0000
  Ge  Ge4       1.0  0.80500  0.25000  0.49500  1.0000
  Ge  Ge5       1.0  0.19500  0.75000  0.50500  1.0000
  Ge  Ge6       1.0  0.47500  0.25000  0.68300  1.0000
  Ge  Ge7       1.0  0.97500  0.25000  0.81700  1.0000
  Ge  Ge8       1.0  0.69500  0.75000  0.99500  1.0000
  Pr  Pr1       1.0  0.88100  0.25000  0.05630  1.0000
  Pr  Pr2       1.0  0.55600  0.25000  0.12900  1.0000
  Pr  Pr3       1.0  0.27900  0.75000  0.20100  1.0000
  Pr  Pr4       1.0  0.77900  0.75000  0.29900  1.0000
  Pr  Pr5       1.0  0.05590  0.25000  0.37100  1.0000
  Pr  Pr6       1.0  0.38100  0.25000  0.44400  1.0000
  Pr  Pr7       1.0  0.61900  0.75000  0.55600  1.0000
  Pr  Pr8       1.0  0.94400  0.75000  0.62900  1.0000
  Pr  Pr9       1.0  0.22100  0.25000  0.70100  1.0000
  Pr  Pr10      1.0  0.72100  0.25000  0.79900  1.0000
  Pr  Pr11      1.0  0.44400  0.75000  0.87100  1.0000
  Pr  Pr12      1.0  0.11900  0.75000  0.94400  1.0000
