data_image0
_chemical_formula_structural       As3B3O15Pb3
_chemical_formula_sum              "As3 B3 O15 Pb3"
_cell_length_a       7.12938
_cell_length_b       7.12938
_cell_length_c       6.93214
_cell_angle_alpha    90
_cell_angle_beta     90
_cell_angle_gamma    120

_space_group_name_H-M_alt    "P 1"
_space_group_IT_number       1

loop_
  _space_group_symop_operation_xyz
  'x, y, z'

loop_
  _atom_site_type_symbol
  _atom_site_label
  _atom_site_symmetry_multiplicity
  _atom_site_fract_x
  _atom_site_fract_y
  _atom_site_fract_z
  _atom_site_occupancy
  As  As1       1.0  0.25700  0.92700  0.04440  1.0000
  As  As2       1.0  0.07350  0.33000  0.37800  1.0000
  As  As3       1.0  0.67000  0.74300  0.71100  1.0000
  B   B1        1.0  0.65400  0.22600  0.23300  1.0000
  B   B2        1.0  0.77400  0.42800  0.56600  1.0000
  B   B3        1.0  0.57200  0.34600  0.90000  1.0000
  O   O1        1.0  0.66000  0.37700  0.09210  1.0000
  O   O2        1.0  0.48300  0.99200  0.18900  1.0000
  O   O3        1.0  0.07220  0.90000  0.21000  1.0000
  O   O4        1.0  0.27400  0.47300  0.22000  1.0000
  O   O5        1.0  0.85100  0.19500  0.22200  1.0000
  O   O6        1.0  0.62300  0.28300  0.42500  1.0000
  O   O7        1.0  0.00820  0.49200  0.52200  1.0000
  O   O8        1.0  0.10000  0.17300  0.54400  1.0000
  O   O9        1.0  0.52700  0.80100  0.55400  1.0000
  O   O10       1.0  0.80500  0.65600  0.55500  1.0000
  O   O11       1.0  0.71700  0.34000  0.75900  1.0000
  O   O12       1.0  0.50800  0.51700  0.85600  1.0000
  O   O13       1.0  0.82700  0.92800  0.87700  1.0000
  O   O14       1.0  0.19900  0.72600  0.88700  1.0000
  O   O15       1.0  0.34400  0.14900  0.88900  1.0000
  Pb  Pb1       1.0  0.66900  0.73500  0.21300  1.0000
  Pb  Pb2       1.0  0.26500  0.93400  0.54600  1.0000
  Pb  Pb3       1.0  0.06570  0.33100  0.87900  1.0000
