data_image0
_chemical_formula_structural       Ag4Eu8Si12
_chemical_formula_sum              "Ag4 Eu8 Si12"
_cell_length_a       8.40791
_cell_length_b       8.41236
_cell_length_c       9.7433
_cell_angle_alpha    102.452
_cell_angle_beta     115.561
_cell_angle_gamma    60.0175

_space_group_name_H-M_alt    "P 1"
_space_group_IT_number       1

loop_
  _space_group_symop_operation_xyz
  'x, y, z'

loop_
  _atom_site_type_symbol
  _atom_site_label
  _atom_site_symmetry_multiplicity
  _atom_site_fract_x
  _atom_site_fract_y
  _atom_site_fract_z
  _atom_site_occupancy
  Ag  Ag1       1.0  0.45800  0.08350  0.25000  1.0000
  Ag  Ag2       1.0  0.79200  0.41600  0.25000  1.0000
  Ag  Ag3       1.0  0.20800  0.58400  0.75000  1.0000
  Ag  Ag4       1.0  0.54200  0.91600  0.75000  1.0000
  Eu  Eu1       1.0  0.00046  0.25000  0.00091  1.0000
  Eu  Eu2       1.0  0.50100  0.75000  0.00126  1.0000
  Eu  Eu3       1.0  0.74900  0.75000  0.49900  1.0000
  Eu  Eu4       1.0  0.75000  0.25000  0.49900  1.0000
  Eu  Eu5       1.0  0.25000  0.75000  0.50100  1.0000
  Eu  Eu6       1.0  0.25100  0.25000  0.50100  1.0000
  Eu  Eu7       1.0  0.49900  0.25000  0.99900  1.0000
  Eu  Eu8       1.0  0.00000  0.75000  0.99900  1.0000
  Si  Si1       1.0  0.44300  0.58900  0.24500  1.0000
  Si  Si2       1.0  0.80200  0.91100  0.24500  1.0000
  Si  Si3       1.0  0.96400  0.07180  0.25000  1.0000
  Si  Si4       1.0  0.28600  0.42800  0.25000  1.0000
  Si  Si5       1.0  0.96700  0.58900  0.25500  1.0000
  Si  Si6       1.0  0.28800  0.91100  0.25500  1.0000
  Si  Si7       1.0  0.71200  0.08940  0.74500  1.0000
  Si  Si8       1.0  0.03280  0.41100  0.74500  1.0000
  Si  Si9       1.0  0.71400  0.57200  0.75000  1.0000
  Si  Si10      1.0  0.03590  0.92800  0.75000  1.0000
  Si  Si11      1.0  0.19800  0.08940  0.75500  1.0000
  Si  Si12      1.0  0.55700  0.41100  0.75500  1.0000
