data_image0
_chemical_formula_structural       As8Ga4Li4Na8
_chemical_formula_sum              "As8 Ga4 Li4 Na8"
_cell_length_a       5.9002
_cell_length_b       9.28406
_cell_length_c       9.28406
_cell_angle_alpha    81.2889
_cell_angle_beta     90
_cell_angle_gamma    90

_space_group_name_H-M_alt    "P 1"
_space_group_IT_number       1

loop_
  _space_group_symop_operation_xyz
  'x, y, z'

loop_
  _atom_site_type_symbol
  _atom_site_label
  _atom_site_symmetry_multiplicity
  _atom_site_fract_x
  _atom_site_fract_y
  _atom_site_fract_z
  _atom_site_occupancy
  As  As1       1.0  0.28100  0.10700  0.10700  1.0000
  As  As2       1.0  0.25000  0.64200  0.14200  1.0000
  As  As3       1.0  0.75000  0.85800  0.35800  1.0000
  As  As4       1.0  0.78100  0.39300  0.39300  1.0000
  As  As5       1.0  0.21900  0.60700  0.60700  1.0000
  As  As6       1.0  0.25000  0.14200  0.64200  1.0000
  As  As7       1.0  0.75000  0.35800  0.85800  1.0000
  As  As8       1.0  0.71900  0.89300  0.89300  1.0000
  Ga  Ga1       1.0  0.50000  0.86800  0.13200  1.0000
  Ga  Ga2       1.0  0.00000  0.63200  0.36800  1.0000
  Ga  Ga3       1.0  0.00000  0.36800  0.63200  1.0000
  Ga  Ga4       1.0  0.50000  0.13200  0.86800  1.0000
  Li  Li1       1.0  0.00000  0.88100  0.11900  1.0000
  Li  Li2       1.0  0.50000  0.61900  0.38100  1.0000
  Li  Li3       1.0  0.50000  0.38100  0.61900  1.0000
  Li  Li4       1.0  0.00000  0.11900  0.88100  1.0000
  Na  Na1       1.0  0.75000  0.57100  0.07110  1.0000
  Na  Na2       1.0  0.78200  0.17700  0.17700  1.0000
  Na  Na3       1.0  0.28200  0.32300  0.32300  1.0000
  Na  Na4       1.0  0.25000  0.92900  0.42900  1.0000
  Na  Na5       1.0  0.75000  0.07110  0.57100  1.0000
  Na  Na6       1.0  0.71800  0.67700  0.67700  1.0000
  Na  Na7       1.0  0.21800  0.82300  0.82300  1.0000
  Na  Na8       1.0  0.25000  0.42900  0.92900  1.0000
