data_image0
_chemical_formula_structural       B6La6N12
_chemical_formula_sum              "B6 La6 N12"
_cell_length_a       6.58968
_cell_length_b       6.85805
_cell_length_c       7.77865
_cell_angle_alpha    105.946
_cell_angle_beta     90.599
_cell_angle_gamma    115.67

_space_group_name_H-M_alt    "P 1"
_space_group_IT_number       1

loop_
  _space_group_symop_operation_xyz
  'x, y, z'

loop_
  _atom_site_type_symbol
  _atom_site_label
  _atom_site_symmetry_multiplicity
  _atom_site_fract_x
  _atom_site_fract_y
  _atom_site_fract_z
  _atom_site_occupancy
  B   B1        1.0  0.89900  0.22300  0.01450  1.0000
  B   B2        1.0  0.26600  0.42100  0.22600  1.0000
  B   B3        1.0  0.89900  0.21000  0.32800  1.0000
  B   B4        1.0  0.10100  0.79000  0.67200  1.0000
  B   B5        1.0  0.73400  0.57900  0.77400  1.0000
  B   B6        1.0  0.10100  0.77700  0.98600  1.0000
  La  La1       1.0  0.53900  0.78500  0.06150  1.0000
  La  La2       1.0  0.94300  0.66900  0.29900  1.0000
  La  La3       1.0  0.47100  0.22000  0.42200  1.0000
  La  La4       1.0  0.52900  0.78000  0.57800  1.0000
  La  La5       1.0  0.05720  0.33100  0.70100  1.0000
  La  La6       1.0  0.46100  0.21500  0.93800  1.0000
  N   N1        1.0  0.14700  0.36100  0.04320  1.0000
  N   N2        1.0  0.23900  0.91400  0.16000  1.0000
  N   N3        1.0  0.77200  0.21900  0.17300  1.0000
  N   N4        1.0  0.51400  0.51800  0.25100  1.0000
  N   N5        1.0  0.14500  0.37000  0.38000  1.0000
  N   N6        1.0  0.76600  0.04900  0.42000  1.0000
  N   N7        1.0  0.23400  0.95100  0.58000  1.0000
  N   N8        1.0  0.85500  0.63000  0.62000  1.0000
  N   N9        1.0  0.48600  0.48200  0.74900  1.0000
  N   N10       1.0  0.22800  0.78100  0.82700  1.0000
  N   N11       1.0  0.76100  0.08580  0.84000  1.0000
  N   N12       1.0  0.85300  0.63900  0.95700  1.0000
