data_image0
_chemical_formula_structural       AlH12La2Ni9
_chemical_formula_sum              "Al1 H12 La2 Ni9"
_cell_length_a       5.50747
_cell_length_b       5.50747
_cell_length_c       7.76685
_cell_angle_alpha    90
_cell_angle_beta     90
_cell_angle_gamma    116.414

_space_group_name_H-M_alt    "P 1"
_space_group_IT_number       1

loop_
  _space_group_symop_operation_xyz
  'x, y, z'

loop_
  _atom_site_type_symbol
  _atom_site_label
  _atom_site_symmetry_multiplicity
  _atom_site_fract_x
  _atom_site_fract_y
  _atom_site_fract_z
  _atom_site_occupancy
  Al  Al1       1.0  0.50000  0.50000  0.75000  1.0000
  H   H1        1.0  0.81900  0.18100  0.25000  1.0000
  H   H2        1.0  0.18100  0.81900  0.25000  1.0000
  H   H3        1.0  0.34900  0.17900  0.25000  1.0000
  H   H4        1.0  0.17900  0.34900  0.25000  1.0000
  H   H5        1.0  0.82100  0.65100  0.25000  1.0000
  H   H6        1.0  0.65100  0.82100  0.25000  1.0000
  H   H7        1.0  0.80400  0.19600  0.75000  1.0000
  H   H8        1.0  0.19600  0.80400  0.75000  1.0000
  H   H9        1.0  0.29500  0.12500  0.75000  1.0000
  H   H10       1.0  0.12500  0.29500  0.75000  1.0000
  H   H11       1.0  0.87500  0.70500  0.75000  1.0000
  H   H12       1.0  0.70500  0.87500  0.75000  1.0000
  La  La1       1.0  0.00000  0.00000  0.50000  1.0000
  La  La2       1.0  0.00000  0.00000  0.00000  1.0000
  Ni  Ni1       1.0  0.50000  0.50000  0.25000  1.0000
  Ni  Ni2       1.0  0.50000  0.00000  0.25000  1.0000
  Ni  Ni3       1.0  0.00000  0.50000  0.25000  1.0000
  Ni  Ni4       1.0  0.65900  0.34100  0.50300  1.0000
  Ni  Ni5       1.0  0.34100  0.65900  0.50300  1.0000
  Ni  Ni6       1.0  0.50000  0.00000  0.75000  1.0000
  Ni  Ni7       1.0  0.00000  0.50000  0.75000  1.0000
  Ni  Ni8       1.0  0.65900  0.34100  0.99700  1.0000
  Ni  Ni9       1.0  0.34100  0.65900  0.99700  1.0000
