data_image0
_chemical_formula_structural       Ag8Cu2O12Te2
_chemical_formula_sum              "Ag8 Cu2 O12 Te2"
_cell_length_a       5.71872
_cell_length_b       7.46102
_cell_length_c       7.46102
_cell_angle_alpha    81.5622
_cell_angle_beta     97.0803
_cell_angle_gamma    97.0803

_space_group_name_H-M_alt    "P 1"
_space_group_IT_number       1

loop_
  _space_group_symop_operation_xyz
  'x, y, z'

loop_
  _atom_site_type_symbol
  _atom_site_label
  _atom_site_symmetry_multiplicity
  _atom_site_fract_x
  _atom_site_fract_y
  _atom_site_fract_z
  _atom_site_occupancy
  Ag  Ag1       1.0  0.00000  0.50000  0.00000  1.0000
  Ag  Ag2       1.0  0.46400  0.34900  0.18500  1.0000
  Ag  Ag3       1.0  0.96400  0.18500  0.34900  1.0000
  Ag  Ag4       1.0  0.25000  0.57100  0.42900  1.0000
  Ag  Ag5       1.0  0.50000  1.00000  0.50000  1.0000
  Ag  Ag6       1.0  0.75000  0.42900  0.57100  1.0000
  Ag  Ag7       1.0  0.03600  0.81500  0.65100  1.0000
  Ag  Ag8       1.0  0.53600  0.65100  0.81500  1.0000
  Cu  Cu1       1.0  0.25000  0.91700  0.08300  1.0000
  Cu  Cu2       1.0  0.75000  0.08300  0.91700  1.0000
  O   O1        1.0  0.17000  0.17400  0.03330  1.0000
  O   O2        1.0  0.41700  0.69700  0.14300  1.0000
  O   O3        1.0  0.67000  0.03330  0.17400  1.0000
  O   O4        1.0  0.82000  0.52400  0.24700  1.0000
  O   O5        1.0  0.08340  0.85700  0.30300  1.0000
  O   O6        1.0  0.68000  0.75300  0.47600  1.0000
  O   O7        1.0  0.32000  0.24700  0.52400  1.0000
  O   O8        1.0  0.91700  0.14300  0.69700  1.0000
  O   O9        1.0  0.18000  0.47600  0.75300  1.0000
  O   O10       1.0  0.33000  0.96700  0.82600  1.0000
  O   O11       1.0  0.58300  0.30300  0.85700  1.0000
  O   O12       1.0  0.83000  0.82600  0.96700  1.0000
  Te  Te1       1.0  0.75000  0.77800  0.22200  1.0000
  Te  Te2       1.0  0.25000  0.22200  0.77800  1.0000
