data_image0
_chemical_formula_structural       AlLu2Si2
_chemical_formula_sum              "Al1 Lu2 Si2"
_cell_length_a       4.01527
_cell_length_b       5.4727
_cell_length_c       5.4727
_cell_angle_alpha    101.086
_cell_angle_beta     111.521
_cell_angle_gamma    111.521

_space_group_name_H-M_alt    "P 1"
_space_group_IT_number       1

loop_
  _space_group_symop_operation_xyz
  'x, y, z'

loop_
  _atom_site_type_symbol
  _atom_site_label
  _atom_site_symmetry_multiplicity
  _atom_site_fract_x
  _atom_site_fract_y
  _atom_site_fract_z
  _atom_site_occupancy
  Al  Al1       1.0  0.00000  0.00000  0.00000  1.0000
  Lu  Lu1       1.0  0.50000  0.71100  0.28900  1.0000
  Lu  Lu2       1.0  0.50000  0.28900  0.71100  1.0000
  Si  Si1       1.0  0.78900  0.28900  0.28900  1.0000
  Si  Si2       1.0  0.21100  0.71100  0.71100  1.0000
