data_image0
_chemical_formula_structural       Na2S14Si2Y6
_chemical_formula_sum              "Na2 S14 Si2 Y6"
_cell_length_a       9.92698
_cell_length_b       9.92697
_cell_length_c       5.7565
_cell_angle_alpha    90
_cell_angle_beta     90
_cell_angle_gamma    120

_space_group_name_H-M_alt    "P 1"
_space_group_IT_number       1

loop_
  _space_group_symop_operation_xyz
  'x, y, z'

loop_
  _atom_site_type_symbol
  _atom_site_label
  _atom_site_symmetry_multiplicity
  _atom_site_fract_x
  _atom_site_fract_y
  _atom_site_fract_z
  _atom_site_occupancy
  Na  Na1       1.0  0.00000  0.00000  0.03810  1.0000
  Na  Na2       1.0  0.00000  0.00000  0.53800  1.0000
  S   S1        1.0  0.47700  0.58400  0.01530  1.0000
  S   S2        1.0  0.41600  0.89300  0.01530  1.0000
  S   S3        1.0  0.10700  0.52300  0.01530  1.0000
  S   S4        1.0  0.66700  0.33300  0.03500  1.0000
  S   S5        1.0  0.09920  0.83600  0.29100  1.0000
  S   S6        1.0  0.73700  0.90100  0.29100  1.0000
  S   S7        1.0  0.16400  0.26300  0.29100  1.0000
  S   S8        1.0  0.52300  0.41600  0.51500  1.0000
  S   S9        1.0  0.58400  0.10700  0.51500  1.0000
  S   S10       1.0  0.89300  0.47700  0.51500  1.0000
  S   S11       1.0  0.33300  0.66700  0.53500  1.0000
  S   S12       1.0  0.26300  0.09920  0.79100  1.0000
  S   S13       1.0  0.90100  0.16400  0.79100  1.0000
  S   S14       1.0  0.83600  0.73700  0.79100  1.0000
  Si  Si1       1.0  0.33300  0.66700  0.16600  1.0000
  Si  Si2       1.0  0.66700  0.33300  0.66600  1.0000
  Y   Y1        1.0  0.86700  0.22900  0.25300  1.0000
  Y   Y2        1.0  0.77100  0.63700  0.25300  1.0000
  Y   Y3        1.0  0.36300  0.13300  0.25300  1.0000
  Y   Y4        1.0  0.22900  0.36300  0.75300  1.0000
  Y   Y5        1.0  0.13300  0.77100  0.75300  1.0000
  Y   Y6        1.0  0.63700  0.86700  0.75300  1.0000
