data_image0
_chemical_formula_structural       Cl14Mo4O4Tl2
_chemical_formula_sum              "Cl14 Mo4 O4 Tl2"
_cell_length_a       7.03816
_cell_length_b       9.33483
_cell_length_c       10.0729
_cell_angle_alpha    104.702
_cell_angle_beta     90.3241
_cell_angle_gamma    108.253

_space_group_name_H-M_alt    "P 1"
_space_group_IT_number       1

loop_
  _space_group_symop_operation_xyz
  'x, y, z'

loop_
  _atom_site_type_symbol
  _atom_site_label
  _atom_site_symmetry_multiplicity
  _atom_site_fract_x
  _atom_site_fract_y
  _atom_site_fract_z
  _atom_site_occupancy
  Cl  Cl1       1.0  0.25200  0.16000  0.02450  1.0000
  Cl  Cl2       1.0  0.91700  0.65000  0.15700  1.0000
  Cl  Cl3       1.0  0.42000  0.59200  0.16700  1.0000
  Cl  Cl4       1.0  0.53400  0.98500  0.23700  1.0000
  Cl  Cl5       1.0  0.09840  0.39200  0.34400  1.0000
  Cl  Cl6       1.0  0.58800  0.40300  0.36900  1.0000
  Cl  Cl7       1.0  0.71200  0.80600  0.44100  1.0000
  Cl  Cl8       1.0  0.28800  0.19400  0.55900  1.0000
  Cl  Cl9       1.0  0.41200  0.59700  0.63100  1.0000
  Cl  Cl10      1.0  0.90200  0.60800  0.65600  1.0000
  Cl  Cl11      1.0  0.46600  0.01530  0.76300  1.0000
  Cl  Cl12      1.0  0.58000  0.40800  0.83300  1.0000
  Cl  Cl13      1.0  0.08270  0.35000  0.84300  1.0000
  Cl  Cl14      1.0  0.74800  0.84000  0.97500  1.0000
  Mo  Mo1       1.0  0.78100  0.85800  0.21200  1.0000
  Mo  Mo2       1.0  0.36400  0.62500  0.40500  1.0000
  Mo  Mo3       1.0  0.63600  0.37500  0.59500  1.0000
  Mo  Mo4       1.0  0.21900  0.14200  0.78800  1.0000
  O   O1        1.0  0.99200  0.01110  0.27100  1.0000
  O   O2        1.0  0.24700  0.76000  0.43900  1.0000
  O   O3        1.0  0.75300  0.24000  0.56100  1.0000
  O   O4        1.0  0.00781  0.98900  0.72900  1.0000
  Tl  Tl1       1.0  0.77200  0.24400  0.06380  1.0000
  Tl  Tl2       1.0  0.22800  0.75600  0.93600  1.0000
