data_image0
_chemical_formula_structural       Co4Nd12
_chemical_formula_sum              "Co4 Nd12"
_cell_length_a       7.09509
_cell_length_b       9.84794
_cell_length_c       6.44003
_cell_angle_alpha    90
_cell_angle_beta     90
_cell_angle_gamma    90

_space_group_name_H-M_alt    "P 1"
_space_group_IT_number       1

loop_
  _space_group_symop_operation_xyz
  'x, y, z'

loop_
  _atom_site_type_symbol
  _atom_site_label
  _atom_site_symmetry_multiplicity
  _atom_site_fract_x
  _atom_site_fract_y
  _atom_site_fract_z
  _atom_site_occupancy
  Co  Co1       1.0  0.88700  0.25000  0.05890  1.0000
  Co  Co2       1.0  0.38700  0.25000  0.44100  1.0000
  Co  Co3       1.0  0.61300  0.75000  0.55900  1.0000
  Co  Co4       1.0  0.11300  0.75000  0.94100  1.0000
  Nd  Nd1       1.0  0.45400  0.75000  0.14400  1.0000
  Nd  Nd2       1.0  0.17200  0.06890  0.17400  1.0000
  Nd  Nd3       1.0  0.17200  0.43100  0.17400  1.0000
  Nd  Nd4       1.0  0.67200  0.06890  0.32600  1.0000
  Nd  Nd5       1.0  0.67200  0.43100  0.32600  1.0000
  Nd  Nd6       1.0  0.95400  0.75000  0.35600  1.0000
  Nd  Nd7       1.0  0.04600  0.25000  0.64400  1.0000
  Nd  Nd8       1.0  0.32800  0.56900  0.67400  1.0000
  Nd  Nd9       1.0  0.32800  0.93100  0.67400  1.0000
  Nd  Nd10      1.0  0.82800  0.56900  0.82600  1.0000
  Nd  Nd11      1.0  0.82800  0.93100  0.82600  1.0000
  Nd  Nd12      1.0  0.54600  0.25000  0.85600  1.0000
