data_image0
_chemical_formula_structural       Na8P4Se12
_chemical_formula_sum              "Na8 P4 Se12"
_cell_length_a       8.02646
_cell_length_b       8.91096
_cell_length_c       8.91096
_cell_angle_alpha    83.246
_cell_angle_beta     90
_cell_angle_gamma    90

_space_group_name_H-M_alt    "P 1"
_space_group_IT_number       1

loop_
  _space_group_symop_operation_xyz
  'x, y, z'

loop_
  _atom_site_type_symbol
  _atom_site_label
  _atom_site_symmetry_multiplicity
  _atom_site_fract_x
  _atom_site_fract_y
  _atom_site_fract_z
  _atom_site_occupancy
  Na  Na1       1.0  0.84400  0.18500  0.18500  1.0000
  Na  Na2       1.0  0.75000  0.72200  0.22200  1.0000
  Na  Na3       1.0  0.25000  0.77800  0.27800  1.0000
  Na  Na4       1.0  0.34400  0.31500  0.31500  1.0000
  Na  Na5       1.0  0.65600  0.68500  0.68500  1.0000
  Na  Na6       1.0  0.75000  0.22200  0.72200  1.0000
  Na  Na7       1.0  0.25000  0.27800  0.77800  1.0000
  Na  Na8       1.0  0.15600  0.81500  0.81500  1.0000
  P   P1        1.0  0.44500  0.07860  0.07860  1.0000
  P   P2        1.0  0.94500  0.42100  0.42100  1.0000
  P   P3        1.0  0.05470  0.57900  0.57900  1.0000
  P   P4        1.0  0.55500  0.92100  0.92100  1.0000
  Se  Se1       1.0  0.53400  0.30900  0.00063  1.0000
  Se  Se2       1.0  0.17200  0.05260  0.05260  1.0000
  Se  Se3       1.0  0.03360  0.49900  0.19100  1.0000
  Se  Se4       1.0  0.53400  0.00063  0.30900  1.0000
  Se  Se5       1.0  0.67200  0.44700  0.44700  1.0000
  Se  Se6       1.0  0.03360  0.19100  0.49900  1.0000
  Se  Se7       1.0  0.96600  0.80900  0.50100  1.0000
  Se  Se8       1.0  0.32800  0.55300  0.55300  1.0000
  Se  Se9       1.0  0.46600  0.99900  0.69100  1.0000
  Se  Se10      1.0  0.96600  0.50100  0.80900  1.0000
  Se  Se11      1.0  0.82800  0.94700  0.94700  1.0000
  Se  Se12      1.0  0.46600  0.69100  0.99900  1.0000
