data_image0
_chemical_formula_structural       As8In4K8Li4
_chemical_formula_sum              "As8 In4 K8 Li4"
_cell_length_a       6.42201
_cell_length_b       10.1769
_cell_length_c       10.1769
_cell_angle_alpha    79.1108
_cell_angle_beta     90
_cell_angle_gamma    90

_space_group_name_H-M_alt    "P 1"
_space_group_IT_number       1

loop_
  _space_group_symop_operation_xyz
  'x, y, z'

loop_
  _atom_site_type_symbol
  _atom_site_label
  _atom_site_symmetry_multiplicity
  _atom_site_fract_x
  _atom_site_fract_y
  _atom_site_fract_z
  _atom_site_occupancy
  As  As1       1.0  0.76800  0.09860  0.09860  1.0000
  As  As2       1.0  0.75000  0.64800  0.14800  1.0000
  As  As3       1.0  0.25000  0.85200  0.35200  1.0000
  As  As4       1.0  0.26800  0.40100  0.40100  1.0000
  As  As5       1.0  0.73200  0.59900  0.59900  1.0000
  As  As6       1.0  0.75000  0.14800  0.64800  1.0000
  As  As7       1.0  0.25000  0.35200  0.85200  1.0000
  As  As8       1.0  0.23200  0.90100  0.90100  1.0000
  In  In1       1.0  0.00000  0.86800  0.13200  1.0000
  In  In2       1.0  0.50000  0.63200  0.36800  1.0000
  In  In3       1.0  0.50000  0.36800  0.63200  1.0000
  In  In4       1.0  0.00000  0.13200  0.86800  1.0000
  K   K1        1.0  0.25000  0.57300  0.07330  1.0000
  K   K2        1.0  0.27600  0.17400  0.17400  1.0000
  K   K3        1.0  0.77600  0.32600  0.32600  1.0000
  K   K4        1.0  0.75000  0.92700  0.42700  1.0000
  K   K5        1.0  0.25000  0.07330  0.57300  1.0000
  K   K6        1.0  0.22400  0.67400  0.67400  1.0000
  K   K7        1.0  0.72400  0.82600  0.82600  1.0000
  K   K8        1.0  0.75000  0.42700  0.92700  1.0000
  Li  Li1       1.0  0.50000  0.88000  0.12000  1.0000
  Li  Li2       1.0  0.00000  0.62000  0.38000  1.0000
  Li  Li3       1.0  0.00000  0.38000  0.62000  1.0000
  Li  Li4       1.0  0.50000  0.12000  0.88000  1.0000
