data_image0
_chemical_formula_structural       Br12Hg6Se4Zr2
_chemical_formula_sum              "Br12 Hg6 Se4 Zr2"
_cell_length_a       13.6895
_cell_length_b       7.65956
_cell_length_c       7.04101
_cell_angle_alpha    90
_cell_angle_beta     92.1429
_cell_angle_gamma    90

_space_group_name_H-M_alt    "P 1"
_space_group_IT_number       1

loop_
  _space_group_symop_operation_xyz
  'x, y, z'

loop_
  _atom_site_type_symbol
  _atom_site_label
  _atom_site_symmetry_multiplicity
  _atom_site_fract_x
  _atom_site_fract_y
  _atom_site_fract_z
  _atom_site_occupancy
  Br  Br1       1.0  0.93800  0.85300  0.17700  1.0000
  Br  Br2       1.0  0.43800  0.64700  0.17700  1.0000
  Br  Br3       1.0  0.67300  0.44900  0.35600  1.0000
  Br  Br4       1.0  0.17300  0.05100  0.35600  1.0000
  Br  Br5       1.0  0.93500  0.30300  0.36900  1.0000
  Br  Br6       1.0  0.43500  0.19700  0.36900  1.0000
  Br  Br7       1.0  0.56500  0.80300  0.63100  1.0000
  Br  Br8       1.0  0.06490  0.69700  0.63100  1.0000
  Br  Br9       1.0  0.82700  0.94900  0.64400  1.0000
  Br  Br10      1.0  0.32700  0.55100  0.64400  1.0000
  Br  Br11      1.0  0.56200  0.35300  0.82300  1.0000
  Br  Br12      1.0  0.06160  0.14700  0.82300  1.0000
  Hg  Hg1       1.0  0.50000  0.00000  0.00000  1.0000
  Hg  Hg2       1.0  0.00000  0.50000  0.00000  1.0000
  Hg  Hg3       1.0  0.26300  0.30200  0.00802  1.0000
  Hg  Hg4       1.0  0.76300  0.19800  0.00802  1.0000
  Hg  Hg5       1.0  0.73700  0.69800  0.99200  1.0000
  Hg  Hg6       1.0  0.23700  0.80200  0.99200  1.0000
  Se  Se1       1.0  0.16800  0.54200  0.17200  1.0000
  Se  Se2       1.0  0.66800  0.95800  0.17200  1.0000
  Se  Se3       1.0  0.33200  0.04250  0.82800  1.0000
  Se  Se4       1.0  0.83200  0.45800  0.82800  1.0000
  Zr  Zr1       1.0  0.50000  0.50000  0.50000  1.0000
  Zr  Zr2       1.0  0.00000  0.00000  0.50000  1.0000
