data_image0
_chemical_formula_structural       Ca8N12V4
_chemical_formula_sum              "Ca8 N12 V4"
_cell_length_a       5.5674
_cell_length_b       5.88774
_cell_length_c       11.565
_cell_angle_alpha    91.0681
_cell_angle_beta     92.2595
_cell_angle_gamma    61.784

_space_group_name_H-M_alt    "P 1"
_space_group_IT_number       1

loop_
  _space_group_symop_operation_xyz
  'x, y, z'

loop_
  _atom_site_type_symbol
  _atom_site_label
  _atom_site_symmetry_multiplicity
  _atom_site_fract_x
  _atom_site_fract_y
  _atom_site_fract_z
  _atom_site_occupancy
  Ca  Ca1       1.0  0.38400  0.77600  0.07720  1.0000
  Ca  Ca2       1.0  0.05630  0.40800  0.14800  1.0000
  Ca  Ca3       1.0  0.53600  0.40800  0.35200  1.0000
  Ca  Ca4       1.0  0.84100  0.77600  0.42300  1.0000
  Ca  Ca5       1.0  0.15900  0.22400  0.57700  1.0000
  Ca  Ca6       1.0  0.46400  0.59200  0.64800  1.0000
  Ca  Ca7       1.0  0.94400  0.59200  0.85200  1.0000
  Ca  Ca8       1.0  0.61600  0.22400  0.92300  1.0000
  N   N1        1.0  0.81000  0.81500  0.03590  1.0000
  N   N2        1.0  0.65900  0.33000  0.12800  1.0000
  N   N3        1.0  0.50700  0.98600  0.25000  1.0000
  N   N4        1.0  0.09150  0.81700  0.25000  1.0000
  N   N5        1.0  0.01160  0.33000  0.37200  1.0000
  N   N6        1.0  0.37600  0.81500  0.46400  1.0000
  N   N7        1.0  0.62400  0.18500  0.53600  1.0000
  N   N8        1.0  0.98800  0.67000  0.62800  1.0000
  N   N9        1.0  0.49300  0.01360  0.75000  1.0000
  N   N10       1.0  0.90900  0.18300  0.75000  1.0000
  N   N11       1.0  0.34100  0.67000  0.87200  1.0000
  N   N12       1.0  0.19000  0.18500  0.96400  1.0000
  V   V1        1.0  0.76800  0.00000  0.16200  1.0000
  V   V2        1.0  0.23200  0.00000  0.33800  1.0000
  V   V3        1.0  0.76800  0.00000  0.66200  1.0000
  V   V4        1.0  0.23200  0.00000  0.83800  1.0000
