data_image0
_chemical_formula_structural       B6Ce6N12
_chemical_formula_sum              "B6 Ce6 N12"
_cell_length_a       6.60935
_cell_length_b       6.79962
_cell_length_c       7.76353
_cell_angle_alpha    105.923
_cell_angle_beta     90.7292
_cell_angle_gamma    115.472

_space_group_name_H-M_alt    "P 1"
_space_group_IT_number       1

loop_
  _space_group_symop_operation_xyz
  'x, y, z'

loop_
  _atom_site_type_symbol
  _atom_site_label
  _atom_site_symmetry_multiplicity
  _atom_site_fract_x
  _atom_site_fract_y
  _atom_site_fract_z
  _atom_site_occupancy
  B   B1        1.0  0.89800  0.22100  0.01370  1.0000
  B   B2        1.0  0.26500  0.41800  0.22500  1.0000
  B   B3        1.0  0.89900  0.20800  0.32600  1.0000
  B   B4        1.0  0.10100  0.79200  0.67400  1.0000
  B   B5        1.0  0.73500  0.58200  0.77500  1.0000
  B   B6        1.0  0.10200  0.77900  0.98600  1.0000
  Ce  Ce1       1.0  0.53700  0.78500  0.06010  1.0000
  Ce  Ce2       1.0  0.94100  0.67400  0.30100  1.0000
  Ce  Ce3       1.0  0.47600  0.22100  0.42300  1.0000
  Ce  Ce4       1.0  0.52400  0.77900  0.57700  1.0000
  Ce  Ce5       1.0  0.05900  0.32600  0.69900  1.0000
  Ce  Ce6       1.0  0.46300  0.21500  0.94000  1.0000
  N   N1        1.0  0.14600  0.35600  0.04120  1.0000
  N   N2        1.0  0.24000  0.91700  0.16000  1.0000
  N   N3        1.0  0.77300  0.22300  0.17300  1.0000
  N   N4        1.0  0.51100  0.51600  0.25100  1.0000
  N   N5        1.0  0.14400  0.36800  0.37900  1.0000
  N   N6        1.0  0.76800  0.04300  0.41500  1.0000
  N   N7        1.0  0.23200  0.95700  0.58500  1.0000
  N   N8        1.0  0.85600  0.63200  0.62100  1.0000
  N   N9        1.0  0.48900  0.48400  0.74900  1.0000
  N   N10       1.0  0.22700  0.77700  0.82700  1.0000
  N   N11       1.0  0.76000  0.08270  0.84000  1.0000
  N   N12       1.0  0.85400  0.64400  0.95900  1.0000
