data_image0
_chemical_formula_structural       Ga4I16K4
_chemical_formula_sum              "Ga4 I16 K4"
_cell_length_a       8.50992
_cell_length_b       8.06236
_cell_length_c       16.4668
_cell_angle_alpha    90
_cell_angle_beta     95.7366
_cell_angle_gamma    90

_space_group_name_H-M_alt    "P 1"
_space_group_IT_number       1

loop_
  _space_group_symop_operation_xyz
  'x, y, z'

loop_
  _atom_site_type_symbol
  _atom_site_label
  _atom_site_symmetry_multiplicity
  _atom_site_fract_x
  _atom_site_fract_y
  _atom_site_fract_z
  _atom_site_occupancy
  Ga  Ga1       1.0  0.24400  0.85700  0.13900  1.0000
  Ga  Ga2       1.0  0.75600  0.35700  0.36100  1.0000
  Ga  Ga3       1.0  0.24400  0.64300  0.63900  1.0000
  Ga  Ga4       1.0  0.75600  0.14300  0.86100  1.0000
  I   I1        1.0  0.41800  0.73800  0.03180  1.0000
  I   I2        1.0  0.13700  0.14500  0.09020  1.0000
  I   I3        1.0  0.01690  0.65000  0.15900  1.0000
  I   I4        1.0  0.58600  0.39100  0.22300  1.0000
  I   I5        1.0  0.41400  0.89100  0.27700  1.0000
  I   I6        1.0  0.98300  0.15000  0.34100  1.0000
  I   I7        1.0  0.86300  0.64500  0.41000  1.0000
  I   I8        1.0  0.58200  0.23800  0.46800  1.0000
  I   I9        1.0  0.41800  0.76200  0.53200  1.0000
  I   I10       1.0  0.13700  0.35500  0.59000  1.0000
  I   I11       1.0  0.01690  0.85000  0.65900  1.0000
  I   I12       1.0  0.58600  0.10900  0.72300  1.0000
  I   I13       1.0  0.41400  0.60900  0.77700  1.0000
  I   I14       1.0  0.98300  0.35000  0.84100  1.0000
  I   I15       1.0  0.86300  0.85500  0.91000  1.0000
  I   I16       1.0  0.58200  0.26200  0.96800  1.0000
  K   K1        1.0  0.74200  0.99500  0.14100  1.0000
  K   K2        1.0  0.25800  0.49500  0.35900  1.0000
  K   K3        1.0  0.74200  0.50500  0.64100  1.0000
  K   K4        1.0  0.25800  0.00493  0.85900  1.0000
