data_image0
_chemical_formula_structural       Au4I16K4
_chemical_formula_sum              "Au4 I16 K4"
_cell_length_a       10.2724
_cell_length_b       7.1685
_cell_length_c       14.2089
_cell_angle_alpha    90
_cell_angle_beta     101.448
_cell_angle_gamma    90

_space_group_name_H-M_alt    "P 1"
_space_group_IT_number       1

loop_
  _space_group_symop_operation_xyz
  'x, y, z'

loop_
  _atom_site_type_symbol
  _atom_site_label
  _atom_site_symmetry_multiplicity
  _atom_site_fract_x
  _atom_site_fract_y
  _atom_site_fract_z
  _atom_site_occupancy
  Au  Au1       1.0  0.00000  0.00000  0.00000  1.0000
  Au  Au2       1.0  0.50000  0.00000  0.00000  1.0000
  Au  Au3       1.0  0.50000  0.50000  0.50000  1.0000
  Au  Au4       1.0  0.00000  0.50000  0.50000  1.0000
  I   I1        1.0  0.86000  0.70400  0.04120  1.0000
  I   I2        1.0  0.65200  0.28000  0.08460  1.0000
  I   I3        1.0  0.49800  0.84800  0.17200  1.0000
  I   I4        1.0  0.08520  0.06870  0.18800  1.0000
  I   I5        1.0  0.91500  0.56900  0.31200  1.0000
  I   I6        1.0  0.50200  0.34800  0.32800  1.0000
  I   I7        1.0  0.34800  0.78000  0.41500  1.0000
  I   I8        1.0  0.14000  0.20400  0.45900  1.0000
  I   I9        1.0  0.86000  0.79600  0.54100  1.0000
  I   I10       1.0  0.65200  0.22000  0.58500  1.0000
  I   I11       1.0  0.49800  0.65200  0.67200  1.0000
  I   I12       1.0  0.08520  0.43100  0.68800  1.0000
  I   I13       1.0  0.91500  0.93100  0.81200  1.0000
  I   I14       1.0  0.50200  0.15200  0.82800  1.0000
  I   I15       1.0  0.34800  0.72000  0.91500  1.0000
  I   I16       1.0  0.14000  0.29600  0.95900  1.0000
  K   K1        1.0  0.20300  0.56300  0.18600  1.0000
  K   K2        1.0  0.79700  0.06330  0.31400  1.0000
  K   K3        1.0  0.20300  0.93700  0.68600  1.0000
  K   K4        1.0  0.79700  0.43700  0.81400  1.0000
