data_image0
_chemical_formula_structural       O14P8Se2
_chemical_formula_sum              "O14 P8 Se2"
_cell_length_a       6.62811
_cell_length_b       6.99347
_cell_length_c       8.04696
_cell_angle_alpha    93.2363
_cell_angle_beta     105.037
_cell_angle_gamma    94.4899

_space_group_name_H-M_alt    "P 1"
_space_group_IT_number       1

loop_
  _space_group_symop_operation_xyz
  'x, y, z'

loop_
  _atom_site_type_symbol
  _atom_site_label
  _atom_site_symmetry_multiplicity
  _atom_site_fract_x
  _atom_site_fract_y
  _atom_site_fract_z
  _atom_site_occupancy
  O   O1        1.0  0.49200  0.70700  0.06400  1.0000
  O   O2        1.0  0.78300  0.97200  0.18500  1.0000
  O   O3        1.0  0.84200  0.62900  0.25700  1.0000
  O   O4        1.0  0.46200  0.95600  0.29800  1.0000
  O   O5        1.0  0.52000  0.61200  0.36900  1.0000
  O   O6        1.0  0.75600  0.23200  0.41700  1.0000
  O   O7        1.0  0.80800  0.88200  0.48800  1.0000
  O   O8        1.0  0.19200  0.11800  0.51200  1.0000
  O   O9        1.0  0.24400  0.76800  0.58300  1.0000
  O   O10       1.0  0.48000  0.38800  0.63100  1.0000
  O   O11       1.0  0.53800  0.04350  0.70200  1.0000
  O   O12       1.0  0.15800  0.37100  0.74300  1.0000
  O   O13       1.0  0.21700  0.02830  0.81500  1.0000
  O   O14       1.0  0.50800  0.29300  0.93600  1.0000
  P   P1        1.0  0.74200  0.75000  0.09550  1.0000
  P   P2        1.0  0.36400  0.72500  0.22200  1.0000
  P   P3        1.0  0.70500  0.02850  0.35400  1.0000
  P   P4        1.0  0.77700  0.63900  0.44700  1.0000
  P   P5        1.0  0.22300  0.36100  0.55300  1.0000
  P   P6        1.0  0.29500  0.97100  0.64600  1.0000
  P   P7        1.0  0.63600  0.27500  0.77800  1.0000
  P   P8        1.0  0.25800  0.25000  0.90500  1.0000
  Se  Se1       1.0  0.14000  0.28900  0.11300  1.0000
  Se  Se2       1.0  0.86000  0.71100  0.88700  1.0000
