data_image0
_chemical_formula_structural       Au3C6CoKN6
_chemical_formula_sum              "Au3 C6 Co1 K1 N6"
_cell_length_a       6.65615
_cell_length_b       6.65569
_cell_length_c       7.62292
_cell_angle_alpha    90.0059
_cell_angle_beta     89.9881
_cell_angle_gamma    120.002

_space_group_name_H-M_alt    "P 1"
_space_group_IT_number       1

loop_
  _space_group_symop_operation_xyz
  'x, y, z'

loop_
  _atom_site_type_symbol
  _atom_site_label
  _atom_site_symmetry_multiplicity
  _atom_site_fract_x
  _atom_site_fract_y
  _atom_site_fract_z
  _atom_site_occupancy
  Au  Au1       1.0  0.50500  0.00966  0.00000  1.0000
  Au  Au2       1.0  0.50500  0.49500  0.00000  1.0000
  Au  Au3       1.0  0.99000  0.49500  0.00000  1.0000
  C   C1        1.0  0.34200  0.33300  0.21900  1.0000
  C   C2        1.0  0.99100  0.65800  0.21900  1.0000
  C   C3        1.0  0.66700  0.00914  0.21900  1.0000
  C   C4        1.0  0.34200  0.00914  0.78100  1.0000
  C   C5        1.0  0.66700  0.65800  0.78100  1.0000
  C   C6        1.0  0.99100  0.33300  0.78100  1.0000
  Co  Co1       1.0  0.00000  0.00000  0.50000  1.0000
  K   K1        1.0  0.33300  0.66700  0.50000  1.0000
  N   N1        1.0  0.76800  0.00458  0.34300  1.0000
  N   N2        1.0  0.23700  0.23200  0.34300  1.0000
  N   N3        1.0  0.99500  0.76300  0.34300  1.0000
  N   N4        1.0  0.76800  0.76300  0.65700  1.0000
  N   N5        1.0  0.99500  0.23200  0.65700  1.0000
  N   N6        1.0  0.23700  0.00458  0.65700  1.0000
