data_image0
_chemical_formula_structural       B6N12Pr6
_chemical_formula_sum              "B6 N12 Pr6"
_cell_length_a       7.40161
_cell_length_b       7.40161
_cell_length_c       7.40161
_cell_angle_alpha    110.776
_cell_angle_beta     110.776
_cell_angle_gamma    110.776

_space_group_name_H-M_alt    "P 1"
_space_group_IT_number       1

loop_
  _space_group_symop_operation_xyz
  'x, y, z'

loop_
  _atom_site_type_symbol
  _atom_site_label
  _atom_site_symmetry_multiplicity
  _atom_site_fract_x
  _atom_site_fract_y
  _atom_site_fract_z
  _atom_site_occupancy
  B   B1        1.0  0.87200  0.63400  0.75300  1.0000
  B   B2        1.0  0.75300  0.87200  0.63400  1.0000
  B   B3        1.0  0.63400  0.75300  0.87200  1.0000
  B   B4        1.0  0.13400  0.37200  0.25300  1.0000
  B   B5        1.0  0.37200  0.25300  0.13400  1.0000
  B   B6        1.0  0.25300  0.13400  0.37200  1.0000
  N   N1        1.0  0.75300  0.63100  0.87500  1.0000
  N   N2        1.0  0.87500  0.75300  0.63100  1.0000
  N   N3        1.0  0.63100  0.87500  0.75300  1.0000
  N   N4        1.0  0.13100  0.25300  0.37500  1.0000
  N   N5        1.0  0.25300  0.37500  0.13100  1.0000
  N   N6        1.0  0.37500  0.13100  0.25300  1.0000
  N   N7        1.0  0.75200  0.99300  0.51100  1.0000
  N   N8        1.0  0.51100  0.75200  0.99300  1.0000
  N   N9        1.0  0.99300  0.51100  0.75200  1.0000
  N   N10       1.0  0.49300  0.25200  0.01130  1.0000
  N   N11       1.0  0.25200  0.01130  0.49300  1.0000
  N   N12       1.0  0.01130  0.49300  0.25200  1.0000
  Pr  Pr1       1.0  0.70600  0.25200  0.79600  1.0000
  Pr  Pr2       1.0  0.79600  0.70600  0.25200  1.0000
  Pr  Pr3       1.0  0.25200  0.79600  0.70600  1.0000
  Pr  Pr4       1.0  0.75200  0.20600  0.29600  1.0000
  Pr  Pr5       1.0  0.20600  0.29600  0.75200  1.0000
  Pr  Pr6       1.0  0.29600  0.75200  0.20600  1.0000
