data_image0
_chemical_formula_structural       Au4Ce8P12
_chemical_formula_sum              "Au4 Ce8 P12"
_cell_length_a       7.83409
_cell_length_b       4.25345
_cell_length_c       16.4729
_cell_angle_alpha    90
_cell_angle_beta     90
_cell_angle_gamma    90

_space_group_name_H-M_alt    "P 1"
_space_group_IT_number       1

loop_
  _space_group_symop_operation_xyz
  'x, y, z'

loop_
  _atom_site_type_symbol
  _atom_site_label
  _atom_site_symmetry_multiplicity
  _atom_site_fract_x
  _atom_site_fract_y
  _atom_site_fract_z
  _atom_site_occupancy
  Au  Au1       1.0  0.50000  0.25000  0.14400  1.0000
  Au  Au2       1.0  0.00000  0.25000  0.35600  1.0000
  Au  Au3       1.0  0.00000  0.75000  0.64400  1.0000
  Au  Au4       1.0  0.50000  0.75000  0.85600  1.0000
  Ce  Ce1       1.0  0.26400  0.75000  0.02160  1.0000
  Ce  Ce2       1.0  0.90700  0.75000  0.20600  1.0000
  Ce  Ce3       1.0  0.40700  0.75000  0.29400  1.0000
  Ce  Ce4       1.0  0.76400  0.75000  0.47800  1.0000
  Ce  Ce5       1.0  0.23600  0.25000  0.52200  1.0000
  Ce  Ce6       1.0  0.59300  0.25000  0.70600  1.0000
  Ce  Ce7       1.0  0.09340  0.25000  0.79400  1.0000
  Ce  Ce8       1.0  0.73600  0.25000  0.97800  1.0000
  P   P1        1.0  0.61500  0.75000  0.09090  1.0000
  P   P2        1.0  0.03490  0.25000  0.09490  1.0000
  P   P3        1.0  0.20200  0.25000  0.20200  1.0000
  P   P4        1.0  0.70200  0.25000  0.29800  1.0000
  P   P5        1.0  0.53500  0.25000  0.40500  1.0000
  P   P6        1.0  0.11500  0.75000  0.40900  1.0000
  P   P7        1.0  0.88500  0.25000  0.59100  1.0000
  P   P8        1.0  0.46500  0.75000  0.59500  1.0000
  P   P9        1.0  0.29800  0.75000  0.70200  1.0000
  P   P10       1.0  0.79800  0.75000  0.79800  1.0000
  P   P11       1.0  0.96500  0.75000  0.90500  1.0000
  P   P12       1.0  0.38500  0.25000  0.90900  1.0000
