data_image0
_chemical_formula_structural       Cu4Hf4Na4Se12
_chemical_formula_sum              "Cu4 Hf4 Na4 Se12"
_cell_length_a       13.5739
_cell_length_b       3.83121
_cell_length_c       10.2747
_cell_angle_alpha    90
_cell_angle_beta     90
_cell_angle_gamma    90

_space_group_name_H-M_alt    "P 1"
_space_group_IT_number       1

loop_
  _space_group_symop_operation_xyz
  'x, y, z'

loop_
  _atom_site_type_symbol
  _atom_site_label
  _atom_site_symmetry_multiplicity
  _atom_site_fract_x
  _atom_site_fract_y
  _atom_site_fract_z
  _atom_site_occupancy
  Cu  Cu1       1.0  0.00860  0.75000  0.09150  1.0000
  Cu  Cu2       1.0  0.50900  0.75000  0.40900  1.0000
  Cu  Cu3       1.0  0.49100  0.25000  0.59100  1.0000
  Cu  Cu4       1.0  0.99100  0.25000  0.90900  1.0000
  Hf  Hf1       1.0  0.51100  0.25000  0.17800  1.0000
  Hf  Hf2       1.0  0.01120  0.25000  0.32200  1.0000
  Hf  Hf3       1.0  0.98900  0.75000  0.67800  1.0000
  Hf  Hf4       1.0  0.48900  0.75000  0.82200  1.0000
  Na  Na1       1.0  0.22900  0.25000  0.04110  1.0000
  Na  Na2       1.0  0.72900  0.25000  0.45900  1.0000
  Na  Na3       1.0  0.27100  0.75000  0.54100  1.0000
  Na  Na4       1.0  0.77100  0.75000  0.95900  1.0000
  Se  Se1       1.0  0.39800  0.75000  0.06450  1.0000
  Se  Se2       1.0  0.89400  0.25000  0.12100  1.0000
  Se  Se3       1.0  0.63900  0.75000  0.24600  1.0000
  Se  Se4       1.0  0.13900  0.75000  0.25400  1.0000
  Se  Se5       1.0  0.39400  0.25000  0.37900  1.0000
  Se  Se6       1.0  0.89800  0.75000  0.43600  1.0000
  Se  Se7       1.0  0.10200  0.25000  0.56400  1.0000
  Se  Se8       1.0  0.60600  0.75000  0.62100  1.0000
  Se  Se9       1.0  0.86100  0.25000  0.74600  1.0000
  Se  Se10      1.0  0.36100  0.25000  0.75400  1.0000
  Se  Se11      1.0  0.10600  0.75000  0.87900  1.0000
  Se  Se12      1.0  0.60200  0.25000  0.93600  1.0000
