data_image0
_chemical_formula_structural       Ba4Cu6Li2O12
_chemical_formula_sum              "Ba4 Cu6 Li2 O12"
_cell_length_a       7.02003
_cell_length_b       7.02003
_cell_length_c       8.15852
_cell_angle_alpha    106.699
_cell_angle_beta     106.699
_cell_angle_gamma    109.397

_space_group_name_H-M_alt    "P 1"
_space_group_IT_number       1

loop_
  _space_group_symop_operation_xyz
  'x, y, z'

loop_
  _atom_site_type_symbol
  _atom_site_label
  _atom_site_symmetry_multiplicity
  _atom_site_fract_x
  _atom_site_fract_y
  _atom_site_fract_z
  _atom_site_occupancy
  Ba  Ba1       1.0  0.77300  0.22700  0.00000  1.0000
  Ba  Ba2       1.0  0.22700  0.77300  0.00000  1.0000
  Ba  Ba3       1.0  0.75000  0.25000  0.50000  1.0000
  Ba  Ba4       1.0  0.25000  0.75000  0.50000  1.0000
  Cu  Cu1       1.0  0.31900  0.31900  0.00000  1.0000
  Cu  Cu2       1.0  0.68100  0.68100  0.00000  1.0000
  Cu  Cu3       1.0  0.31000  0.31000  0.30700  1.0000
  Cu  Cu4       1.0  0.99800  0.99800  0.30700  1.0000
  Cu  Cu5       1.0  0.00237  0.00237  0.69300  1.0000
  Cu  Cu6       1.0  0.69000  0.69000  0.69300  1.0000
  Li  Li1       1.0  0.66500  0.66500  0.32900  1.0000
  Li  Li2       1.0  0.33500  0.33500  0.67100  1.0000
  O   O1        1.0  0.51400  0.29100  0.19300  1.0000
  O   O2        1.0  0.29100  0.51400  0.19300  1.0000
  O   O3        1.0  0.90100  0.67900  0.19300  1.0000
  O   O4        1.0  0.67900  0.90100  0.19300  1.0000
  O   O5        1.0  0.31000  0.08430  0.39500  1.0000
  O   O6        1.0  0.08430  0.31000  0.39500  1.0000
  O   O7        1.0  0.91600  0.69000  0.60500  1.0000
  O   O8        1.0  0.69000  0.91600  0.60500  1.0000
  O   O9        1.0  0.32100  0.09860  0.80700  1.0000
  O   O10       1.0  0.09860  0.32100  0.80700  1.0000
  O   O11       1.0  0.70900  0.48600  0.80700  1.0000
  O   O12       1.0  0.48600  0.70900  0.80700  1.0000
