data_image0
_chemical_formula_structural       Fe2La8O2Se12
_chemical_formula_sum              "Fe2 La8 O2 Se12"
_cell_length_a       9.74628
_cell_length_b       9.79456
_cell_length_c       7.09585
_cell_angle_alpha    90
_cell_angle_beta     90
_cell_angle_gamma    119.837

_space_group_name_H-M_alt    "P 1"
_space_group_IT_number       1

loop_
  _space_group_symop_operation_xyz
  'x, y, z'

loop_
  _atom_site_type_symbol
  _atom_site_label
  _atom_site_symmetry_multiplicity
  _atom_site_fract_x
  _atom_site_fract_y
  _atom_site_fract_z
  _atom_site_occupancy
  Fe  Fe1       1.0  0.99800  0.99600  0.49700  1.0000
  Fe  Fe2       1.0  0.00191  0.00382  0.99700  1.0000
  La  La1       1.0  0.80000  0.59900  0.15900  1.0000
  La  La2       1.0  0.39800  0.19900  0.16100  1.0000
  La  La3       1.0  0.80200  0.19900  0.16100  1.0000
  La  La4       1.0  0.33300  0.66600  0.20800  1.0000
  La  La5       1.0  0.20000  0.40100  0.65900  1.0000
  La  La6       1.0  0.19800  0.80100  0.66100  1.0000
  La  La7       1.0  0.60200  0.80100  0.66100  1.0000
  La  La8       1.0  0.66700  0.33400  0.70800  1.0000
  O   O1        1.0  0.66600  0.33300  0.04360  1.0000
  O   O2        1.0  0.33400  0.66700  0.54400  1.0000
  Se  Se1       1.0  0.12300  0.87600  0.26200  1.0000
  Se  Se2       1.0  0.75300  0.87600  0.26200  1.0000
  Se  Se3       1.0  0.12500  0.25000  0.26400  1.0000
  Se  Se4       1.0  0.52900  0.47000  0.44600  1.0000
  Se  Se5       1.0  0.94100  0.47000  0.44600  1.0000
  Se  Se6       1.0  0.53000  0.05970  0.44700  1.0000
  Se  Se7       1.0  0.24700  0.12400  0.76200  1.0000
  Se  Se8       1.0  0.87700  0.12400  0.76200  1.0000
  Se  Se9       1.0  0.87500  0.75000  0.76400  1.0000
  Se  Se10      1.0  0.05910  0.53000  0.94600  1.0000
  Se  Se11      1.0  0.47100  0.53000  0.94600  1.0000
  Se  Se12      1.0  0.47000  0.94000  0.94700  1.0000
