data_image0
_chemical_formula_structural       Cl12Hg6S4Zr2
_chemical_formula_sum              "Cl12 Hg6 S4 Zr2"
_cell_length_a       13.1695
_cell_length_b       7.4721
_cell_length_c       6.66353
_cell_angle_alpha    90
_cell_angle_beta     91.5417
_cell_angle_gamma    90

_space_group_name_H-M_alt    "P 1"
_space_group_IT_number       1

loop_
  _space_group_symop_operation_xyz
  'x, y, z'

loop_
  _atom_site_type_symbol
  _atom_site_label
  _atom_site_symmetry_multiplicity
  _atom_site_fract_x
  _atom_site_fract_y
  _atom_site_fract_z
  _atom_site_occupancy
  Cl  Cl1       1.0  0.94000  0.85300  0.18100  1.0000
  Cl  Cl2       1.0  0.44000  0.64700  0.18100  1.0000
  Cl  Cl3       1.0  0.66900  0.45000  0.35200  1.0000
  Cl  Cl4       1.0  0.16900  0.05030  0.35200  1.0000
  Cl  Cl5       1.0  0.93600  0.29100  0.36600  1.0000
  Cl  Cl6       1.0  0.43600  0.20900  0.36600  1.0000
  Cl  Cl7       1.0  0.56400  0.79100  0.63400  1.0000
  Cl  Cl8       1.0  0.06440  0.70900  0.63400  1.0000
  Cl  Cl9       1.0  0.83100  0.95000  0.64800  1.0000
  Cl  Cl10      1.0  0.33100  0.55000  0.64800  1.0000
  Cl  Cl11      1.0  0.56000  0.35300  0.81900  1.0000
  Cl  Cl12      1.0  0.05970  0.14700  0.81900  1.0000
  Hg  Hg1       1.0  0.50000  0.00000  0.00000  1.0000
  Hg  Hg2       1.0  0.00000  0.50000  0.00000  1.0000
  Hg  Hg3       1.0  0.26000  0.29600  0.00831  1.0000
  Hg  Hg4       1.0  0.76000  0.20400  0.00831  1.0000
  Hg  Hg5       1.0  0.24000  0.79600  0.99200  1.0000
  Hg  Hg6       1.0  0.74000  0.70400  0.99200  1.0000
  S   S1        1.0  0.16800  0.54000  0.16000  1.0000
  S   S2        1.0  0.66800  0.96000  0.16000  1.0000
  S   S3        1.0  0.33200  0.03970  0.84000  1.0000
  S   S4        1.0  0.83200  0.46000  0.84000  1.0000
  Zr  Zr1       1.0  0.00000  0.00000  0.50000  1.0000
  Zr  Zr2       1.0  0.50000  0.50000  0.50000  1.0000
