data_image0
_chemical_formula_structural       Er8Pd8Si8
_chemical_formula_sum              "Er8 Pd8 Si8"
_cell_length_a       4.30311
_cell_length_b       13.7971
_cell_length_c       7.42615
_cell_angle_alpha    90
_cell_angle_beta     90
_cell_angle_gamma    90

_space_group_name_H-M_alt    "P 1"
_space_group_IT_number       1

loop_
  _space_group_symop_operation_xyz
  'x, y, z'

loop_
  _atom_site_type_symbol
  _atom_site_label
  _atom_site_symmetry_multiplicity
  _atom_site_fract_x
  _atom_site_fract_y
  _atom_site_fract_z
  _atom_site_occupancy
  Er  Er1       1.0  0.75000  0.50100  0.20900  1.0000
  Er  Er2       1.0  0.75000  0.99900  0.20900  1.0000
  Er  Er3       1.0  0.75000  0.25000  0.29200  1.0000
  Er  Er4       1.0  0.75000  0.75000  0.30000  1.0000
  Er  Er5       1.0  0.25000  0.25000  0.70000  1.0000
  Er  Er6       1.0  0.25000  0.75000  0.70800  1.0000
  Er  Er7       1.0  0.25000  0.00130  0.79100  1.0000
  Er  Er8       1.0  0.25000  0.49900  0.79100  1.0000
  Pd  Pd1       1.0  0.25000  0.14200  0.07660  1.0000
  Pd  Pd2       1.0  0.25000  0.35800  0.07660  1.0000
  Pd  Pd3       1.0  0.25000  0.59400  0.41800  1.0000
  Pd  Pd4       1.0  0.25000  0.90600  0.41800  1.0000
  Pd  Pd5       1.0  0.75000  0.09390  0.58200  1.0000
  Pd  Pd6       1.0  0.75000  0.40600  0.58200  1.0000
  Pd  Pd7       1.0  0.75000  0.64200  0.92300  1.0000
  Pd  Pd8       1.0  0.75000  0.85800  0.92300  1.0000
  Si  Si1       1.0  0.25000  0.65700  0.09170  1.0000
  Si  Si2       1.0  0.25000  0.84300  0.09170  1.0000
  Si  Si3       1.0  0.25000  0.10500  0.40800  1.0000
  Si  Si4       1.0  0.25000  0.39500  0.40800  1.0000
  Si  Si5       1.0  0.75000  0.60500  0.59200  1.0000
  Si  Si6       1.0  0.75000  0.89500  0.59200  1.0000
  Si  Si7       1.0  0.75000  0.15700  0.90800  1.0000
  Si  Si8       1.0  0.75000  0.34300  0.90800  1.0000
