data_image0
_chemical_formula_structural       Br12Gd8N4
_chemical_formula_sum              "Br12 Gd8 N4"
_cell_length_a       8.42498
_cell_length_b       8.36338
_cell_length_c       10.4416
_cell_angle_alpha    106.003
_cell_angle_beta     105.22
_cell_angle_gamma    99.3942

_space_group_name_H-M_alt    "P 1"
_space_group_IT_number       1

loop_
  _space_group_symop_operation_xyz
  'x, y, z'

loop_
  _atom_site_type_symbol
  _atom_site_label
  _atom_site_symmetry_multiplicity
  _atom_site_fract_x
  _atom_site_fract_y
  _atom_site_fract_z
  _atom_site_occupancy
  Br  Br1       1.0  0.28500  0.68500  0.09080  1.0000
  Br  Br2       1.0  0.73700  0.76800  0.13100  1.0000
  Br  Br3       1.0  0.53500  0.14200  0.16900  1.0000
  Br  Br4       1.0  0.04910  0.43100  0.25100  1.0000
  Br  Br5       1.0  0.58400  0.57600  0.37500  1.0000
  Br  Br6       1.0  0.91300  0.16900  0.45500  1.0000
  Br  Br7       1.0  0.08740  0.83100  0.54500  1.0000
  Br  Br8       1.0  0.41600  0.42400  0.62500  1.0000
  Br  Br9       1.0  0.95100  0.56900  0.74900  1.0000
  Br  Br10      1.0  0.46500  0.85800  0.83100  1.0000
  Br  Br11      1.0  0.26300  0.23200  0.86900  1.0000
  Br  Br12      1.0  0.71500  0.31500  0.90900  1.0000
  Gd  Gd1       1.0  0.84900  0.07580  0.05940  1.0000
  Gd  Gd2       1.0  0.10600  0.83300  0.26500  1.0000
  Gd  Gd3       1.0  0.31000  0.23900  0.31800  1.0000
  Gd  Gd4       1.0  0.57900  0.92400  0.36500  1.0000
  Gd  Gd5       1.0  0.42100  0.07620  0.63500  1.0000
  Gd  Gd6       1.0  0.69000  0.76100  0.68200  1.0000
  Gd  Gd7       1.0  0.89400  0.16700  0.73500  1.0000
  Gd  Gd8       1.0  0.15100  0.92400  0.94100  1.0000
  N   N1        1.0  0.10000  0.02480  0.14600  1.0000
  N   N2        1.0  0.35300  0.02280  0.40200  1.0000
  N   N3        1.0  0.64700  0.97700  0.59800  1.0000
  N   N4        1.0  0.90000  0.97500  0.85400  1.0000
