data_image0
_chemical_formula_structural       B8O14Zn2
_chemical_formula_sum              "B8 O14 Zn2"
_cell_length_a       5.16571
_cell_length_b       6.30216
_cell_length_c       6.30216
_cell_angle_alpha    61.8359
_cell_angle_beta     90
_cell_angle_gamma    90

_space_group_name_H-M_alt    "P 1"
_space_group_IT_number       1

loop_
  _space_group_symop_operation_xyz
  'x, y, z'

loop_
  _atom_site_type_symbol
  _atom_site_label
  _atom_site_symmetry_multiplicity
  _atom_site_fract_x
  _atom_site_fract_y
  _atom_site_fract_z
  _atom_site_occupancy
  B   B1        1.0  0.25000  0.69100  0.07430  1.0000
  B   B2        1.0  0.00000  0.29700  0.29700  1.0000
  B   B3        1.0  0.50000  0.29700  0.29700  1.0000
  B   B4        1.0  0.25000  0.92600  0.30900  1.0000
  B   B5        1.0  0.75000  0.07430  0.69100  1.0000
  B   B6        1.0  0.00000  0.70300  0.70300  1.0000
  B   B7        1.0  0.50000  0.70300  0.70300  1.0000
  B   B8        1.0  0.75000  0.30900  0.92600  1.0000
  O   O1        1.0  0.25000  0.92200  0.07780  1.0000
  O   O2        1.0  0.02190  0.55500  0.18900  1.0000
  O   O3        1.0  0.47800  0.55500  0.18900  1.0000
  O   O4        1.0  0.75000  0.24300  0.19700  1.0000
  O   O5        1.0  0.25000  0.19700  0.24300  1.0000
  O   O6        1.0  0.02190  0.81100  0.44500  1.0000
  O   O7        1.0  0.47800  0.81100  0.44500  1.0000
  O   O8        1.0  0.52200  0.18900  0.55500  1.0000
  O   O9        1.0  0.97800  0.18900  0.55500  1.0000
  O   O10       1.0  0.75000  0.80300  0.75700  1.0000
  O   O11       1.0  0.25000  0.75700  0.80300  1.0000
  O   O12       1.0  0.52200  0.44500  0.81100  1.0000
  O   O13       1.0  0.97800  0.44500  0.81100  1.0000
  O   O14       1.0  0.75000  0.07780  0.92200  1.0000
  Zn  Zn1       1.0  0.75000  0.76600  0.23400  1.0000
  Zn  Zn2       1.0  0.25000  0.23400  0.76600  1.0000
