data_image0
_chemical_formula_structural       B8Ca2O14
_chemical_formula_sum              "B8 Ca2 O14"
_cell_length_a       10.5424
_cell_length_b       4.35016
_cell_length_c       4.18127
_cell_angle_alpha    90
_cell_angle_beta     90
_cell_angle_gamma    90

_space_group_name_H-M_alt    "P 1"
_space_group_IT_number       1

loop_
  _space_group_symop_operation_xyz
  'x, y, z'

loop_
  _atom_site_type_symbol
  _atom_site_label
  _atom_site_symmetry_multiplicity
  _atom_site_fract_x
  _atom_site_fract_y
  _atom_site_fract_z
  _atom_site_occupancy
  B   B1        1.0  0.25100  0.82100  0.38700  1.0000
  B   B2        1.0  0.74900  0.82100  0.38700  1.0000
  B   B3        1.0  0.12000  0.32700  0.40800  1.0000
  B   B4        1.0  0.88000  0.32700  0.40800  1.0000
  B   B5        1.0  0.24900  0.17900  0.88700  1.0000
  B   B6        1.0  0.75100  0.17900  0.88700  1.0000
  B   B7        1.0  0.38000  0.67300  0.90800  1.0000
  B   B8        1.0  0.62000  0.67300  0.90800  1.0000
  Ca  Ca1       1.0  0.50000  0.19900  0.39700  1.0000
  Ca  Ca2       1.0  0.00000  0.80100  0.89700  1.0000
  O   O1        1.0  0.22700  0.14000  0.24700  1.0000
  O   O2        1.0  0.77300  0.14000  0.24700  1.0000
  O   O3        1.0  0.36700  0.72000  0.25200  1.0000
  O   O4        1.0  0.63300  0.72000  0.25200  1.0000
  O   O5        1.0  0.00000  0.21200  0.29700  1.0000
  O   O6        1.0  0.13600  0.64900  0.33000  1.0000
  O   O7        1.0  0.86400  0.64900  0.33000  1.0000
  O   O8        1.0  0.27300  0.86000  0.74700  1.0000
  O   O9        1.0  0.72700  0.86000  0.74700  1.0000
  O   O10       1.0  0.13300  0.28000  0.75100  1.0000
  O   O11       1.0  0.86700  0.28000  0.75100  1.0000
  O   O12       1.0  0.50000  0.78800  0.79700  1.0000
  O   O13       1.0  0.36400  0.35100  0.83000  1.0000
  O   O14       1.0  0.63600  0.35100  0.83000  1.0000
