data_image0
_chemical_formula_structural       P10Yb2
_chemical_formula_sum              "P10 Yb2"
_cell_length_a       4.66837
_cell_length_b       9.65889
_cell_length_c       5.47052
_cell_angle_alpha    90
_cell_angle_beta     105.69
_cell_angle_gamma    90

_space_group_name_H-M_alt    "P 1"
_space_group_IT_number       1

loop_
  _space_group_symop_operation_xyz
  'x, y, z'

loop_
  _atom_site_type_symbol
  _atom_site_label
  _atom_site_symmetry_multiplicity
  _atom_site_fract_x
  _atom_site_fract_y
  _atom_site_fract_z
  _atom_site_occupancy
  P   P1        1.0  0.37000  0.59200  0.02520  1.0000
  P   P2        1.0  0.37000  0.90800  0.02520  1.0000
  P   P3        1.0  0.72600  0.75000  0.07560  1.0000
  P   P4        1.0  0.30700  0.56000  0.40900  1.0000
  P   P5        1.0  0.30700  0.94000  0.40900  1.0000
  P   P6        1.0  0.69300  0.06040  0.59100  1.0000
  P   P7        1.0  0.69300  0.44000  0.59100  1.0000
  P   P8        1.0  0.27400  0.25000  0.92400  1.0000
  P   P9        1.0  0.63000  0.09230  0.97500  1.0000
  P   P10       1.0  0.63000  0.40800  0.97500  1.0000
  Yb  Yb1       1.0  0.07190  0.25000  0.38000  1.0000
  Yb  Yb2       1.0  0.92800  0.75000  0.62000  1.0000
