data_image0
_chemical_formula_structural       Pd8Pr8Si8
_chemical_formula_sum              "Pd8 Pr8 Si8"
_cell_length_a       10.8852
_cell_length_b       5.87492
_cell_length_c       7.90152
_cell_angle_alpha    90
_cell_angle_beta     91.8176
_cell_angle_gamma    90

_space_group_name_H-M_alt    "P 1"
_space_group_IT_number       1

loop_
  _space_group_symop_operation_xyz
  'x, y, z'

loop_
  _atom_site_type_symbol
  _atom_site_label
  _atom_site_symmetry_multiplicity
  _atom_site_fract_x
  _atom_site_fract_y
  _atom_site_fract_z
  _atom_site_occupancy
  Pd  Pd1       1.0  0.05200  0.09880  0.16400  1.0000
  Pd  Pd2       1.0  0.66800  0.10800  0.17800  1.0000
  Pd  Pd3       1.0  0.33200  0.60800  0.32200  1.0000
  Pd  Pd4       1.0  0.94800  0.59900  0.33600  1.0000
  Pd  Pd5       1.0  0.05200  0.40100  0.66400  1.0000
  Pd  Pd6       1.0  0.66800  0.39200  0.67800  1.0000
  Pd  Pd7       1.0  0.33200  0.89200  0.82200  1.0000
  Pd  Pd8       1.0  0.94800  0.90100  0.83600  1.0000
  Pr  Pr1       1.0  0.14300  0.63400  0.03430  1.0000
  Pr  Pr2       1.0  0.37000  0.13200  0.17400  1.0000
  Pr  Pr3       1.0  0.63000  0.63200  0.32600  1.0000
  Pr  Pr4       1.0  0.85700  0.13400  0.46600  1.0000
  Pr  Pr5       1.0  0.14300  0.86600  0.53400  1.0000
  Pr  Pr6       1.0  0.37000  0.36800  0.67400  1.0000
  Pr  Pr7       1.0  0.63000  0.86800  0.82600  1.0000
  Pr  Pr8       1.0  0.85700  0.36600  0.96600  1.0000
  Si  Si1       1.0  0.42300  0.63300  0.03520  1.0000
  Si  Si2       1.0  0.85600  0.85700  0.12400  1.0000
  Si  Si3       1.0  0.14400  0.35700  0.37600  1.0000
  Si  Si4       1.0  0.57700  0.13300  0.46500  1.0000
  Si  Si5       1.0  0.42300  0.86700  0.53500  1.0000
  Si  Si6       1.0  0.85600  0.64300  0.62400  1.0000
  Si  Si7       1.0  0.14400  0.14300  0.87600  1.0000
  Si  Si8       1.0  0.57700  0.36700  0.96500  1.0000
