data_image0
_chemical_formula_structural       Ba4O16Se4
_chemical_formula_sum              "Ba4 O16 Se4"
_cell_length_a       9.02215
_cell_length_b       5.63665
_cell_length_c       7.33435
_cell_angle_alpha    90
_cell_angle_beta     90
_cell_angle_gamma    90

_space_group_name_H-M_alt    "P 1"
_space_group_IT_number       1

loop_
  _space_group_symop_operation_xyz
  'x, y, z'

loop_
  _atom_site_type_symbol
  _atom_site_label
  _atom_site_symmetry_multiplicity
  _atom_site_fract_x
  _atom_site_fract_y
  _atom_site_fract_z
  _atom_site_occupancy
  Ba  Ba1       1.0  0.18100  0.25000  0.15800  1.0000
  Ba  Ba2       1.0  0.68100  0.25000  0.34200  1.0000
  Ba  Ba3       1.0  0.31900  0.75000  0.65800  1.0000
  Ba  Ba4       1.0  0.81900  0.75000  0.84200  1.0000
  O   O1        1.0  0.29800  0.75000  0.03540  1.0000
  O   O2        1.0  0.60400  0.75000  0.09180  1.0000
  O   O3        1.0  0.91900  0.51000  0.18100  1.0000
  O   O4        1.0  0.91900  0.99000  0.18100  1.0000
  O   O5        1.0  0.41900  0.51000  0.31900  1.0000
  O   O6        1.0  0.41900  0.99000  0.31900  1.0000
  O   O7        1.0  0.10400  0.75000  0.40800  1.0000
  O   O8        1.0  0.79800  0.75000  0.46500  1.0000
  O   O9        1.0  0.20200  0.25000  0.53500  1.0000
  O   O10       1.0  0.89600  0.25000  0.59200  1.0000
  O   O11       1.0  0.58100  0.01040  0.68100  1.0000
  O   O12       1.0  0.58100  0.49000  0.68100  1.0000
  O   O13       1.0  0.08080  0.01040  0.81900  1.0000
  O   O14       1.0  0.08080  0.49000  0.81900  1.0000
  O   O15       1.0  0.39600  0.25000  0.90800  1.0000
  O   O16       1.0  0.70200  0.25000  0.96500  1.0000
  Se  Se1       1.0  0.43700  0.75000  0.18500  1.0000
  Se  Se2       1.0  0.93700  0.75000  0.31500  1.0000
  Se  Se3       1.0  0.06340  0.25000  0.68500  1.0000
  Se  Se4       1.0  0.56300  0.25000  0.81500  1.0000
