data_image0
_chemical_formula_structural       C4Cl16N2Nb2
_chemical_formula_sum              "C4 Cl16 N2 Nb2"
_cell_length_a       6.19898
_cell_length_b       6.19898
_cell_length_c       16.8074
_cell_angle_alpha    90
_cell_angle_beta     90
_cell_angle_gamma    97.7459

_space_group_name_H-M_alt    "P 1"
_space_group_IT_number       1

loop_
  _space_group_symop_operation_xyz
  'x, y, z'

loop_
  _atom_site_type_symbol
  _atom_site_label
  _atom_site_symmetry_multiplicity
  _atom_site_fract_x
  _atom_site_fract_y
  _atom_site_fract_z
  _atom_site_occupancy
  C   C1        1.0  0.93300  0.06670  0.14500  1.0000
  C   C2        1.0  0.84500  0.15500  0.21700  1.0000
  C   C3        1.0  0.06670  0.93300  0.64500  1.0000
  C   C4        1.0  0.15500  0.84500  0.71700  1.0000
  Cl  Cl1       1.0  0.06810  0.29000  0.08980  1.0000
  Cl  Cl2       1.0  0.71000  0.93200  0.08980  1.0000
  Cl  Cl3       1.0  0.11600  0.88400  0.17300  1.0000
  Cl  Cl4       1.0  0.44400  0.55600  0.26100  1.0000
  Cl  Cl5       1.0  0.33200  0.09750  0.36100  1.0000
  Cl  Cl6       1.0  0.90200  0.66800  0.36100  1.0000
  Cl  Cl7       1.0  0.79600  0.20400  0.45800  1.0000
  Cl  Cl8       1.0  0.42200  0.57800  0.47000  1.0000
  Cl  Cl9       1.0  0.29000  0.06810  0.59000  1.0000
  Cl  Cl10      1.0  0.93200  0.71000  0.59000  1.0000
  Cl  Cl11      1.0  0.88400  0.11600  0.67300  1.0000
  Cl  Cl12      1.0  0.55600  0.44400  0.76100  1.0000
  Cl  Cl13      1.0  0.09750  0.33200  0.86100  1.0000
  Cl  Cl14      1.0  0.66800  0.90200  0.86100  1.0000
  Cl  Cl15      1.0  0.20400  0.79600  0.95800  1.0000
  Cl  Cl16      1.0  0.57800  0.42200  0.97000  1.0000
  N   N1        1.0  0.77000  0.23000  0.27200  1.0000
  N   N2        1.0  0.23000  0.77000  0.77200  1.0000
  Nb  Nb1       1.0  0.59500  0.40500  0.37400  1.0000
  Nb  Nb2       1.0  0.40500  0.59500  0.87400  1.0000
