data_image0
_chemical_formula_structural       Al3Co3Th3
_chemical_formula_sum              "Al3 Co3 Th3"
_cell_length_a       8.45911
_cell_length_b       8.45911
_cell_length_c       3.30916
_cell_angle_alpha    90
_cell_angle_beta     90
_cell_angle_gamma    120.1

_space_group_name_H-M_alt    "P 1"
_space_group_IT_number       1

loop_
  _space_group_symop_operation_xyz
  'x, y, z'

loop_
  _atom_site_type_symbol
  _atom_site_label
  _atom_site_symmetry_multiplicity
  _atom_site_fract_x
  _atom_site_fract_y
  _atom_site_fract_z
  _atom_site_occupancy
  Al  Al1       1.0  0.00000  0.29800  0.00000  1.0000
  Al  Al2       1.0  0.70200  0.70200  0.00000  1.0000
  Al  Al3       1.0  0.29800  0.00000  0.00000  1.0000
  Co  Co1       1.0  0.50400  0.00015  0.50000  1.0000
  Co  Co2       1.0  0.49600  0.49600  0.50000  1.0000
  Co  Co3       1.0  0.00015  0.50400  0.50000  1.0000
  Th  Th1       1.0  0.66700  0.33400  0.00000  1.0000
  Th  Th2       1.0  0.33400  0.66700  0.00000  1.0000
  Th  Th3       1.0  0.00017  0.00017  0.50000  1.0000
