data_image0
_chemical_formula_structural       F18Sb2Xe4
_chemical_formula_sum              "F18 Sb2 Xe4"
_cell_length_a       7.6714
_cell_length_b       7.77889
_cell_length_c       8.07524
_cell_angle_alpha    98.7369
_cell_angle_beta     118.359
_cell_angle_gamma    60.4561

_space_group_name_H-M_alt    "P 1"
_space_group_IT_number       1

loop_
  _space_group_symop_operation_xyz
  'x, y, z'

loop_
  _atom_site_type_symbol
  _atom_site_label
  _atom_site_symmetry_multiplicity
  _atom_site_fract_x
  _atom_site_fract_y
  _atom_site_fract_z
  _atom_site_occupancy
  F   F1        1.0  0.30600  0.62200  0.05330  1.0000
  F   F2        1.0  0.92800  0.88700  0.05880  1.0000
  F   F3        1.0  0.53000  0.88900  0.08750  1.0000
  F   F4        1.0  0.20900  0.28500  0.09750  1.0000
  F   F5        1.0  0.59800  0.24400  0.22100  1.0000
  F   F6        1.0  0.74400  0.49200  0.25300  1.0000
  F   F7        1.0  0.29300  0.52100  0.35600  1.0000
  F   F8        1.0  0.47700  0.75300  0.39700  1.0000
  F   F9        1.0  0.09290  0.05490  0.44300  1.0000
  F   F10       1.0  0.62500  0.12200  0.55300  1.0000
  F   F11       1.0  0.74400  0.38700  0.55900  1.0000
  F   F12       1.0  0.16900  0.38900  0.58800  1.0000
  F   F13       1.0  0.10400  0.78500  0.59700  1.0000
  F   F14       1.0  0.88000  0.74400  0.72100  1.0000
  F   F15       1.0  0.51700  0.99200  0.75300  1.0000
  F   F16       1.0  0.04190  0.02140  0.85600  1.0000
  F   F17       1.0  0.66700  0.25300  0.89700  1.0000
  F   F18       1.0  0.79500  0.55500  0.94300  1.0000
  Sb  Sb1       1.0  0.52200  0.50100  0.30500  1.0000
  Sb  Sb2       1.0  0.78300  0.00076  0.80500  1.0000
  Xe  Xe1       1.0  0.14700  0.15600  0.26700  1.0000
  Xe  Xe2       1.0  0.82300  0.81900  0.32500  1.0000
  Xe  Xe3       1.0  0.46500  0.65600  0.76700  1.0000
  Xe  Xe4       1.0  0.18300  0.31900  0.82500  1.0000
