data_image0
_chemical_formula_structural       Cu4Rb4Se16
_chemical_formula_sum              "Cu4 Rb4 Se16"
_cell_length_a       5.56082
_cell_length_b       8.94203
_cell_length_c       13.5763
_cell_angle_alpha    90
_cell_angle_beta     90
_cell_angle_gamma    90

_space_group_name_H-M_alt    "P 1"
_space_group_IT_number       1

loop_
  _space_group_symop_operation_xyz
  'x, y, z'

loop_
  _atom_site_type_symbol
  _atom_site_label
  _atom_site_symmetry_multiplicity
  _atom_site_fract_x
  _atom_site_fract_y
  _atom_site_fract_z
  _atom_site_occupancy
  Cu  Cu1       1.0  0.53000  0.13800  0.06670  1.0000
  Cu  Cu2       1.0  0.47000  0.63800  0.43300  1.0000
  Cu  Cu3       1.0  0.97000  0.86200  0.56700  1.0000
  Cu  Cu4       1.0  0.03050  0.36200  0.93300  1.0000
  Rb  Rb1       1.0  0.32100  0.55900  0.16300  1.0000
  Rb  Rb2       1.0  0.67900  0.05880  0.33700  1.0000
  Rb  Rb3       1.0  0.17900  0.44100  0.66300  1.0000
  Rb  Rb4       1.0  0.82100  0.94100  0.83700  1.0000
  Se  Se1       1.0  0.08560  0.91600  0.07020  1.0000
  Se  Se2       1.0  0.86000  0.30800  0.09630  1.0000
  Se  Se3       1.0  0.66300  0.88300  0.10100  1.0000
  Se  Se4       1.0  0.15700  0.14100  0.16800  1.0000
  Se  Se5       1.0  0.84300  0.64100  0.33200  1.0000
  Se  Se6       1.0  0.33700  0.38300  0.39900  1.0000
  Se  Se7       1.0  0.14000  0.80800  0.40400  1.0000
  Se  Se8       1.0  0.91400  0.41600  0.43000  1.0000
  Se  Se9       1.0  0.41400  0.08350  0.57000  1.0000
  Se  Se10      1.0  0.64000  0.69200  0.59600  1.0000
  Se  Se11      1.0  0.83700  0.11700  0.60100  1.0000
  Se  Se12      1.0  0.34300  0.85900  0.66800  1.0000
  Se  Se13      1.0  0.65700  0.35900  0.83200  1.0000
  Se  Se14      1.0  0.16300  0.61700  0.89900  1.0000
  Se  Se15      1.0  0.36000  0.19200  0.90400  1.0000
  Se  Se16      1.0  0.58600  0.58400  0.93000  1.0000
