data_image0
_chemical_formula_structural       Cl16Na4Sc4
_chemical_formula_sum              "Cl16 Na4 Sc4"
_cell_length_a       6.20317
_cell_length_b       15.5821
_cell_length_c       6.37796
_cell_angle_alpha    90
_cell_angle_beta     90
_cell_angle_gamma    90

_space_group_name_H-M_alt    "P 1"
_space_group_IT_number       1

loop_
  _space_group_symop_operation_xyz
  'x, y, z'

loop_
  _atom_site_type_symbol
  _atom_site_label
  _atom_site_symmetry_multiplicity
  _atom_site_fract_x
  _atom_site_fract_y
  _atom_site_fract_z
  _atom_site_occupancy
  Cl  Cl1       1.0  0.22600  0.04930  0.07370  1.0000
  Cl  Cl2       1.0  0.27400  0.54900  0.07370  1.0000
  Cl  Cl3       1.0  0.26500  0.32200  0.10400  1.0000
  Cl  Cl4       1.0  0.23500  0.82200  0.10400  1.0000
  Cl  Cl5       1.0  0.73500  0.32200  0.39600  1.0000
  Cl  Cl6       1.0  0.76500  0.82200  0.39600  1.0000
  Cl  Cl7       1.0  0.77400  0.04930  0.42600  1.0000
  Cl  Cl8       1.0  0.72600  0.54900  0.42600  1.0000
  Cl  Cl9       1.0  0.27400  0.45100  0.57400  1.0000
  Cl  Cl10      1.0  0.22600  0.95100  0.57400  1.0000
  Cl  Cl11      1.0  0.23500  0.17800  0.60400  1.0000
  Cl  Cl12      1.0  0.26500  0.67800  0.60400  1.0000
  Cl  Cl13      1.0  0.76500  0.17800  0.89600  1.0000
  Cl  Cl14      1.0  0.73500  0.67800  0.89600  1.0000
  Cl  Cl15      1.0  0.72600  0.45100  0.92600  1.0000
  Cl  Cl16      1.0  0.77400  0.95100  0.92600  1.0000
  Na  Na1       1.0  0.50000  0.18000  0.25000  1.0000
  Na  Na2       1.0  0.00000  0.68000  0.25000  1.0000
  Na  Na3       1.0  0.00000  0.32000  0.75000  1.0000
  Na  Na4       1.0  0.50000  0.82000  0.75000  1.0000
  Sc  Sc1       1.0  0.50000  0.43000  0.25000  1.0000
  Sc  Sc2       1.0  0.00000  0.93000  0.25000  1.0000
  Sc  Sc3       1.0  0.00000  0.07040  0.75000  1.0000
  Sc  Sc4       1.0  0.50000  0.57000  0.75000  1.0000
