data_image0
_chemical_formula_structural       Au2K2O16S4
_chemical_formula_sum              "Au2 K2 O16 S4"
_cell_length_a       6.55011
_cell_length_b       6.55011
_cell_length_c       9.04224
_cell_angle_alpha    107.761
_cell_angle_beta     96.7616
_cell_angle_gamma    114.605

_space_group_name_H-M_alt    "P 1"
_space_group_IT_number       1

loop_
  _space_group_symop_operation_xyz
  'x, y, z'

loop_
  _atom_site_type_symbol
  _atom_site_label
  _atom_site_symmetry_multiplicity
  _atom_site_fract_x
  _atom_site_fract_y
  _atom_site_fract_z
  _atom_site_occupancy
  Au  Au1       1.0  0.50000  0.50000  0.00000  1.0000
  Au  Au2       1.0  0.50000  1.00000  0.50000  1.0000
  K   K1        1.0  0.02930  0.27900  0.25000  1.0000
  K   K2        1.0  0.97100  0.72100  0.75000  1.0000
  O   O1        1.0  0.74800  0.39000  0.00053  1.0000
  O   O2        1.0  0.13900  0.91900  0.08200  1.0000
  O   O3        1.0  0.55500  0.03220  0.17900  1.0000
  O   O4        1.0  0.49600  0.48200  0.22000  1.0000
  O   O5        1.0  0.26200  0.77700  0.28000  1.0000
  O   O6        1.0  0.85300  0.87600  0.32100  1.0000
  O   O7        1.0  0.83700  0.55700  0.41800  1.0000
  O   O8        1.0  0.38900  0.24800  0.49900  1.0000
  O   O9        1.0  0.61100  0.75200  0.50100  1.0000
  O   O10       1.0  0.16300  0.44300  0.58200  1.0000
  O   O11       1.0  0.14700  0.12400  0.67900  1.0000
  O   O12       1.0  0.73800  0.22300  0.72000  1.0000
  O   O13       1.0  0.50400  0.51800  0.78000  1.0000
  O   O14       1.0  0.44500  0.96800  0.82100  1.0000
  O   O15       1.0  0.86100  0.08130  0.91800  1.0000
  O   O16       1.0  0.25200  0.61000  0.99900  1.0000
  S   S1        1.0  0.31200  0.85500  0.13600  1.0000
  S   S2        1.0  0.71900  0.67600  0.36400  1.0000
  S   S3        1.0  0.28100  0.32400  0.63600  1.0000
  S   S4        1.0  0.68800  0.14500  0.86400  1.0000
