data_image0
_chemical_formula_structural       B2O14P2Zn6
_chemical_formula_sum              "B2 O14 P2 Zn6"
_cell_length_a       4.88665
_cell_length_b       7.99821
_cell_length_c       7.99821
_cell_angle_alpha    105.143
_cell_angle_beta     107.611
_cell_angle_gamma    107.611

_space_group_name_H-M_alt    "P 1"
_space_group_IT_number       1

loop_
  _space_group_symop_operation_xyz
  'x, y, z'

loop_
  _atom_site_type_symbol
  _atom_site_label
  _atom_site_symmetry_multiplicity
  _atom_site_fract_x
  _atom_site_fract_y
  _atom_site_fract_z
  _atom_site_occupancy
  B   B1        1.0  0.09940  0.94500  0.51500  1.0000
  B   B2        1.0  0.09940  0.51500  0.94500  1.0000
  O   O1        1.0  0.22900  0.02200  0.02200  1.0000
  O   O2        1.0  0.76200  0.89100  0.09110  1.0000
  O   O3        1.0  0.15100  0.66100  0.10400  1.0000
  O   O4        1.0  0.74200  0.40000  0.19800  1.0000
  O   O5        1.0  0.79700  0.80800  0.39600  1.0000
  O   O6        1.0  0.74200  0.19800  0.40000  1.0000
  O   O7        1.0  0.49600  0.43500  0.43500  1.0000
  O   O8        1.0  0.35100  0.92500  0.48000  1.0000
  O   O9        1.0  0.09540  0.54700  0.54700  1.0000
  O   O10       1.0  0.15100  0.10400  0.66100  1.0000
  O   O11       1.0  0.72700  0.75800  0.75800  1.0000
  O   O12       1.0  0.79700  0.39600  0.80800  1.0000
  O   O13       1.0  0.76200  0.09110  0.89100  1.0000
  O   O14       1.0  0.35100  0.48000  0.92500  1.0000
  P   P1        1.0  0.76600  0.39500  0.39500  1.0000
  P   P2        1.0  0.86300  0.93900  0.93900  1.0000
  Zn  Zn1       1.0  0.76900  0.64900  0.15000  1.0000
  Zn  Zn2       1.0  0.46600  0.93300  0.21000  1.0000
  Zn  Zn3       1.0  0.45300  0.69500  0.47700  1.0000
  Zn  Zn4       1.0  0.76900  0.15000  0.64900  1.0000
  Zn  Zn5       1.0  0.45300  0.47700  0.69500  1.0000
  Zn  Zn6       1.0  0.46600  0.21000  0.93300  1.0000
