data_image0
_chemical_formula_structural       Ag10I2O12
_chemical_formula_sum              "Ag10 I2 O12"
_cell_length_a       5.92275
_cell_length_b       5.92275
_cell_length_c       11.3551
_cell_angle_alpha    105.117
_cell_angle_beta     105.117
_cell_angle_gamma    60

_space_group_name_H-M_alt    "P 1"
_space_group_IT_number       1

loop_
  _space_group_symop_operation_xyz
  'x, y, z'

loop_
  _atom_site_type_symbol
  _atom_site_label
  _atom_site_symmetry_multiplicity
  _atom_site_fract_x
  _atom_site_fract_y
  _atom_site_fract_z
  _atom_site_occupancy
  Ag  Ag1       1.0  0.35100  0.35100  0.05380  1.0000
  Ag  Ag2       1.0  0.04670  0.75000  0.25000  1.0000
  Ag  Ag3       1.0  0.45300  0.04670  0.25000  1.0000
  Ag  Ag4       1.0  0.75000  0.45300  0.25000  1.0000
  Ag  Ag5       1.0  0.14900  0.14900  0.44600  1.0000
  Ag  Ag6       1.0  0.85100  0.85100  0.55400  1.0000
  Ag  Ag7       1.0  0.25000  0.54700  0.75000  1.0000
  Ag  Ag8       1.0  0.54700  0.95300  0.75000  1.0000
  Ag  Ag9       1.0  0.95300  0.25000  0.75000  1.0000
  Ag  Ag10      1.0  0.64900  0.64900  0.94600  1.0000
  I   I1        1.0  0.00000  0.00000  0.00000  1.0000
  I   I2        1.0  0.50000  0.50000  0.50000  1.0000
  O   O1        1.0  0.98700  0.32300  0.10100  1.0000
  O   O2        1.0  0.32300  0.79200  0.10100  1.0000
  O   O3        1.0  0.79200  0.98700  0.10100  1.0000
  O   O4        1.0  0.17700  0.51300  0.39900  1.0000
  O   O5        1.0  0.51300  0.70800  0.39900  1.0000
  O   O6        1.0  0.70800  0.17700  0.39900  1.0000
  O   O7        1.0  0.29200  0.82300  0.60100  1.0000
  O   O8        1.0  0.48700  0.29200  0.60100  1.0000
  O   O9        1.0  0.82300  0.48700  0.60100  1.0000
  O   O10       1.0  0.01340  0.67700  0.89900  1.0000
  O   O11       1.0  0.20800  0.01340  0.89900  1.0000
  O   O12       1.0  0.67700  0.20800  0.89900  1.0000
