data_image0
_chemical_formula_structural       Cd4Rh4Tb16
_chemical_formula_sum              "Cd4 Rh4 Tb16"
_cell_length_a       9.64307
_cell_length_b       9.64307
_cell_length_c       9.64307
_cell_angle_alpha    120
_cell_angle_beta     90
_cell_angle_gamma    120

_space_group_name_H-M_alt    "P 1"
_space_group_IT_number       1

loop_
  _space_group_symop_operation_xyz
  'x, y, z'

loop_
  _atom_site_type_symbol
  _atom_site_label
  _atom_site_symmetry_multiplicity
  _atom_site_fract_x
  _atom_site_fract_y
  _atom_site_fract_z
  _atom_site_occupancy
  Cd  Cd1       1.0  0.41900  0.83800  0.25700  1.0000
  Cd  Cd2       1.0  0.41900  0.16200  0.58100  1.0000
  Cd  Cd3       1.0  0.74300  0.16200  0.58100  1.0000
  Cd  Cd4       1.0  0.41900  0.83800  0.58100  1.0000
  Rh  Rh1       1.0  0.42700  0.28500  0.14200  1.0000
  Rh  Rh2       1.0  0.85800  0.28500  0.14200  1.0000
  Rh  Rh3       1.0  0.85800  0.71500  0.14200  1.0000
  Rh  Rh4       1.0  0.85800  0.71500  0.57300  1.0000
  Tb  Tb1       1.0  0.81000  0.00000  0.19000  1.0000
  Tb  Tb2       1.0  0.19000  0.00000  0.19000  1.0000
  Tb  Tb3       1.0  0.19000  0.37900  0.19000  1.0000
  Tb  Tb4       1.0  0.65000  0.30100  0.35000  1.0000
  Tb  Tb5       1.0  0.04850  0.69900  0.35000  1.0000
  Tb  Tb6       1.0  0.65000  0.69900  0.35000  1.0000
  Tb  Tb7       1.0  0.06370  0.50000  0.56400  1.0000
  Tb  Tb8       1.0  0.43600  0.50000  0.56400  1.0000
  Tb  Tb9       1.0  0.06370  0.12700  0.56400  1.0000
  Tb  Tb10      1.0  0.81000  0.00000  0.81000  1.0000
  Tb  Tb11      1.0  0.19000  0.00000  0.81000  1.0000
  Tb  Tb12      1.0  0.81000  0.62100  0.81000  1.0000
  Tb  Tb13      1.0  0.06370  0.50000  0.93600  1.0000
  Tb  Tb14      1.0  0.43600  0.50000  0.93600  1.0000
  Tb  Tb15      1.0  0.43600  0.87300  0.93600  1.0000
  Tb  Tb16      1.0  0.65000  0.30100  0.95100  1.0000
