data_image0
_chemical_formula_structural       Lu4P4S16
_chemical_formula_sum              "Lu4 P4 S16"
_cell_length_a       8.3242
_cell_length_b       6.46794
_cell_length_c       10.7857
_cell_angle_alpha    90
_cell_angle_beta     99.2043
_cell_angle_gamma    90

_space_group_name_H-M_alt    "P 1"
_space_group_IT_number       1

loop_
  _space_group_symop_operation_xyz
  'x, y, z'

loop_
  _atom_site_type_symbol
  _atom_site_label
  _atom_site_symmetry_multiplicity
  _atom_site_fract_x
  _atom_site_fract_y
  _atom_site_fract_z
  _atom_site_occupancy
  Lu  Lu1       1.0  0.60700  0.67600  0.16600  1.0000
  Lu  Lu2       1.0  0.89300  0.17600  0.33400  1.0000
  Lu  Lu3       1.0  0.10700  0.82400  0.66600  1.0000
  Lu  Lu4       1.0  0.39300  0.32400  0.83400  1.0000
  P   P1        1.0  0.73100  0.22800  0.03570  1.0000
  P   P2        1.0  0.76900  0.72800  0.46400  1.0000
  P   P3        1.0  0.23100  0.27200  0.53600  1.0000
  P   P4        1.0  0.26900  0.77200  0.96400  1.0000
  S   S1        1.0  0.50400  0.26900  0.08840  1.0000
  S   S2        1.0  0.83800  0.95700  0.11000  1.0000
  S   S3        1.0  0.88100  0.44800  0.13300  1.0000
  S   S4        1.0  0.28900  0.75400  0.15200  1.0000
  S   S5        1.0  0.21100  0.25400  0.34800  1.0000
  S   S6        1.0  0.61900  0.94800  0.36700  1.0000
  S   S7        1.0  0.66200  0.45700  0.39000  1.0000
  S   S8        1.0  0.99600  0.76900  0.41200  1.0000
  S   S9        1.0  0.00413  0.23100  0.58800  1.0000
  S   S10       1.0  0.33800  0.54300  0.61000  1.0000
  S   S11       1.0  0.38100  0.05190  0.63300  1.0000
  S   S12       1.0  0.78900  0.74600  0.65200  1.0000
  S   S13       1.0  0.71100  0.24600  0.84800  1.0000
  S   S14       1.0  0.11900  0.55200  0.86700  1.0000
  S   S15       1.0  0.16200  0.04280  0.89000  1.0000
  S   S16       1.0  0.49600  0.73100  0.91200  1.0000
