data_image0
_chemical_formula_structural       F16Na4V4
_chemical_formula_sum              "F16 Na4 V4"
_cell_length_a       7.56965
_cell_length_b       5.19715
_cell_length_c       7.29626
_cell_angle_alpha    90
_cell_angle_beta     100.455
_cell_angle_gamma    90

_space_group_name_H-M_alt    "P 1"
_space_group_IT_number       1

loop_
  _space_group_symop_operation_xyz
  'x, y, z'

loop_
  _atom_site_type_symbol
  _atom_site_label
  _atom_site_symmetry_multiplicity
  _atom_site_fract_x
  _atom_site_fract_y
  _atom_site_fract_z
  _atom_site_occupancy
  F   F1        1.0  0.16700  0.11900  0.05310  1.0000
  F   F2        1.0  0.68100  0.48700  0.11500  1.0000
  F   F3        1.0  0.61800  0.97100  0.18500  1.0000
  F   F4        1.0  0.04430  0.57400  0.19100  1.0000
  F   F5        1.0  0.95600  0.07360  0.30900  1.0000
  F   F6        1.0  0.38200  0.47100  0.31500  1.0000
  F   F7        1.0  0.31900  0.98700  0.38500  1.0000
  F   F8        1.0  0.83300  0.61900  0.44700  1.0000
  F   F9        1.0  0.16700  0.38100  0.55300  1.0000
  F   F10       1.0  0.68100  0.01320  0.61500  1.0000
  F   F11       1.0  0.61800  0.52900  0.68500  1.0000
  F   F12       1.0  0.04430  0.92600  0.69100  1.0000
  F   F13       1.0  0.95600  0.42600  0.80900  1.0000
  F   F14       1.0  0.38200  0.02890  0.81500  1.0000
  F   F15       1.0  0.31900  0.51300  0.88500  1.0000
  F   F16       1.0  0.83300  0.88100  0.94700  1.0000
  Na  Na1       1.0  0.36000  0.78300  0.11000  1.0000
  Na  Na2       1.0  0.64000  0.28300  0.39000  1.0000
  Na  Na3       1.0  0.36000  0.71700  0.61000  1.0000
  Na  Na4       1.0  0.64000  0.21700  0.89000  1.0000
  V   V1        1.0  0.82800  0.76700  0.19900  1.0000
  V   V2        1.0  0.17200  0.26700  0.30100  1.0000
  V   V3        1.0  0.82800  0.73300  0.69900  1.0000
  V   V4        1.0  0.17200  0.23300  0.80100  1.0000
