data_image0
_chemical_formula_structural       Gd8Ge8Pd8
_chemical_formula_sum              "Gd8 Ge8 Pd8"
_cell_length_a       4.44278
_cell_length_b       14.1847
_cell_length_c       7.64079
_cell_angle_alpha    90
_cell_angle_beta     90
_cell_angle_gamma    90

_space_group_name_H-M_alt    "P 1"
_space_group_IT_number       1

loop_
  _space_group_symop_operation_xyz
  'x, y, z'

loop_
  _atom_site_type_symbol
  _atom_site_label
  _atom_site_symmetry_multiplicity
  _atom_site_fract_x
  _atom_site_fract_y
  _atom_site_fract_z
  _atom_site_occupancy
  Gd  Gd1       1.0  0.75000  0.50200  0.21300  1.0000
  Gd  Gd2       1.0  0.75000  0.99800  0.21300  1.0000
  Gd  Gd3       1.0  0.75000  0.25000  0.29000  1.0000
  Gd  Gd4       1.0  0.75000  0.75000  0.29700  1.0000
  Gd  Gd5       1.0  0.25000  0.25000  0.70300  1.0000
  Gd  Gd6       1.0  0.25000  0.75000  0.71000  1.0000
  Gd  Gd7       1.0  0.25000  0.00174  0.78700  1.0000
  Gd  Gd8       1.0  0.25000  0.49800  0.78700  1.0000
  Ge  Ge1       1.0  0.25000  0.65400  0.09010  1.0000
  Ge  Ge2       1.0  0.25000  0.84600  0.09010  1.0000
  Ge  Ge3       1.0  0.25000  0.10500  0.40900  1.0000
  Ge  Ge4       1.0  0.25000  0.39500  0.40900  1.0000
  Ge  Ge5       1.0  0.75000  0.60500  0.59100  1.0000
  Ge  Ge6       1.0  0.75000  0.89500  0.59100  1.0000
  Ge  Ge7       1.0  0.75000  0.15400  0.91000  1.0000
  Ge  Ge8       1.0  0.75000  0.34600  0.91000  1.0000
  Pd  Pd1       1.0  0.25000  0.14200  0.07720  1.0000
  Pd  Pd2       1.0  0.25000  0.35800  0.07720  1.0000
  Pd  Pd3       1.0  0.25000  0.59600  0.41800  1.0000
  Pd  Pd4       1.0  0.25000  0.90400  0.41800  1.0000
  Pd  Pd5       1.0  0.75000  0.09590  0.58200  1.0000
  Pd  Pd6       1.0  0.75000  0.40400  0.58200  1.0000
  Pd  Pd7       1.0  0.75000  0.64200  0.92300  1.0000
  Pd  Pd8       1.0  0.75000  0.85800  0.92300  1.0000
