data_image0
_chemical_formula_structural       B4C2I10La8
_chemical_formula_sum              "B4 C2 I10 La8"
_cell_length_a       4.30154
_cell_length_b       12.1281
_cell_length_c       15.7018
_cell_angle_alpha    91.3058
_cell_angle_beta     97.8729
_cell_angle_gamma    100.215

_space_group_name_H-M_alt    "P 1"
_space_group_IT_number       1

loop_
  _space_group_symop_operation_xyz
  'x, y, z'

loop_
  _atom_site_type_symbol
  _atom_site_label
  _atom_site_symmetry_multiplicity
  _atom_site_fract_x
  _atom_site_fract_y
  _atom_site_fract_z
  _atom_site_occupancy
  B   B1        1.0  0.31500  0.00000  0.00000  1.0000
  B   B2        1.0  0.68500  0.00000  0.00000  1.0000
  B   B3        1.0  0.05230  0.05610  0.04850  1.0000
  B   B4        1.0  0.94800  0.94400  0.95200  1.0000
  C   C1        1.0  0.51200  0.54800  0.47600  1.0000
  C   C2        1.0  0.48800  0.45200  0.52400  1.0000
  I   I1        1.0  0.34100  0.66100  0.01970  1.0000
  I   I2        1.0  0.93100  0.60800  0.25300  1.0000
  I   I3        1.0  0.59400  0.93400  0.25400  1.0000
  I   I4        1.0  0.28000  0.29600  0.26300  1.0000
  I   I5        1.0  0.82100  0.16100  0.48100  1.0000
  I   I6        1.0  0.17900  0.83900  0.51900  1.0000
  I   I7        1.0  0.72000  0.70400  0.73700  1.0000
  I   I8        1.0  0.40600  0.06590  0.74600  1.0000
  I   I9        1.0  0.06930  0.39200  0.74700  1.0000
  I   I10       1.0  0.65900  0.33900  0.98000  1.0000
  La  La1       1.0  0.97400  0.84500  0.10200  1.0000
  La  La2       1.0  0.63700  0.14800  0.12500  1.0000
  La  La3       1.0  0.55200  0.70700  0.39600  1.0000
  La  La4       1.0  0.91300  0.41800  0.40800  1.0000
  La  La5       1.0  0.08680  0.58200  0.59200  1.0000
  La  La6       1.0  0.44800  0.29300  0.60400  1.0000
  La  La7       1.0  0.36300  0.85200  0.87500  1.0000
  La  La8       1.0  0.02640  0.15500  0.89800  1.0000
