data_image0
_chemical_formula_structural       Cl12O8Re4
_chemical_formula_sum              "Cl12 O8 Re4"
_cell_length_a       7.97978
_cell_length_b       8.17169
_cell_length_c       7.79263
_cell_angle_alpha    90
_cell_angle_beta     90
_cell_angle_gamma    90

_space_group_name_H-M_alt    "P 1"
_space_group_IT_number       1

loop_
  _space_group_symop_operation_xyz
  'x, y, z'

loop_
  _atom_site_type_symbol
  _atom_site_label
  _atom_site_symmetry_multiplicity
  _atom_site_fract_x
  _atom_site_fract_y
  _atom_site_fract_z
  _atom_site_occupancy
  Cl  Cl1       1.0  0.28700  0.22600  0.00000  1.0000
  Cl  Cl2       1.0  0.83000  0.37700  0.00000  1.0000
  Cl  Cl3       1.0  0.17000  0.62300  0.00000  1.0000
  Cl  Cl4       1.0  0.71300  0.77400  0.00000  1.0000
  Cl  Cl5       1.0  0.50000  0.50000  0.20800  1.0000
  Cl  Cl6       1.0  0.00000  0.00000  0.29200  1.0000
  Cl  Cl7       1.0  0.33000  0.12300  0.50000  1.0000
  Cl  Cl8       1.0  0.78700  0.27400  0.50000  1.0000
  Cl  Cl9       1.0  0.21300  0.72600  0.50000  1.0000
  Cl  Cl10      1.0  0.67000  0.87700  0.50000  1.0000
  Cl  Cl11      1.0  0.00000  0.00000  0.70800  1.0000
  Cl  Cl12      1.0  0.50000  0.50000  0.79200  1.0000
  O   O1        1.0  0.60600  0.13700  0.17500  1.0000
  O   O2        1.0  0.39400  0.86300  0.17500  1.0000
  O   O3        1.0  0.10600  0.36300  0.32500  1.0000
  O   O4        1.0  0.89400  0.63700  0.32500  1.0000
  O   O5        1.0  0.10600  0.36300  0.67500  1.0000
  O   O6        1.0  0.89400  0.63700  0.67500  1.0000
  O   O7        1.0  0.60600  0.13700  0.82500  1.0000
  O   O8        1.0  0.39400  0.86300  0.82500  1.0000
  Re  Re1       1.0  0.57100  0.26000  0.00000  1.0000
  Re  Re2       1.0  0.42900  0.74000  0.00000  1.0000
  Re  Re3       1.0  0.07100  0.24000  0.50000  1.0000
  Re  Re4       1.0  0.92900  0.76000  0.50000  1.0000
