data_image0
_chemical_formula_structural       Ba12In10N2
_chemical_formula_sum              "Ba12 In10 N2"
_cell_length_a       8.2793
_cell_length_b       8.2793
_cell_length_c       15.6724
_cell_angle_alpha    105.316
_cell_angle_beta     105.316
_cell_angle_gamma    60

_space_group_name_H-M_alt    "P 1"
_space_group_IT_number       1

loop_
  _space_group_symop_operation_xyz
  'x, y, z'

loop_
  _atom_site_type_symbol
  _atom_site_label
  _atom_site_symmetry_multiplicity
  _atom_site_fract_x
  _atom_site_fract_y
  _atom_site_fract_z
  _atom_site_occupancy
  Ba  Ba1       1.0  0.25100  0.13500  0.10400  1.0000
  Ba  Ba2       1.0  0.71700  0.25100  0.10400  1.0000
  Ba  Ba3       1.0  0.13500  0.71700  0.10400  1.0000
  Ba  Ba4       1.0  0.36500  0.24900  0.39600  1.0000
  Ba  Ba5       1.0  0.78300  0.36500  0.39600  1.0000
  Ba  Ba6       1.0  0.24900  0.78300  0.39600  1.0000
  Ba  Ba7       1.0  0.75100  0.21700  0.60400  1.0000
  Ba  Ba8       1.0  0.21700  0.63500  0.60400  1.0000
  Ba  Ba9       1.0  0.63500  0.75100  0.60400  1.0000
  Ba  Ba10      1.0  0.86500  0.28300  0.89600  1.0000
  Ba  Ba11      1.0  0.28300  0.74900  0.89600  1.0000
  Ba  Ba12      1.0  0.74900  0.86500  0.89600  1.0000
  In  In1       1.0  0.69300  0.69300  0.07870  1.0000
  In  In2       1.0  0.97000  0.53000  0.25000  1.0000
  In  In3       1.0  0.53000  0.75000  0.25000  1.0000
  In  In4       1.0  0.75000  0.97000  0.25000  1.0000
  In  In5       1.0  0.80700  0.80700  0.42100  1.0000
  In  In6       1.0  0.19300  0.19300  0.57900  1.0000
  In  In7       1.0  0.25000  0.03040  0.75000  1.0000
  In  In8       1.0  0.47000  0.25000  0.75000  1.0000
  In  In9       1.0  0.03040  0.47000  0.75000  1.0000
  In  In10      1.0  0.30700  0.30700  0.92100  1.0000
  N   N1        1.0  0.00000  0.00000  0.00000  1.0000
  N   N2        1.0  0.50000  0.50000  0.50000  1.0000
