data_image0
_chemical_formula_structural       Be4F16Sr4
_chemical_formula_sum              "Be4 F16 Sr4"
_cell_length_a       5.14754
_cell_length_b       8.12143
_cell_length_c       6.62212
_cell_angle_alpha    90
_cell_angle_beta     89.9551
_cell_angle_gamma    90

_space_group_name_H-M_alt    "P 1"
_space_group_IT_number       1

loop_
  _space_group_symop_operation_xyz
  'x, y, z'

loop_
  _atom_site_type_symbol
  _atom_site_label
  _atom_site_symmetry_multiplicity
  _atom_site_fract_x
  _atom_site_fract_y
  _atom_site_fract_z
  _atom_site_occupancy
  Be  Be1       1.0  0.74900  0.45000  0.18600  1.0000
  Be  Be2       1.0  0.75100  0.95000  0.31400  1.0000
  Be  Be3       1.0  0.24900  0.05000  0.68600  1.0000
  Be  Be4       1.0  0.25100  0.55000  0.81400  1.0000
  F   F1        1.0  0.78400  0.31600  0.02690  1.0000
  F   F2        1.0  0.69600  0.62300  0.10600  1.0000
  F   F3        1.0  0.98600  0.91000  0.17700  1.0000
  F   F4        1.0  0.50100  0.94500  0.18600  1.0000
  F   F5        1.0  0.99900  0.44500  0.31400  1.0000
  F   F6        1.0  0.51400  0.41000  0.32300  1.0000
  F   F7        1.0  0.80400  0.12300  0.39400  1.0000
  F   F8        1.0  0.71600  0.81600  0.47300  1.0000
  F   F9        1.0  0.28400  0.18400  0.52700  1.0000
  F   F10       1.0  0.19600  0.87700  0.60600  1.0000
  F   F11       1.0  0.48600  0.59000  0.67700  1.0000
  F   F12       1.0  0.00058  0.55500  0.68600  1.0000
  F   F13       1.0  0.49900  0.05470  0.81400  1.0000
  F   F14       1.0  0.01350  0.08990  0.82300  1.0000
  F   F15       1.0  0.30400  0.37700  0.89400  1.0000
  F   F16       1.0  0.21600  0.68400  0.97300  1.0000
  Sr  Sr1       1.0  0.21300  0.18800  0.16200  1.0000
  Sr  Sr2       1.0  0.28700  0.68800  0.33800  1.0000
  Sr  Sr3       1.0  0.71300  0.31200  0.66200  1.0000
  Sr  Sr4       1.0  0.78700  0.81200  0.83800  1.0000
