data_image0
_chemical_formula_structural       Au4Nd8P12
_chemical_formula_sum              "Au4 Nd8 P12"
_cell_length_a       4.18168
_cell_length_b       7.74446
_cell_length_c       16.7543
_cell_angle_alpha    90
_cell_angle_beta     104.293
_cell_angle_gamma    90

_space_group_name_H-M_alt    "P 1"
_space_group_IT_number       1

loop_
  _space_group_symop_operation_xyz
  'x, y, z'

loop_
  _atom_site_type_symbol
  _atom_site_label
  _atom_site_symmetry_multiplicity
  _atom_site_fract_x
  _atom_site_fract_y
  _atom_site_fract_z
  _atom_site_occupancy
  Au  Au1       1.0  0.90200  0.00857  0.15000  1.0000
  Au  Au2       1.0  0.09800  0.50900  0.35000  1.0000
  Au  Au3       1.0  0.90200  0.49100  0.65000  1.0000
  Au  Au4       1.0  0.09800  0.99100  0.85000  1.0000
  Nd  Nd1       1.0  0.26700  0.76800  0.02460  1.0000
  Nd  Nd2       1.0  0.44800  0.40100  0.20300  1.0000
  Nd  Nd3       1.0  0.55200  0.90100  0.29700  1.0000
  Nd  Nd4       1.0  0.73300  0.26800  0.47500  1.0000
  Nd  Nd5       1.0  0.26700  0.73200  0.52500  1.0000
  Nd  Nd6       1.0  0.44800  0.09920  0.70300  1.0000
  Nd  Nd7       1.0  0.55200  0.59900  0.79700  1.0000
  Nd  Nd8       1.0  0.73300  0.23200  0.97500  1.0000
  P   P1        1.0  0.34100  0.11800  0.08700  1.0000
  P   P2        1.0  0.83500  0.53500  0.09360  1.0000
  P   P3        1.0  0.96700  0.70300  0.20300  1.0000
  P   P4        1.0  0.03300  0.20300  0.29700  1.0000
  P   P5        1.0  0.16500  0.03460  0.40600  1.0000
  P   P6        1.0  0.65900  0.61800  0.41300  1.0000
  P   P7        1.0  0.34100  0.38200  0.58700  1.0000
  P   P8        1.0  0.83500  0.96500  0.59400  1.0000
  P   P9        1.0  0.96700  0.79700  0.70300  1.0000
  P   P10       1.0  0.03300  0.29700  0.79700  1.0000
  P   P11       1.0  0.16500  0.46500  0.90600  1.0000
  P   P12       1.0  0.65900  0.88200  0.91300  1.0000
