data_image0
_chemical_formula_structural       Rb8Te12Zr4
_chemical_formula_sum              "Rb8 Te12 Zr4"
_cell_length_a       9.97777
_cell_length_b       14.4844
_cell_length_c       6.97585
_cell_angle_alpha    90
_cell_angle_beta     107.87
_cell_angle_gamma    90

_space_group_name_H-M_alt    "P 1"
_space_group_IT_number       1

loop_
  _space_group_symop_operation_xyz
  'x, y, z'

loop_
  _atom_site_type_symbol
  _atom_site_label
  _atom_site_symmetry_multiplicity
  _atom_site_fract_x
  _atom_site_fract_y
  _atom_site_fract_z
  _atom_site_occupancy
  Rb  Rb1       1.0  0.09470  0.86300  0.07950  1.0000
  Rb  Rb2       1.0  0.35700  0.54400  0.18000  1.0000
  Rb  Rb3       1.0  0.64300  0.04390  0.32000  1.0000
  Rb  Rb4       1.0  0.90500  0.36300  0.42100  1.0000
  Rb  Rb5       1.0  0.09470  0.63700  0.57900  1.0000
  Rb  Rb6       1.0  0.35700  0.95600  0.68000  1.0000
  Rb  Rb7       1.0  0.64300  0.45600  0.82000  1.0000
  Rb  Rb8       1.0  0.90500  0.13700  0.92100  1.0000
  Te  Te1       1.0  0.09870  0.35100  0.00816  1.0000
  Te  Te2       1.0  0.27100  0.08710  0.08850  1.0000
  Te  Te3       1.0  0.52900  0.30900  0.19900  1.0000
  Te  Te4       1.0  0.47100  0.80900  0.30100  1.0000
  Te  Te5       1.0  0.72900  0.58700  0.41200  1.0000
  Te  Te6       1.0  0.90100  0.85100  0.49200  1.0000
  Te  Te7       1.0  0.09870  0.14900  0.50800  1.0000
  Te  Te8       1.0  0.27100  0.41300  0.58800  1.0000
  Te  Te9       1.0  0.52900  0.19100  0.69900  1.0000
  Te  Te10      1.0  0.47100  0.69100  0.80100  1.0000
  Te  Te11      1.0  0.72900  0.91300  0.91200  1.0000
  Te  Te12      1.0  0.90100  0.64900  0.99200  1.0000
  Zr  Zr1       1.0  0.70200  0.75200  0.16700  1.0000
  Zr  Zr2       1.0  0.29800  0.25200  0.33300  1.0000
  Zr  Zr3       1.0  0.70200  0.74800  0.66700  1.0000
  Zr  Zr4       1.0  0.29800  0.24800  0.83300  1.0000
