data_image0
_chemical_formula_structural       Cl12F8Sb4
_chemical_formula_sum              "Cl12 F8 Sb4"
_cell_length_a       6.9512
_cell_length_b       9.5656
_cell_length_c       9.5656
_cell_angle_alpha    97.5863
_cell_angle_beta     68.6943
_cell_angle_gamma    111.306

_space_group_name_H-M_alt    "P 1"
_space_group_IT_number       1

loop_
  _space_group_symop_operation_xyz
  'x, y, z'

loop_
  _atom_site_type_symbol
  _atom_site_label
  _atom_site_symmetry_multiplicity
  _atom_site_fract_x
  _atom_site_fract_y
  _atom_site_fract_z
  _atom_site_occupancy
  Cl  Cl1       1.0  0.22700  0.52200  0.10000  1.0000
  Cl  Cl2       1.0  0.72600  0.23300  0.15600  1.0000
  Cl  Cl3       1.0  0.49300  0.84400  0.23300  1.0000
  Cl  Cl4       1.0  0.64900  0.56200  0.31000  1.0000
  Cl  Cl5       1.0  0.96000  0.31000  0.43800  1.0000
  Cl  Cl6       1.0  0.32700  0.10000  0.47800  1.0000
  Cl  Cl7       1.0  0.70500  0.90000  0.52200  1.0000
  Cl  Cl8       1.0  0.08720  0.69000  0.56200  1.0000
  Cl  Cl9       1.0  0.39800  0.43800  0.69000  1.0000
  Cl  Cl10      1.0  0.88200  0.15600  0.76700  1.0000
  Cl  Cl11      1.0  0.64800  0.76700  0.84400  1.0000
  Cl  Cl12      1.0  0.80500  0.47800  0.90000  1.0000
  F   F1        1.0  0.90700  0.79300  0.04390  1.0000
  F   F2        1.0  0.33000  0.25300  0.16400  1.0000
  F   F3        1.0  0.95100  0.04390  0.20700  1.0000
  F   F4        1.0  0.07690  0.83600  0.25300  1.0000
  F   F5        1.0  0.49400  0.16400  0.74700  1.0000
  F   F6        1.0  0.11400  0.95600  0.79300  1.0000
  F   F7        1.0  0.24100  0.74700  0.83600  1.0000
  F   F8        1.0  0.15700  0.20700  0.95600  1.0000
  Sb  Sb1       1.0  0.06150  0.27700  0.18100  1.0000
  Sb  Sb2       1.0  0.78500  0.81900  0.27700  1.0000
  Sb  Sb3       1.0  0.24300  0.18100  0.72300  1.0000
  Sb  Sb4       1.0  0.96600  0.72300  0.81900  1.0000
