data_image0
_chemical_formula_structural       Cl16Ru2S6
_chemical_formula_sum              "Cl16 Ru2 S6"
_cell_length_a       7.80537
_cell_length_b       8.04781
_cell_length_c       10.7687
_cell_angle_alpha    103.609
_cell_angle_beta     98.2285
_cell_angle_gamma    108.606

_space_group_name_H-M_alt    "P 1"
_space_group_IT_number       1

loop_
  _space_group_symop_operation_xyz
  'x, y, z'

loop_
  _atom_site_type_symbol
  _atom_site_label
  _atom_site_symmetry_multiplicity
  _atom_site_fract_x
  _atom_site_fract_y
  _atom_site_fract_z
  _atom_site_occupancy
  Cl  Cl1       1.0  0.11500  0.87000  0.02760  1.0000
  Cl  Cl2       1.0  0.52400  0.23700  0.03820  1.0000
  Cl  Cl3       1.0  0.03080  0.56800  0.19300  1.0000
  Cl  Cl4       1.0  0.85900  0.95900  0.23200  1.0000
  Cl  Cl5       1.0  0.50300  0.56900  0.24300  1.0000
  Cl  Cl6       1.0  0.48800  0.03770  0.29100  1.0000
  Cl  Cl7       1.0  0.21900  0.53800  0.46300  1.0000
  Cl  Cl8       1.0  0.22700  0.08570  0.48600  1.0000
  Cl  Cl9       1.0  0.77300  0.91400  0.51400  1.0000
  Cl  Cl10      1.0  0.78100  0.46200  0.53700  1.0000
  Cl  Cl11      1.0  0.51200  0.96200  0.70900  1.0000
  Cl  Cl12      1.0  0.49700  0.43100  0.75700  1.0000
  Cl  Cl13      1.0  0.14100  0.04100  0.76800  1.0000
  Cl  Cl14      1.0  0.96900  0.43200  0.80700  1.0000
  Cl  Cl15      1.0  0.47600  0.76300  0.96200  1.0000
  Cl  Cl16      1.0  0.88500  0.13000  0.97200  1.0000
  Ru  Ru1       1.0  0.11400  0.15600  0.17000  1.0000
  Ru  Ru2       1.0  0.88600  0.84400  0.83000  1.0000
  S   S1        1.0  0.32600  0.34200  0.08980  1.0000
  S   S2        1.0  0.02660  0.37200  0.28700  1.0000
  S   S3        1.0  0.33300  0.19400  0.34400  1.0000
  S   S4        1.0  0.66700  0.80600  0.65600  1.0000
  S   S5        1.0  0.97300  0.62800  0.71300  1.0000
  S   S6        1.0  0.67400  0.65800  0.91000  1.0000
