data_image0
_chemical_formula_structural       As4Cs8Te12
_chemical_formula_sum              "As4 Cs8 Te12"
_cell_length_a       11.0167
_cell_length_b       9.59316
_cell_length_c       11.7106
_cell_angle_alpha    90
_cell_angle_beta     119.205
_cell_angle_gamma    90

_space_group_name_H-M_alt    "P 1"
_space_group_IT_number       1

loop_
  _space_group_symop_operation_xyz
  'x, y, z'

loop_
  _atom_site_type_symbol
  _atom_site_label
  _atom_site_symmetry_multiplicity
  _atom_site_fract_x
  _atom_site_fract_y
  _atom_site_fract_z
  _atom_site_occupancy
  As  As1       1.0  0.04630  0.89800  0.07250  1.0000
  As  As2       1.0  0.95400  0.39800  0.42800  1.0000
  As  As3       1.0  0.04630  0.60200  0.57200  1.0000
  As  As4       1.0  0.95400  0.10200  0.92800  1.0000
  Cs  Cs1       1.0  0.73500  0.60600  0.03250  1.0000
  Cs  Cs2       1.0  0.74000  0.09200  0.19300  1.0000
  Cs  Cs3       1.0  0.26000  0.59200  0.30700  1.0000
  Cs  Cs4       1.0  0.26500  0.10600  0.46700  1.0000
  Cs  Cs5       1.0  0.73500  0.89400  0.53300  1.0000
  Cs  Cs6       1.0  0.74000  0.40800  0.69300  1.0000
  Cs  Cs7       1.0  0.26000  0.90800  0.80700  1.0000
  Cs  Cs8       1.0  0.26500  0.39400  0.96700  1.0000
  Te  Te1       1.0  0.99900  0.28100  0.11000  1.0000
  Te  Te2       1.0  0.30900  0.00651  0.15200  1.0000
  Te  Te3       1.0  0.47600  0.77600  0.17200  1.0000
  Te  Te4       1.0  0.52400  0.27600  0.32800  1.0000
  Te  Te5       1.0  0.69100  0.50700  0.34800  1.0000
  Te  Te6       1.0  0.00060  0.78100  0.39000  1.0000
  Te  Te7       1.0  0.99900  0.21900  0.61000  1.0000
  Te  Te8       1.0  0.30900  0.49300  0.65200  1.0000
  Te  Te9       1.0  0.47600  0.72400  0.67200  1.0000
  Te  Te10      1.0  0.52400  0.22400  0.82800  1.0000
  Te  Te11      1.0  0.69100  0.99300  0.84800  1.0000
  Te  Te12      1.0  0.00059  0.71900  0.89000  1.0000
