data_image0
_chemical_formula_structural       Na8Se16
_chemical_formula_sum              "Na8 Se16"
_cell_length_a       9.44309
_cell_length_b       9.44309
_cell_length_c       9.44309
_cell_angle_alpha    114.78
_cell_angle_beta     99.3066
_cell_angle_gamma    114.78

_space_group_name_H-M_alt    "P 1"
_space_group_IT_number       1

loop_
  _space_group_symop_operation_xyz
  'x, y, z'

loop_
  _atom_site_type_symbol
  _atom_site_label
  _atom_site_symmetry_multiplicity
  _atom_site_fract_x
  _atom_site_fract_y
  _atom_site_fract_z
  _atom_site_occupancy
  Na  Na1       1.0  0.12500  0.50900  0.13400  1.0000
  Na  Na2       1.0  0.18500  0.00000  0.18500  1.0000
  Na  Na3       1.0  0.86600  0.99100  0.37500  1.0000
  Na  Na4       1.0  0.06480  0.50000  0.56500  1.0000
  Na  Na5       1.0  0.62500  0.49100  0.61600  1.0000
  Na  Na6       1.0  0.81500  0.00000  0.81500  1.0000
  Na  Na7       1.0  0.38400  0.00859  0.87500  1.0000
  Na  Na8       1.0  0.43500  0.50000  0.93500  1.0000
  Se  Se1       1.0  0.77100  0.47900  0.01620  1.0000
  Se  Se2       1.0  0.30900  0.74900  0.02200  1.0000
  Se  Se3       1.0  0.81100  0.75100  0.02330  1.0000
  Se  Se4       1.0  0.27200  0.24900  0.05920  1.0000
  Se  Se5       1.0  0.94100  0.21300  0.18900  1.0000
  Se  Se6       1.0  0.70800  0.24500  0.22900  1.0000
  Se  Se7       1.0  0.54200  0.02080  0.28700  1.0000
  Se  Se8       1.0  0.53700  0.52100  0.29200  1.0000
  Se  Se9       1.0  0.47900  0.74500  0.45800  1.0000
  Se  Se10      1.0  0.98400  0.75500  0.46300  1.0000
  Se  Se11      1.0  0.26600  0.97900  0.52100  1.0000
  Se  Se12      1.0  0.27300  0.25100  0.56100  1.0000
  Se  Se13      1.0  0.43900  0.71300  0.69100  1.0000
  Se  Se14      1.0  0.97800  0.28700  0.72700  1.0000
  Se  Se15      1.0  0.97700  0.78700  0.72800  1.0000
  Se  Se16      1.0  0.71300  0.25500  0.73400  1.0000
