data_image0
_chemical_formula_structural       F4O12Se4Tm4
_chemical_formula_sum              "F4 O12 Se4 Tm4"
_cell_length_a       6.4959
_cell_length_b       6.75604
_cell_length_c       7.0249
_cell_angle_alpha    90
_cell_angle_beta     99.1658
_cell_angle_gamma    90

_space_group_name_H-M_alt    "P 1"
_space_group_IT_number       1

loop_
  _space_group_symop_operation_xyz
  'x, y, z'

loop_
  _atom_site_type_symbol
  _atom_site_label
  _atom_site_symmetry_multiplicity
  _atom_site_fract_x
  _atom_site_fract_y
  _atom_site_fract_z
  _atom_site_occupancy
  F   F1        1.0  0.17000  0.39000  0.02430  1.0000
  F   F2        1.0  0.83000  0.89000  0.47600  1.0000
  F   F3        1.0  0.17000  0.11000  0.52400  1.0000
  F   F4        1.0  0.83000  0.61000  0.97600  1.0000
  O   O1        1.0  0.51800  0.81000  0.13400  1.0000
  O   O2        1.0  0.17400  0.03630  0.14700  1.0000
  O   O3        1.0  0.82300  0.19300  0.21500  1.0000
  O   O4        1.0  0.17700  0.69300  0.28500  1.0000
  O   O5        1.0  0.82600  0.53600  0.35300  1.0000
  O   O6        1.0  0.48200  0.31000  0.36600  1.0000
  O   O7        1.0  0.51800  0.69000  0.63400  1.0000
  O   O8        1.0  0.17400  0.46400  0.64700  1.0000
  O   O9        1.0  0.82300  0.30700  0.71500  1.0000
  O   O10       1.0  0.17700  0.80700  0.78500  1.0000
  O   O11       1.0  0.82600  0.96400  0.85300  1.0000
  O   O12       1.0  0.48200  0.19000  0.86600  1.0000
  Se  Se1       1.0  0.64100  0.38300  0.20700  1.0000
  Se  Se2       1.0  0.35900  0.88300  0.29300  1.0000
  Se  Se3       1.0  0.64100  0.11700  0.70700  1.0000
  Se  Se4       1.0  0.35900  0.61700  0.79300  1.0000
  Tm  Tm1       1.0  0.86400  0.85800  0.17600  1.0000
  Tm  Tm2       1.0  0.13600  0.35800  0.32400  1.0000
  Tm  Tm3       1.0  0.86400  0.64200  0.67600  1.0000
  Tm  Tm4       1.0  0.13600  0.14200  0.82400  1.0000
