data_image0
_chemical_formula_structural       S12Sr8Zn4
_chemical_formula_sum              "S12 Sr8 Zn4"
_cell_length_a       8.42097
_cell_length_b       4.06061
_cell_length_c       16.3479
_cell_angle_alpha    90
_cell_angle_beta     90
_cell_angle_gamma    90

_space_group_name_H-M_alt    "P 1"
_space_group_IT_number       1

loop_
  _space_group_symop_operation_xyz
  'x, y, z'

loop_
  _atom_site_type_symbol
  _atom_site_label
  _atom_site_symmetry_multiplicity
  _atom_site_fract_x
  _atom_site_fract_y
  _atom_site_fract_z
  _atom_site_occupancy
  S   S1        1.0  0.37700  0.75000  0.07210  1.0000
  S   S2        1.0  0.62300  0.25000  0.92800  1.0000
  S   S3        1.0  0.12300  0.25000  0.57200  1.0000
  S   S4        1.0  0.87700  0.75000  0.42800  1.0000
  S   S5        1.0  0.49100  0.25000  0.40300  1.0000
  S   S6        1.0  0.50900  0.75000  0.59700  1.0000
  S   S7        1.0  0.00914  0.75000  0.90300  1.0000
  S   S8        1.0  0.99100  0.25000  0.09740  1.0000
  S   S9        1.0  0.18400  0.75000  0.27400  1.0000
  S   S10       1.0  0.81600  0.25000  0.72600  1.0000
  S   S11       1.0  0.31600  0.25000  0.77400  1.0000
  S   S12       1.0  0.68400  0.75000  0.22600  1.0000
  Sr  Sr1       1.0  0.42200  0.25000  0.21400  1.0000
  Sr  Sr2       1.0  0.57800  0.75000  0.78600  1.0000
  Sr  Sr3       1.0  0.07810  0.75000  0.71400  1.0000
  Sr  Sr4       1.0  0.92200  0.25000  0.28600  1.0000
  Sr  Sr5       1.0  0.24000  0.75000  0.45800  1.0000
  Sr  Sr6       1.0  0.76000  0.25000  0.54200  1.0000
  Sr  Sr7       1.0  0.26000  0.25000  0.95800  1.0000
  Sr  Sr8       1.0  0.74000  0.75000  0.04180  1.0000
  Zn  Zn1       1.0  0.12600  0.75000  0.13400  1.0000
  Zn  Zn2       1.0  0.87400  0.25000  0.86600  1.0000
  Zn  Zn3       1.0  0.37400  0.25000  0.63400  1.0000
  Zn  Zn4       1.0  0.62600  0.75000  0.36600  1.0000
