data_image0
_chemical_formula_structural       Ba4Ge4O14Zn2
_chemical_formula_sum              "Ba4 Ge4 O14 Zn2"
_cell_length_a       8.36054
_cell_length_b       8.36054
_cell_length_c       5.55332
_cell_angle_alpha    90
_cell_angle_beta     90
_cell_angle_gamma    90

_space_group_name_H-M_alt    "P 1"
_space_group_IT_number       1

loop_
  _space_group_symop_operation_xyz
  'x, y, z'

loop_
  _atom_site_type_symbol
  _atom_site_label
  _atom_site_symmetry_multiplicity
  _atom_site_fract_x
  _atom_site_fract_y
  _atom_site_fract_z
  _atom_site_occupancy
  Ba  Ba1       1.0  0.83500  0.33500  0.49300  1.0000
  Ba  Ba2       1.0  0.16500  0.66500  0.49300  1.0000
  Ba  Ba3       1.0  0.33500  0.16500  0.50700  1.0000
  Ba  Ba4       1.0  0.66500  0.83500  0.50700  1.0000
  Ge  Ge1       1.0  0.64200  0.14200  0.03800  1.0000
  Ge  Ge2       1.0  0.35800  0.85800  0.03800  1.0000
  Ge  Ge3       1.0  0.14200  0.35800  0.96200  1.0000
  Ge  Ge4       1.0  0.85800  0.64200  0.96200  1.0000
  O   O1        1.0  0.50000  0.00000  0.16000  1.0000
  O   O2        1.0  0.81800  0.07930  0.19200  1.0000
  O   O3        1.0  0.57900  0.31800  0.19200  1.0000
  O   O4        1.0  0.42100  0.68200  0.19200  1.0000
  O   O5        1.0  0.18200  0.92100  0.19200  1.0000
  O   O6        1.0  0.13900  0.36100  0.27400  1.0000
  O   O7        1.0  0.86100  0.63900  0.27400  1.0000
  O   O8        1.0  0.63900  0.13900  0.72600  1.0000
  O   O9        1.0  0.36100  0.86100  0.72600  1.0000
  O   O10       1.0  0.07930  0.18200  0.80800  1.0000
  O   O11       1.0  0.31800  0.42100  0.80800  1.0000
  O   O12       1.0  0.68200  0.57900  0.80800  1.0000
  O   O13       1.0  0.92100  0.81800  0.80800  1.0000
  O   O14       1.0  0.00000  0.50000  0.84000  1.0000
  Zn  Zn1       1.0  0.00000  0.00000  0.00000  1.0000
  Zn  Zn2       1.0  0.50000  0.50000  0.00000  1.0000
