data_image0
_chemical_formula_structural       Co2H4Mo2O14Se2
_chemical_formula_sum              "Co2 H4 Mo2 O14 Se2"
_cell_length_a       4.92662
_cell_length_b       6.57527
_cell_length_c       8.79579
_cell_angle_alpha    91.4968
_cell_angle_beta     97.9958
_cell_angle_gamma    110.698

_space_group_name_H-M_alt    "P 1"
_space_group_IT_number       1

loop_
  _space_group_symop_operation_xyz
  'x, y, z'

loop_
  _atom_site_type_symbol
  _atom_site_label
  _atom_site_symmetry_multiplicity
  _atom_site_fract_x
  _atom_site_fract_y
  _atom_site_fract_z
  _atom_site_occupancy
  Co  Co1       1.0  0.50000  0.00000  0.00000  1.0000
  Co  Co2       1.0  0.00000  0.50000  0.50000  1.0000
  H   H1        1.0  0.61500  0.13500  0.35500  1.0000
  H   H2        1.0  0.44900  0.24000  0.47600  1.0000
  H   H3        1.0  0.55100  0.76000  0.52400  1.0000
  H   H4        1.0  0.38500  0.86500  0.64500  1.0000
  Mo  Mo1       1.0  0.20800  0.40600  0.10700  1.0000
  Mo  Mo2       1.0  0.79200  0.59400  0.89300  1.0000
  O   O1        1.0  0.17000  0.69500  0.01310  1.0000
  O   O2        1.0  0.26500  0.15500  0.10800  1.0000
  O   O3        1.0  0.64300  0.58700  0.13100  1.0000
  O   O4        1.0  0.67300  0.98200  0.22500  1.0000
  O   O5        1.0  0.14800  0.46600  0.29100  1.0000
  O   O6        1.0  0.63100  0.25300  0.43300  1.0000
  O   O7        1.0  0.80300  0.73200  0.43600  1.0000
  O   O8        1.0  0.19700  0.26800  0.56400  1.0000
  O   O9        1.0  0.36900  0.74700  0.56700  1.0000
  O   O10       1.0  0.85200  0.53400  0.70900  1.0000
  O   O11       1.0  0.32700  0.01810  0.77500  1.0000
  O   O12       1.0  0.35700  0.41300  0.86900  1.0000
  O   O13       1.0  0.73500  0.84500  0.89200  1.0000
  O   O14       1.0  0.83000  0.30500  0.98700  1.0000
  Se  Se1       1.0  0.87800  0.82300  0.26400  1.0000
  Se  Se2       1.0  0.12200  0.17700  0.73600  1.0000
