data_image0
_chemical_formula_structural       Cl16Ga4Tl4
_chemical_formula_sum              "Cl16 Ga4 Tl4"
_cell_length_a       10.8052
_cell_length_b       7.11592
_cell_length_c       9.41612
_cell_angle_alpha    90
_cell_angle_beta     90
_cell_angle_gamma    90

_space_group_name_H-M_alt    "P 1"
_space_group_IT_number       1

loop_
  _space_group_symop_operation_xyz
  'x, y, z'

loop_
  _atom_site_type_symbol
  _atom_site_label
  _atom_site_symmetry_multiplicity
  _atom_site_fract_x
  _atom_site_fract_y
  _atom_site_fract_z
  _atom_site_occupancy
  Cl  Cl1       1.0  0.77400  0.25000  0.04450  1.0000
  Cl  Cl2       1.0  0.11400  0.25000  0.07100  1.0000
  Cl  Cl3       1.0  0.42700  0.50100  0.17900  1.0000
  Cl  Cl4       1.0  0.42700  0.99900  0.17900  1.0000
  Cl  Cl5       1.0  0.92700  0.50100  0.32100  1.0000
  Cl  Cl6       1.0  0.92700  0.99900  0.32100  1.0000
  Cl  Cl7       1.0  0.61400  0.25000  0.42900  1.0000
  Cl  Cl8       1.0  0.27400  0.25000  0.45600  1.0000
  Cl  Cl9       1.0  0.72600  0.75000  0.54400  1.0000
  Cl  Cl10      1.0  0.38600  0.75000  0.57100  1.0000
  Cl  Cl11      1.0  0.07300  0.00097  0.67900  1.0000
  Cl  Cl12      1.0  0.07300  0.49900  0.67900  1.0000
  Cl  Cl13      1.0  0.57300  0.00097  0.82100  1.0000
  Cl  Cl14      1.0  0.57300  0.49900  0.82100  1.0000
  Cl  Cl15      1.0  0.88600  0.75000  0.92900  1.0000
  Cl  Cl16      1.0  0.22600  0.75000  0.95600  1.0000
  Ga  Ga1       1.0  0.93700  0.25000  0.18300  1.0000
  Ga  Ga2       1.0  0.43700  0.25000  0.31700  1.0000
  Ga  Ga3       1.0  0.56300  0.75000  0.68300  1.0000
  Ga  Ga4       1.0  0.06320  0.75000  0.81700  1.0000
  Tl  Tl1       1.0  0.68900  0.75000  0.19600  1.0000
  Tl  Tl2       1.0  0.18900  0.75000  0.30400  1.0000
  Tl  Tl3       1.0  0.81100  0.25000  0.69600  1.0000
  Tl  Tl4       1.0  0.31100  0.25000  0.80400  1.0000
