data_image0
_chemical_formula_structural       Cl16O4Os4
_chemical_formula_sum              "Cl16 O4 Os4"
_cell_length_a       9.59259
_cell_length_b       5.69947
_cell_length_c       12.0717
_cell_angle_alpha    90
_cell_angle_beta     110.23
_cell_angle_gamma    90

_space_group_name_H-M_alt    "P 1"
_space_group_IT_number       1

loop_
  _space_group_symop_operation_xyz
  'x, y, z'

loop_
  _atom_site_type_symbol
  _atom_site_label
  _atom_site_symmetry_multiplicity
  _atom_site_fract_x
  _atom_site_fract_y
  _atom_site_fract_z
  _atom_site_occupancy
  Cl  Cl1       1.0  0.45400  0.25000  0.08700  1.0000
  Cl  Cl2       1.0  0.27000  0.68000  0.10700  1.0000
  Cl  Cl3       1.0  0.89300  0.32600  0.16000  1.0000
  Cl  Cl4       1.0  0.70300  0.74700  0.18000  1.0000
  Cl  Cl5       1.0  0.29700  0.24700  0.32000  1.0000
  Cl  Cl6       1.0  0.10700  0.82600  0.34000  1.0000
  Cl  Cl7       1.0  0.73000  0.18000  0.39300  1.0000
  Cl  Cl8       1.0  0.54600  0.75000  0.41300  1.0000
  Cl  Cl9       1.0  0.45400  0.25000  0.58700  1.0000
  Cl  Cl10      1.0  0.27000  0.82000  0.60700  1.0000
  Cl  Cl11      1.0  0.89300  0.17400  0.66000  1.0000
  Cl  Cl12      1.0  0.70300  0.75300  0.68000  1.0000
  Cl  Cl13      1.0  0.29700  0.25300  0.82000  1.0000
  Cl  Cl14      1.0  0.10700  0.67400  0.84000  1.0000
  Cl  Cl15      1.0  0.73000  0.32000  0.89300  1.0000
  Cl  Cl16      1.0  0.54600  0.75000  0.91300  1.0000
  O   O1        1.0  0.90000  0.79300  0.01370  1.0000
  O   O2        1.0  0.09970  0.29300  0.48600  1.0000
  O   O3        1.0  0.90000  0.70700  0.51400  1.0000
  O   O4        1.0  0.09970  0.20700  0.98600  1.0000
  Os  Os1       1.0  0.77100  0.61100  0.02990  1.0000
  Os  Os2       1.0  0.22900  0.11100  0.47000  1.0000
  Os  Os3       1.0  0.77100  0.88900  0.53000  1.0000
  Os  Os4       1.0  0.22900  0.38900  0.97000  1.0000
