data_image0
_chemical_formula_structural       Au3F18K3
_chemical_formula_sum              "Au3 F18 K3"
_cell_length_a       7.25855
_cell_length_b       7.2586
_cell_length_c       7.012
_cell_angle_alpha    90
_cell_angle_beta     90.0001
_cell_angle_gamma    120

_space_group_name_H-M_alt    "P 1"
_space_group_IT_number       1

loop_
  _space_group_symop_operation_xyz
  'x, y, z'

loop_
  _atom_site_type_symbol
  _atom_site_label
  _atom_site_symmetry_multiplicity
  _atom_site_fract_x
  _atom_site_fract_y
  _atom_site_fract_z
  _atom_site_occupancy
  Au  Au1       1.0  0.00000  0.00000  0.00000  1.0000
  Au  Au2       1.0  0.66700  0.33300  0.33300  1.0000
  Au  Au3       1.0  0.33300  0.66700  0.66700  1.0000
  F   F1        1.0  0.54500  0.09010  0.16500  1.0000
  F   F2        1.0  0.54500  0.45500  0.16500  1.0000
  F   F3        1.0  0.91000  0.45500  0.16500  1.0000
  F   F4        1.0  0.12200  0.24300  0.16900  1.0000
  F   F5        1.0  0.12200  0.87800  0.16900  1.0000
  F   F6        1.0  0.75700  0.87800  0.16900  1.0000
  F   F7        1.0  0.21200  0.42300  0.49800  1.0000
  F   F8        1.0  0.21200  0.78800  0.49800  1.0000
  F   F9        1.0  0.57700  0.78800  0.49800  1.0000
  F   F10       1.0  0.42300  0.21200  0.50200  1.0000
  F   F11       1.0  0.78800  0.21200  0.50200  1.0000
  F   F12       1.0  0.78800  0.57700  0.50200  1.0000
  F   F13       1.0  0.24300  0.12200  0.83100  1.0000
  F   F14       1.0  0.87800  0.12200  0.83100  1.0000
  F   F15       1.0  0.87800  0.75700  0.83100  1.0000
  F   F16       1.0  0.09010  0.54500  0.83500  1.0000
  F   F17       1.0  0.45500  0.54500  0.83500  1.0000
  F   F18       1.0  0.45500  0.91000  0.83500  1.0000
  K   K1        1.0  0.33300  0.66700  0.16700  1.0000
  K   K2        1.0  0.00000  0.00000  0.50000  1.0000
  K   K3        1.0  0.66700  0.33300  0.83300  1.0000
