data_image0
_chemical_formula_structural       Br2CoH12O6
_chemical_formula_sum              "Br2 Co1 H12 O6"
_cell_length_a       6.3948
_cell_length_b       6.3948
_cell_length_c       6.63699
_cell_angle_alpha    117.331
_cell_angle_beta     96.3857
_cell_angle_gamma    114.082

_space_group_name_H-M_alt    "P 1"
_space_group_IT_number       1

loop_
  _space_group_symop_operation_xyz
  'x, y, z'

loop_
  _atom_site_type_symbol
  _atom_site_label
  _atom_site_symmetry_multiplicity
  _atom_site_fract_x
  _atom_site_fract_y
  _atom_site_fract_z
  _atom_site_occupancy
  Br  Br1       1.0  0.29100  0.88800  0.17900  1.0000
  Br  Br2       1.0  0.70900  0.11200  0.82100  1.0000
  Co  Co1       1.0  0.00000  0.00000  0.00000  1.0000
  H   H1        1.0  0.73300  0.43700  0.16900  1.0000
  H   H2        1.0  0.68600  0.00712  0.23000  1.0000
  H   H3        1.0  0.22300  0.54400  0.23000  1.0000
  H   H4        1.0  0.42600  0.47400  0.27900  1.0000
  H   H5        1.0  0.80600  0.85300  0.27900  1.0000
  H   H6        1.0  0.81900  0.63900  0.45800  1.0000
  H   H7        1.0  0.18100  0.36100  0.54200  1.0000
  H   H8        1.0  0.19400  0.14700  0.72100  1.0000
  H   H9        1.0  0.57400  0.52600  0.72100  1.0000
  H   H10       1.0  0.77700  0.45600  0.77000  1.0000
  H   H11       1.0  0.31400  0.99300  0.77000  1.0000
  H   H12       1.0  0.26700  0.56300  0.83100  1.0000
  O   O1        1.0  0.84200  0.00792  0.25600  1.0000
  O   O2        1.0  0.24800  0.41500  0.25600  1.0000
  O   O3        1.0  0.71600  0.58300  0.30000  1.0000
  O   O4        1.0  0.28400  0.41700  0.70000  1.0000
  O   O5        1.0  0.75200  0.58500  0.74400  1.0000
  O   O6        1.0  0.15800  0.99200  0.74400  1.0000
