data_image0
_chemical_formula_structural       O16P4Sn2Sr2
_chemical_formula_sum              "O16 P4 Sn2 Sr2"
_cell_length_a       5.24009
_cell_length_b       8.04285
_cell_length_c       8.68054
_cell_angle_alpha    114.448
_cell_angle_beta     107.568
_cell_angle_gamma    90

_space_group_name_H-M_alt    "P 1"
_space_group_IT_number       1

loop_
  _space_group_symop_operation_xyz
  'x, y, z'

loop_
  _atom_site_type_symbol
  _atom_site_label
  _atom_site_symmetry_multiplicity
  _atom_site_fract_x
  _atom_site_fract_y
  _atom_site_fract_z
  _atom_site_occupancy
  O   O1        1.0  0.27200  0.59800  0.09670  1.0000
  O   O2        1.0  0.82400  0.09790  0.09670  1.0000
  O   O3        1.0  0.65900  0.85700  0.27900  1.0000
  O   O4        1.0  0.62000  0.35700  0.27900  1.0000
  O   O5        1.0  0.19400  0.89900  0.31000  1.0000
  O   O6        1.0  0.11600  0.39900  0.31000  1.0000
  O   O7        1.0  0.49200  0.71900  0.44500  1.0000
  O   O8        1.0  0.95300  0.21900  0.44500  1.0000
  O   O9        1.0  0.04690  0.78100  0.55500  1.0000
  O   O10       1.0  0.50800  0.28100  0.55500  1.0000
  O   O11       1.0  0.88400  0.60100  0.69000  1.0000
  O   O12       1.0  0.80600  0.10100  0.69000  1.0000
  O   O13       1.0  0.38000  0.64300  0.72100  1.0000
  O   O14       1.0  0.34100  0.14300  0.72100  1.0000
  O   O15       1.0  0.17600  0.90200  0.90300  1.0000
  O   O16       1.0  0.72800  0.40200  0.90300  1.0000
  P   P1        1.0  0.40100  0.75800  0.27900  1.0000
  P   P2        1.0  0.87800  0.25800  0.27900  1.0000
  P   P3        1.0  0.12200  0.74200  0.72100  1.0000
  P   P4        1.0  0.59900  0.24200  0.72100  1.0000
  Sn  Sn1       1.0  0.00000  0.00000  0.50000  1.0000
  Sn  Sn2       1.0  0.50000  0.50000  0.50000  1.0000
  Sr  Sr1       1.0  0.18600  0.25000  0.00000  1.0000
  Sr  Sr2       1.0  0.81400  0.75000  0.00000  1.0000
