data_image0
_chemical_formula_structural       Lu10Rh6
_chemical_formula_sum              "Lu10 Rh6"
_cell_length_a       8.08604
_cell_length_b       8.08604
_cell_length_c       6.12607
_cell_angle_alpha    90
_cell_angle_beta     90
_cell_angle_gamma    119.999

_space_group_name_H-M_alt    "P 1"
_space_group_IT_number       1

loop_
  _space_group_symop_operation_xyz
  'x, y, z'

loop_
  _atom_site_type_symbol
  _atom_site_label
  _atom_site_symmetry_multiplicity
  _atom_site_fract_x
  _atom_site_fract_y
  _atom_site_fract_z
  _atom_site_occupancy
  Lu  Lu1       1.0  0.66700  0.33300  0.00000  1.0000
  Lu  Lu2       1.0  0.33300  0.66700  0.00000  1.0000
  Lu  Lu3       1.0  0.74900  0.74900  0.25000  1.0000
  Lu  Lu4       1.0  0.25100  0.00000  0.25000  1.0000
  Lu  Lu5       1.0  0.00000  0.25100  0.25000  1.0000
  Lu  Lu6       1.0  0.66700  0.33300  0.50000  1.0000
  Lu  Lu7       1.0  0.33300  0.66700  0.50000  1.0000
  Lu  Lu8       1.0  0.25100  0.25100  0.75000  1.0000
  Lu  Lu9       1.0  0.74900  0.00000  0.75000  1.0000
  Lu  Lu10      1.0  0.00000  0.74900  0.75000  1.0000
  Rh  Rh1       1.0  0.60300  0.00000  0.25000  1.0000
  Rh  Rh2       1.0  0.00000  0.60300  0.25000  1.0000
  Rh  Rh3       1.0  0.39700  0.39700  0.25000  1.0000
  Rh  Rh4       1.0  0.39700  0.00000  0.75000  1.0000
  Rh  Rh5       1.0  0.00000  0.39700  0.75000  1.0000
  Rh  Rh6       1.0  0.60300  0.60300  0.75000  1.0000
