data_image0
_chemical_formula_structural       Al4Br16Tl4
_chemical_formula_sum              "Al4 Br16 Tl4"
_cell_length_a       9.01293
_cell_length_b       7.48442
_cell_length_c       13.1882
_cell_angle_alpha    90
_cell_angle_beta     105.885
_cell_angle_gamma    90

_space_group_name_H-M_alt    "P 1"
_space_group_IT_number       1

loop_
  _space_group_symop_operation_xyz
  'x, y, z'

loop_
  _atom_site_type_symbol
  _atom_site_label
  _atom_site_symmetry_multiplicity
  _atom_site_fract_x
  _atom_site_fract_y
  _atom_site_fract_z
  _atom_site_occupancy
  Al  Al1       1.0  0.28600  0.21600  0.04650  1.0000
  Al  Al2       1.0  0.71400  0.21600  0.45300  1.0000
  Al  Al3       1.0  0.28600  0.78400  0.54700  1.0000
  Al  Al4       1.0  0.71400  0.78400  0.95300  1.0000
  Br  Br1       1.0  0.21900  0.93100  0.08850  1.0000
  Br  Br2       1.0  0.54900  0.26800  0.10300  1.0000
  Br  Br3       1.0  0.15900  0.42400  0.12500  1.0000
  Br  Br4       1.0  0.79600  0.74700  0.13600  1.0000
  Br  Br5       1.0  0.20400  0.74700  0.36400  1.0000
  Br  Br6       1.0  0.84100  0.42400  0.37500  1.0000
  Br  Br7       1.0  0.45100  0.26800  0.39700  1.0000
  Br  Br8       1.0  0.78100  0.93100  0.41100  1.0000
  Br  Br9       1.0  0.21900  0.06920  0.58900  1.0000
  Br  Br10      1.0  0.54900  0.73200  0.60300  1.0000
  Br  Br11      1.0  0.15900  0.57600  0.62500  1.0000
  Br  Br12      1.0  0.79600  0.25300  0.63600  1.0000
  Br  Br13      1.0  0.20400  0.25300  0.86400  1.0000
  Br  Br14      1.0  0.84100  0.57600  0.87500  1.0000
  Br  Br15      1.0  0.45100  0.73200  0.89700  1.0000
  Br  Br16      1.0  0.78100  0.06920  0.91100  1.0000
  Tl  Tl1       1.0  0.50000  0.63000  0.25000  1.0000
  Tl  Tl2       1.0  0.00000  0.10100  0.25000  1.0000
  Tl  Tl3       1.0  0.00000  0.89900  0.75000  1.0000
  Tl  Tl4       1.0  0.50000  0.37000  0.75000  1.0000
