data_image0
_chemical_formula_structural       Cl4O12Se4Sm4
_chemical_formula_sum              "Cl4 O12 Se4 Sm4"
_cell_length_a       7.18717
_cell_length_b       7.09864
_cell_length_c       8.96486
_cell_angle_alpha    90
_cell_angle_beta     90
_cell_angle_gamma    90

_space_group_name_H-M_alt    "P 1"
_space_group_IT_number       1

loop_
  _space_group_symop_operation_xyz
  'x, y, z'

loop_
  _atom_site_type_symbol
  _atom_site_label
  _atom_site_symmetry_multiplicity
  _atom_site_fract_x
  _atom_site_fract_y
  _atom_site_fract_z
  _atom_site_occupancy
  Cl  Cl1       1.0  0.95900  0.25000  0.17500  1.0000
  Cl  Cl2       1.0  0.45900  0.25000  0.32500  1.0000
  Cl  Cl3       1.0  0.54100  0.75000  0.67500  1.0000
  Cl  Cl4       1.0  0.04150  0.75000  0.82500  1.0000
  O   O1        1.0  0.65000  0.57400  0.06490  1.0000
  O   O2        1.0  0.65000  0.92600  0.06490  1.0000
  O   O3        1.0  0.24500  0.75000  0.18300  1.0000
  O   O4        1.0  0.74500  0.75000  0.31700  1.0000
  O   O5        1.0  0.15000  0.57400  0.43500  1.0000
  O   O6        1.0  0.15000  0.92600  0.43500  1.0000
  O   O7        1.0  0.85000  0.07370  0.56500  1.0000
  O   O8        1.0  0.85000  0.42600  0.56500  1.0000
  O   O9        1.0  0.25500  0.25000  0.68300  1.0000
  O   O10       1.0  0.75500  0.25000  0.81700  1.0000
  O   O11       1.0  0.35000  0.07370  0.93500  1.0000
  O   O12       1.0  0.35000  0.42600  0.93500  1.0000
  Se  Se1       1.0  0.79800  0.75000  0.13300  1.0000
  Se  Se2       1.0  0.29800  0.75000  0.36700  1.0000
  Se  Se3       1.0  0.70200  0.25000  0.63300  1.0000
  Se  Se4       1.0  0.20200  0.25000  0.86700  1.0000
  Sm  Sm1       1.0  0.60800  0.25000  0.04120  1.0000
  Sm  Sm2       1.0  0.10800  0.25000  0.45900  1.0000
  Sm  Sm3       1.0  0.89200  0.75000  0.54100  1.0000
  Sm  Sm4       1.0  0.39200  0.75000  0.95900  1.0000
