data_image0
_chemical_formula_structural       O16Pr4Ta4
_chemical_formula_sum              "O16 Pr4 Ta4"
_cell_length_a       7.58753
_cell_length_b       5.51259
_cell_length_c       7.74732
_cell_angle_alpha    90
_cell_angle_beta     100.282
_cell_angle_gamma    90

_space_group_name_H-M_alt    "P 1"
_space_group_IT_number       1

loop_
  _space_group_symop_operation_xyz
  'x, y, z'

loop_
  _atom_site_type_symbol
  _atom_site_label
  _atom_site_symmetry_multiplicity
  _atom_site_fract_x
  _atom_site_fract_y
  _atom_site_fract_z
  _atom_site_occupancy
  O   O1        1.0  0.16500  0.15200  0.05520  1.0000
  O   O2        1.0  0.66500  0.51000  0.13100  1.0000
  O   O3        1.0  0.61600  0.98700  0.16800  1.0000
  O   O4        1.0  0.05960  0.59200  0.20100  1.0000
  O   O5        1.0  0.94000  0.09220  0.29900  1.0000
  O   O6        1.0  0.38400  0.48700  0.33200  1.0000
  O   O7        1.0  0.33500  0.01010  0.36900  1.0000
  O   O8        1.0  0.83500  0.65200  0.44500  1.0000
  O   O9        1.0  0.16500  0.34800  0.55500  1.0000
  O   O10       1.0  0.66500  0.99000  0.63100  1.0000
  O   O11       1.0  0.61600  0.51300  0.66800  1.0000
  O   O12       1.0  0.05960  0.90800  0.70100  1.0000
  O   O13       1.0  0.94000  0.40800  0.79900  1.0000
  O   O14       1.0  0.38400  0.01290  0.83200  1.0000
  O   O15       1.0  0.33500  0.49000  0.86900  1.0000
  O   O16       1.0  0.83500  0.84800  0.94500  1.0000
  Pr  Pr1       1.0  0.34600  0.77600  0.09910  1.0000
  Pr  Pr2       1.0  0.65400  0.27600  0.40100  1.0000
  Pr  Pr3       1.0  0.34600  0.72400  0.59900  1.0000
  Pr  Pr4       1.0  0.65400  0.22400  0.90100  1.0000
  Ta  Ta1       1.0  0.83400  0.76800  0.19700  1.0000
  Ta  Ta2       1.0  0.16600  0.26800  0.30300  1.0000
  Ta  Ta3       1.0  0.83400  0.73200  0.69700  1.0000
  Ta  Ta4       1.0  0.16600  0.23200  0.80300  1.0000
