data_image0
_chemical_formula_structural       Cu4Pr4Se12Sr4
_chemical_formula_sum              "Cu4 Pr4 Se12 Sr4"
_cell_length_a       11.0844
_cell_length_b       4.17331
_cell_length_c       13.5826
_cell_angle_alpha    90
_cell_angle_beta     90
_cell_angle_gamma    90

_space_group_name_H-M_alt    "P 1"
_space_group_IT_number       1

loop_
  _space_group_symop_operation_xyz
  'x, y, z'

loop_
  _atom_site_type_symbol
  _atom_site_label
  _atom_site_symmetry_multiplicity
  _atom_site_fract_x
  _atom_site_fract_y
  _atom_site_fract_z
  _atom_site_occupancy
  Cu  Cu1       1.0  0.26400  0.75000  0.22200  1.0000
  Cu  Cu2       1.0  0.76400  0.75000  0.27800  1.0000
  Cu  Cu3       1.0  0.23600  0.25000  0.72200  1.0000
  Cu  Cu4       1.0  0.73600  0.25000  0.77800  1.0000
  Pr  Pr1       1.0  0.01690  0.25000  0.23700  1.0000
  Pr  Pr2       1.0  0.51700  0.25000  0.26300  1.0000
  Pr  Pr3       1.0  0.48300  0.75000  0.73700  1.0000
  Pr  Pr4       1.0  0.98300  0.75000  0.76300  1.0000
  Se  Se1       1.0  0.10000  0.75000  0.09940  1.0000
  Se  Se2       1.0  0.44700  0.75000  0.11500  1.0000
  Se  Se3       1.0  0.76000  0.25000  0.17100  1.0000
  Se  Se4       1.0  0.26000  0.25000  0.32900  1.0000
  Se  Se5       1.0  0.94700  0.75000  0.38500  1.0000
  Se  Se6       1.0  0.60000  0.75000  0.40100  1.0000
  Se  Se7       1.0  0.40000  0.25000  0.59900  1.0000
  Se  Se8       1.0  0.05310  0.25000  0.61500  1.0000
  Se  Se9       1.0  0.74000  0.75000  0.67100  1.0000
  Se  Se10      1.0  0.24000  0.75000  0.82900  1.0000
  Se  Se11      1.0  0.55300  0.25000  0.88500  1.0000
  Se  Se12      1.0  0.90000  0.25000  0.90100  1.0000
  Sr  Sr1       1.0  0.71700  0.75000  0.00037  1.0000
  Sr  Sr2       1.0  0.21700  0.75000  0.50000  1.0000
  Sr  Sr3       1.0  0.78300  0.25000  0.50000  1.0000
  Sr  Sr4       1.0  0.28300  0.25000  0.00000  1.0000
