data_image0
_chemical_formula_structural       C4F6Li2N8Pr4
_chemical_formula_sum              "C4 F6 Li2 N8 Pr4"
_cell_length_a       6.50379
_cell_length_b       6.62867
_cell_length_c       8.38826
_cell_angle_alpha    111.357
_cell_angle_beta     90
_cell_angle_gamma    119.379

_space_group_name_H-M_alt    "P 1"
_space_group_IT_number       1

loop_
  _space_group_symop_operation_xyz
  'x, y, z'

loop_
  _atom_site_type_symbol
  _atom_site_label
  _atom_site_symmetry_multiplicity
  _atom_site_fract_x
  _atom_site_fract_y
  _atom_site_fract_z
  _atom_site_occupancy
  C   C1        1.0  0.22500  0.95200  0.04640  1.0000
  C   C2        1.0  0.27400  0.04820  0.45400  1.0000
  C   C3        1.0  0.72600  0.95200  0.54600  1.0000
  C   C4        1.0  0.77500  0.04820  0.95400  1.0000
  F   F1        1.0  0.69300  0.62900  0.13500  1.0000
  F   F2        1.0  0.60400  0.00000  0.25000  1.0000
  F   F3        1.0  0.06450  0.37100  0.36500  1.0000
  F   F4        1.0  0.93600  0.62900  0.63500  1.0000
  F   F5        1.0  0.39600  0.00000  0.75000  1.0000
  F   F6        1.0  0.30700  0.37100  0.86500  1.0000
  Li  Li1       1.0  0.91000  0.00000  0.25000  1.0000
  Li  Li2       1.0  0.09020  0.00000  0.75000  1.0000
  N   N1        1.0  0.83700  0.27500  0.03700  1.0000
  N   N2        1.0  0.28600  0.17400  0.13300  1.0000
  N   N3        1.0  0.11300  0.82600  0.36700  1.0000
  N   N4        1.0  0.56300  0.72500  0.46300  1.0000
  N   N5        1.0  0.43700  0.27500  0.53700  1.0000
  N   N6        1.0  0.88700  0.17400  0.63300  1.0000
  N   N7        1.0  0.71400  0.82600  0.86700  1.0000
  N   N8        1.0  0.16300  0.72500  0.96300  1.0000
  Pr  Pr1       1.0  0.29000  0.57400  0.16800  1.0000
  Pr  Pr2       1.0  0.71600  0.42600  0.33200  1.0000
  Pr  Pr3       1.0  0.28400  0.57400  0.66800  1.0000
  Pr  Pr4       1.0  0.71000  0.42600  0.83200  1.0000
