data_image0
_chemical_formula_structural       Gd16In4Rh4
_chemical_formula_sum              "Gd16 In4 Rh4"
_cell_length_a       9.73296
_cell_length_b       9.73296
_cell_length_c       9.73296
_cell_angle_alpha    120
_cell_angle_beta     90
_cell_angle_gamma    120

_space_group_name_H-M_alt    "P 1"
_space_group_IT_number       1

loop_
  _space_group_symop_operation_xyz
  'x, y, z'

loop_
  _atom_site_type_symbol
  _atom_site_label
  _atom_site_symmetry_multiplicity
  _atom_site_fract_x
  _atom_site_fract_y
  _atom_site_fract_z
  _atom_site_occupancy
  Gd  Gd1       1.0  0.81000  0.00000  0.19000  1.0000
  Gd  Gd2       1.0  0.19000  0.00000  0.19000  1.0000
  Gd  Gd3       1.0  0.19000  0.38000  0.19000  1.0000
  Gd  Gd4       1.0  0.65100  0.30100  0.34900  1.0000
  Gd  Gd5       1.0  0.04840  0.69900  0.34900  1.0000
  Gd  Gd6       1.0  0.65100  0.69900  0.34900  1.0000
  Gd  Gd7       1.0  0.06210  0.12400  0.56200  1.0000
  Gd  Gd8       1.0  0.06210  0.50000  0.56200  1.0000
  Gd  Gd9       1.0  0.43800  0.50000  0.56200  1.0000
  Gd  Gd10      1.0  0.19000  0.00000  0.81000  1.0000
  Gd  Gd11      1.0  0.81000  0.62000  0.81000  1.0000
  Gd  Gd12      1.0  0.81000  0.00000  0.81000  1.0000
  Gd  Gd13      1.0  0.06210  0.50000  0.93800  1.0000
  Gd  Gd14      1.0  0.43800  0.50000  0.93800  1.0000
  Gd  Gd15      1.0  0.43800  0.87600  0.93800  1.0000
  Gd  Gd16      1.0  0.65100  0.30100  0.95200  1.0000
  In  In1       1.0  0.41800  0.83600  0.25300  1.0000
  In  In2       1.0  0.41800  0.16400  0.58200  1.0000
  In  In3       1.0  0.41800  0.83600  0.58200  1.0000
  In  In4       1.0  0.74700  0.16400  0.58200  1.0000
  Rh  Rh1       1.0  0.42700  0.28400  0.14200  1.0000
  Rh  Rh2       1.0  0.85800  0.28400  0.14200  1.0000
  Rh  Rh3       1.0  0.85800  0.71600  0.14200  1.0000
  Rh  Rh4       1.0  0.85800  0.71600  0.57300  1.0000
