data_image0
_chemical_formula_structural       In4Ir4Tb16
_chemical_formula_sum              "In4 Ir4 Tb16"
_cell_length_a       9.69892
_cell_length_b       9.69892
_cell_length_c       9.69892
_cell_angle_alpha    120
_cell_angle_beta     90
_cell_angle_gamma    120

_space_group_name_H-M_alt    "P 1"
_space_group_IT_number       1

loop_
  _space_group_symop_operation_xyz
  'x, y, z'

loop_
  _atom_site_type_symbol
  _atom_site_label
  _atom_site_symmetry_multiplicity
  _atom_site_fract_x
  _atom_site_fract_y
  _atom_site_fract_z
  _atom_site_occupancy
  In  In1       1.0  0.41700  0.83500  0.25200  1.0000
  In  In2       1.0  0.74800  0.16500  0.58300  1.0000
  In  In3       1.0  0.41700  0.83500  0.58300  1.0000
  In  In4       1.0  0.41700  0.16500  0.58300  1.0000
  Ir  Ir1       1.0  0.42400  0.28300  0.14100  1.0000
  Ir  Ir2       1.0  0.85900  0.28300  0.14100  1.0000
  Ir  Ir3       1.0  0.85900  0.71700  0.14100  1.0000
  Ir  Ir4       1.0  0.85900  0.71700  0.57600  1.0000
  Tb  Tb1       1.0  0.80900  0.00000  0.19100  1.0000
  Tb  Tb2       1.0  0.19100  0.00000  0.19100  1.0000
  Tb  Tb3       1.0  0.19100  0.38200  0.19100  1.0000
  Tb  Tb4       1.0  0.65100  0.30200  0.34900  1.0000
  Tb  Tb5       1.0  0.04720  0.69800  0.34900  1.0000
  Tb  Tb6       1.0  0.65100  0.69800  0.34900  1.0000
  Tb  Tb7       1.0  0.06020  0.12000  0.56000  1.0000
  Tb  Tb8       1.0  0.06020  0.50000  0.56000  1.0000
  Tb  Tb9       1.0  0.44000  0.50000  0.56000  1.0000
  Tb  Tb10      1.0  0.80900  1.00000  0.80900  1.0000
  Tb  Tb11      1.0  0.19100  1.00000  0.80900  1.0000
  Tb  Tb12      1.0  0.80900  0.61800  0.80900  1.0000
  Tb  Tb13      1.0  0.06020  0.50000  0.94000  1.0000
  Tb  Tb14      1.0  0.44000  0.50000  0.94000  1.0000
  Tb  Tb15      1.0  0.44000  0.88000  0.94000  1.0000
  Tb  Tb16      1.0  0.65100  0.30200  0.95300  1.0000
