data_image0
_chemical_formula_structural       Ag2Mo3O16Te3
_chemical_formula_sum              "Ag2 Mo3 O16 Te3"
_cell_length_a       7.35206
_cell_length_b       7.56423
_cell_length_c       7.56423
_cell_angle_alpha    95.2778
_cell_angle_beta     114.626
_cell_angle_gamma    114.626

_space_group_name_H-M_alt    "P 1"
_space_group_IT_number       1

loop_
  _space_group_symop_operation_xyz
  'x, y, z'

loop_
  _atom_site_type_symbol
  _atom_site_label
  _atom_site_symmetry_multiplicity
  _atom_site_fract_x
  _atom_site_fract_y
  _atom_site_fract_z
  _atom_site_occupancy
  Ag  Ag1       1.0  0.00000  0.52100  0.47900  1.0000
  Ag  Ag2       1.0  0.50000  0.08920  0.91100  1.0000
  Mo  Mo1       1.0  0.47900  0.06800  0.39500  1.0000
  Mo  Mo2       1.0  0.52100  0.60500  0.93200  1.0000
  Mo  Mo3       1.0  1.00000  0.00344  0.99700  1.0000
  O   O1        1.0  0.74500  0.47000  0.04980  1.0000
  O   O2        1.0  0.16500  0.82400  0.12200  1.0000
  O   O3        1.0  0.43200  0.53100  0.13300  1.0000
  O   O4        1.0  0.83500  0.87800  0.17600  1.0000
  O   O5        1.0  0.63200  0.14400  0.26200  1.0000
  O   O6        1.0  0.26800  0.18000  0.26400  1.0000
  O   O7        1.0  0.16000  0.50500  0.28600  1.0000
  O   O8        1.0  0.56800  0.86700  0.46900  1.0000
  O   O9        1.0  0.84000  0.71400  0.49500  1.0000
  O   O10       1.0  0.25500  0.95000  0.53000  1.0000
  O   O11       1.0  0.66300  0.28500  0.61500  1.0000
  O   O12       1.0  0.33700  0.38500  0.71500  1.0000
  O   O13       1.0  0.73200  0.73600  0.82000  1.0000
  O   O14       1.0  0.12800  0.04430  0.84000  1.0000
  O   O15       1.0  0.36800  0.73800  0.85600  1.0000
  O   O16       1.0  0.87200  0.16000  0.95600  1.0000
  Te  Te1       1.0  0.00000  0.52500  0.01400  1.0000
  Te  Te2       1.0  0.50000  0.58000  0.42000  1.0000
  Te  Te3       1.0  0.00000  0.98600  0.47500  1.0000
