data_image0
_chemical_formula_structural       Al4Ge12Yb8
_chemical_formula_sum              "Al4 Ge12 Yb8"
_cell_length_a       6.93469
_cell_length_b       4.1853
_cell_length_c       18.3199
_cell_angle_alpha    90
_cell_angle_beta     90
_cell_angle_gamma    90

_space_group_name_H-M_alt    "P 1"
_space_group_IT_number       1

loop_
  _space_group_symop_operation_xyz
  'x, y, z'

loop_
  _atom_site_type_symbol
  _atom_site_label
  _atom_site_symmetry_multiplicity
  _atom_site_fract_x
  _atom_site_fract_y
  _atom_site_fract_z
  _atom_site_occupancy
  Al  Al1       1.0  0.03610  0.25000  0.06040  1.0000
  Al  Al2       1.0  0.53600  0.25000  0.44000  1.0000
  Al  Al3       1.0  0.46400  0.75000  0.56000  1.0000
  Al  Al4       1.0  0.96400  0.75000  0.94000  1.0000
  Ge  Ge1       1.0  0.24200  0.75000  0.03630  1.0000
  Ge  Ge2       1.0  0.50900  0.25000  0.18600  1.0000
  Ge  Ge3       1.0  0.87100  0.25000  0.18800  1.0000
  Ge  Ge4       1.0  0.37100  0.25000  0.31200  1.0000
  Ge  Ge5       1.0  0.00921  0.25000  0.31400  1.0000
  Ge  Ge6       1.0  0.74200  0.75000  0.46400  1.0000
  Ge  Ge7       1.0  0.25800  0.25000  0.53600  1.0000
  Ge  Ge8       1.0  0.99100  0.75000  0.68600  1.0000
  Ge  Ge9       1.0  0.62900  0.75000  0.68800  1.0000
  Ge  Ge10      1.0  0.12900  0.75000  0.81200  1.0000
  Ge  Ge11      1.0  0.49100  0.75000  0.81400  1.0000
  Ge  Ge12      1.0  0.75800  0.25000  0.96400  1.0000
  Yb  Yb1       1.0  0.66400  0.75000  0.07990  1.0000
  Yb  Yb2       1.0  0.19100  0.75000  0.20100  1.0000
  Yb  Yb3       1.0  0.69100  0.75000  0.29900  1.0000
  Yb  Yb4       1.0  0.16400  0.75000  0.42000  1.0000
  Yb  Yb5       1.0  0.83600  0.25000  0.58000  1.0000
  Yb  Yb6       1.0  0.30900  0.25000  0.70100  1.0000
  Yb  Yb7       1.0  0.80900  0.25000  0.79900  1.0000
  Yb  Yb8       1.0  0.33600  0.25000  0.92000  1.0000
