data_image0
_chemical_formula_structural       Cu4Gd4Se12Sr4
_chemical_formula_sum              "Cu4 Gd4 Se12 Sr4"
_cell_length_a       10.7332
_cell_length_b       4.10732
_cell_length_c       13.599
_cell_angle_alpha    90
_cell_angle_beta     90
_cell_angle_gamma    90

_space_group_name_H-M_alt    "P 1"
_space_group_IT_number       1

loop_
  _space_group_symop_operation_xyz
  'x, y, z'

loop_
  _atom_site_type_symbol
  _atom_site_label
  _atom_site_symmetry_multiplicity
  _atom_site_fract_x
  _atom_site_fract_y
  _atom_site_fract_z
  _atom_site_occupancy
  Cu  Cu1       1.0  0.26000  0.75000  0.22200  1.0000
  Cu  Cu2       1.0  0.76000  0.75000  0.27800  1.0000
  Cu  Cu3       1.0  0.24000  0.25000  0.72200  1.0000
  Cu  Cu4       1.0  0.74000  0.25000  0.77800  1.0000
  Gd  Gd1       1.0  0.01310  0.25000  0.24400  1.0000
  Gd  Gd2       1.0  0.51300  0.25000  0.25600  1.0000
  Gd  Gd3       1.0  0.48700  0.75000  0.74400  1.0000
  Gd  Gd4       1.0  0.98700  0.75000  0.75600  1.0000
  Se  Se1       1.0  0.08370  0.75000  0.10600  1.0000
  Se  Se2       1.0  0.44600  0.75000  0.11400  1.0000
  Se  Se3       1.0  0.76000  0.25000  0.17100  1.0000
  Se  Se4       1.0  0.26000  0.25000  0.32900  1.0000
  Se  Se5       1.0  0.94600  0.75000  0.38600  1.0000
  Se  Se6       1.0  0.58400  0.75000  0.39400  1.0000
  Se  Se7       1.0  0.41600  0.25000  0.60600  1.0000
  Se  Se8       1.0  0.05440  0.25000  0.61400  1.0000
  Se  Se9       1.0  0.74000  0.75000  0.67100  1.0000
  Se  Se10      1.0  0.24000  0.75000  0.82900  1.0000
  Se  Se11      1.0  0.55400  0.25000  0.88600  1.0000
  Se  Se12      1.0  0.91600  0.25000  0.89400  1.0000
  Sr  Sr1       1.0  0.26900  0.25000  0.00106  1.0000
  Sr  Sr2       1.0  0.76900  0.25000  0.49900  1.0000
  Sr  Sr3       1.0  0.23100  0.75000  0.50100  1.0000
  Sr  Sr4       1.0  0.73100  0.75000  0.99900  1.0000
