data_image0
_chemical_formula_structural       Eu8N12Si4
_chemical_formula_sum              "Eu8 N12 Si4"
_cell_length_a       5.40563
_cell_length_b       5.95392
_cell_length_c       11.7423
_cell_angle_alpha    90
_cell_angle_beta     90
_cell_angle_gamma    63.0023

_space_group_name_H-M_alt    "P 1"
_space_group_IT_number       1

loop_
  _space_group_symop_operation_xyz
  'x, y, z'

loop_
  _atom_site_type_symbol
  _atom_site_label
  _atom_site_symmetry_multiplicity
  _atom_site_fract_x
  _atom_site_fract_y
  _atom_site_fract_z
  _atom_site_occupancy
  Eu  Eu1       1.0  0.64100  0.71700  0.07620  1.0000
  Eu  Eu2       1.0  0.94500  0.11100  0.14300  1.0000
  Eu  Eu3       1.0  0.44500  0.11100  0.35700  1.0000
  Eu  Eu4       1.0  0.14100  0.71700  0.42400  1.0000
  Eu  Eu5       1.0  0.85900  0.28300  0.57600  1.0000
  Eu  Eu6       1.0  0.55500  0.88900  0.64300  1.0000
  Eu  Eu7       1.0  0.05540  0.88900  0.85700  1.0000
  Eu  Eu8       1.0  0.35900  0.28300  0.92400  1.0000
  N   N1        1.0  0.15600  0.68800  0.04920  1.0000
  N   N2        1.0  0.41800  0.16500  0.13200  1.0000
  N   N3        1.0  0.47900  0.54200  0.25000  1.0000
  N   N4        1.0  0.97900  0.54200  0.25000  1.0000
  N   N5        1.0  0.91800  0.16500  0.36800  1.0000
  N   N6        1.0  0.65600  0.68800  0.45100  1.0000
  N   N7        1.0  0.34400  0.31200  0.54900  1.0000
  N   N8        1.0  0.08230  0.83500  0.63200  1.0000
  N   N9        1.0  0.02120  0.45800  0.75000  1.0000
  N   N10       1.0  0.52100  0.45800  0.75000  1.0000
  N   N11       1.0  0.58200  0.83500  0.86800  1.0000
  N   N12       1.0  0.84400  0.31200  0.95100  1.0000
  Si  Si1       1.0  0.25800  0.48500  0.16400  1.0000
  Si  Si2       1.0  0.75800  0.48500  0.33600  1.0000
  Si  Si3       1.0  0.24200  0.51500  0.66400  1.0000
  Si  Si4       1.0  0.74200  0.51500  0.83600  1.0000
