data_image0
_chemical_formula_structural       Er4F4O12Se4
_chemical_formula_sum              "Er4 F4 O12 Se4"
_cell_length_a       6.52091
_cell_length_b       6.78331
_cell_length_c       7.06054
_cell_angle_alpha    90
_cell_angle_beta     99.3587
_cell_angle_gamma    90

_space_group_name_H-M_alt    "P 1"
_space_group_IT_number       1

loop_
  _space_group_symop_operation_xyz
  'x, y, z'

loop_
  _atom_site_type_symbol
  _atom_site_label
  _atom_site_symmetry_multiplicity
  _atom_site_fract_x
  _atom_site_fract_y
  _atom_site_fract_z
  _atom_site_occupancy
  Er  Er1       1.0  0.86300  0.85900  0.17600  1.0000
  Er  Er2       1.0  0.13700  0.35900  0.32400  1.0000
  Er  Er3       1.0  0.86300  0.64100  0.67600  1.0000
  Er  Er4       1.0  0.13700  0.14100  0.82400  1.0000
  F   F1        1.0  0.17100  0.39100  0.02320  1.0000
  F   F2        1.0  0.82900  0.89100  0.47700  1.0000
  F   F3        1.0  0.17100  0.10900  0.52300  1.0000
  F   F4        1.0  0.82900  0.60900  0.97700  1.0000
  O   O1        1.0  0.51600  0.81100  0.13500  1.0000
  O   O2        1.0  0.17500  0.03660  0.14800  1.0000
  O   O3        1.0  0.82300  0.19500  0.21600  1.0000
  O   O4        1.0  0.17700  0.69500  0.28400  1.0000
  O   O5        1.0  0.82500  0.53700  0.35200  1.0000
  O   O6        1.0  0.48400  0.31100  0.36500  1.0000
  O   O7        1.0  0.51600  0.68900  0.63500  1.0000
  O   O8        1.0  0.17500  0.46300  0.64800  1.0000
  O   O9        1.0  0.82300  0.30500  0.71600  1.0000
  O   O10       1.0  0.17700  0.80500  0.78400  1.0000
  O   O11       1.0  0.82500  0.96300  0.85200  1.0000
  O   O12       1.0  0.48400  0.18900  0.86500  1.0000
  Se  Se1       1.0  0.64200  0.38300  0.20700  1.0000
  Se  Se2       1.0  0.35800  0.88300  0.29300  1.0000
  Se  Se3       1.0  0.64200  0.11700  0.70700  1.0000
  Se  Se4       1.0  0.35800  0.61700  0.79300  1.0000
