data_image0
_chemical_formula_structural       Ge2Li3O6
_chemical_formula_sum              "Ge2 Li3 O6"
_cell_length_a       4.96765
_cell_length_b       4.96765
_cell_length_c       5.01749
_cell_angle_alpha    100.248
_cell_angle_beta     100.248
_cell_angle_gamma    119.563

_space_group_name_H-M_alt    "P 1"
_space_group_IT_number       1

loop_
  _space_group_symop_operation_xyz
  'x, y, z'

loop_
  _atom_site_type_symbol
  _atom_site_label
  _atom_site_symmetry_multiplicity
  _atom_site_fract_x
  _atom_site_fract_y
  _atom_site_fract_z
  _atom_site_occupancy
  Ge  Ge1       1.0  0.82700  0.17300  0.00000  1.0000
  Ge  Ge2       1.0  0.16300  0.83700  0.00000  1.0000
  Li  Li1       1.0  0.50600  0.49400  0.00000  1.0000
  Li  Li2       1.0  0.34700  0.65300  0.50000  1.0000
  Li  Li3       1.0  0.00317  0.99700  0.50000  1.0000
  O   O1        1.0  0.57500  0.92500  0.21900  1.0000
  O   O2        1.0  0.93900  0.58600  0.22000  1.0000
  O   O3        1.0  0.21100  0.22100  0.22600  1.0000
  O   O4        1.0  0.77900  0.78900  0.77400  1.0000
  O   O5        1.0  0.41400  0.06080  0.78000  1.0000
  O   O6        1.0  0.07480  0.42500  0.78100  1.0000
