data_image0
_chemical_formula_structural       Cd4Co4Dy16
_chemical_formula_sum              "Cd4 Co4 Dy16"
_cell_length_a       9.46812
_cell_length_b       9.46812
_cell_length_c       9.46812
_cell_angle_alpha    120
_cell_angle_beta     90
_cell_angle_gamma    120

_space_group_name_H-M_alt    "P 1"
_space_group_IT_number       1

loop_
  _space_group_symop_operation_xyz
  'x, y, z'

loop_
  _atom_site_type_symbol
  _atom_site_label
  _atom_site_symmetry_multiplicity
  _atom_site_fract_x
  _atom_site_fract_y
  _atom_site_fract_z
  _atom_site_occupancy
  Cd  Cd1       1.0  0.41900  0.83900  0.25800  1.0000
  Cd  Cd2       1.0  0.41900  0.16100  0.58100  1.0000
  Cd  Cd3       1.0  0.74200  0.16100  0.58100  1.0000
  Cd  Cd4       1.0  0.41900  0.83900  0.58100  1.0000
  Co  Co1       1.0  0.42300  0.28200  0.14100  1.0000
  Co  Co2       1.0  0.85900  0.28200  0.14100  1.0000
  Co  Co3       1.0  0.85900  0.71800  0.14100  1.0000
  Co  Co4       1.0  0.85900  0.71800  0.57700  1.0000
  Dy  Dy1       1.0  0.18800  0.00000  0.18800  1.0000
  Dy  Dy2       1.0  0.18800  0.37700  0.18800  1.0000
  Dy  Dy3       1.0  0.81200  0.00000  0.18800  1.0000
  Dy  Dy4       1.0  0.65300  0.30700  0.34700  1.0000
  Dy  Dy5       1.0  0.03990  0.69300  0.34700  1.0000
  Dy  Dy6       1.0  0.65300  0.69300  0.34700  1.0000
  Dy  Dy7       1.0  0.06180  0.12400  0.56200  1.0000
  Dy  Dy8       1.0  0.06180  0.50000  0.56200  1.0000
  Dy  Dy9       1.0  0.43800  0.50000  0.56200  1.0000
  Dy  Dy10      1.0  0.18800  0.00000  0.81200  1.0000
  Dy  Dy11      1.0  0.81200  0.00000  0.81200  1.0000
  Dy  Dy12      1.0  0.81200  0.62300  0.81200  1.0000
  Dy  Dy13      1.0  0.06180  0.50000  0.93800  1.0000
  Dy  Dy14      1.0  0.43800  0.50000  0.93800  1.0000
  Dy  Dy15      1.0  0.43800  0.87600  0.93800  1.0000
  Dy  Dy16      1.0  0.65300  0.30700  0.96000  1.0000
