data_image0
_chemical_formula_structural       Ag2La6S14Sn2
_chemical_formula_sum              "Ag2 La6 S14 Sn2"
_cell_length_a       10.455
_cell_length_b       10.4549
_cell_length_c       6.0476
_cell_angle_alpha    90
_cell_angle_beta     90
_cell_angle_gamma    120

_space_group_name_H-M_alt    "P 1"
_space_group_IT_number       1

loop_
  _space_group_symop_operation_xyz
  'x, y, z'

loop_
  _atom_site_type_symbol
  _atom_site_label
  _atom_site_symmetry_multiplicity
  _atom_site_fract_x
  _atom_site_fract_y
  _atom_site_fract_z
  _atom_site_occupancy
  Ag  Ag1       1.0  0.00000  0.00000  0.00196  1.0000
  Ag  Ag2       1.0  0.00000  0.00000  0.50200  1.0000
  La  La1       1.0  0.64100  0.77300  0.08160  1.0000
  La  La2       1.0  0.13200  0.35900  0.08160  1.0000
  La  La3       1.0  0.22700  0.86800  0.08160  1.0000
  La  La4       1.0  0.35900  0.22700  0.58200  1.0000
  La  La5       1.0  0.77300  0.13200  0.58200  1.0000
  La  La6       1.0  0.86800  0.64100  0.58200  1.0000
  S   S1        1.0  0.83300  0.10100  0.05590  1.0000
  S   S2        1.0  0.89900  0.73200  0.05590  1.0000
  S   S3        1.0  0.26800  0.16700  0.05590  1.0000
  S   S4        1.0  0.33300  0.66700  0.26500  1.0000
  S   S5        1.0  0.51600  0.09310  0.32800  1.0000
  S   S6        1.0  0.57700  0.48400  0.32800  1.0000
  S   S7        1.0  0.90700  0.42300  0.32800  1.0000
  S   S8        1.0  0.16700  0.89900  0.55600  1.0000
  S   S9        1.0  0.10100  0.26800  0.55600  1.0000
  S   S10       1.0  0.73200  0.83300  0.55600  1.0000
  S   S11       1.0  0.66700  0.33300  0.76500  1.0000
  S   S12       1.0  0.48400  0.90700  0.82800  1.0000
  S   S13       1.0  0.42300  0.51600  0.82800  1.0000
  S   S14       1.0  0.09310  0.57700  0.82800  1.0000
  Sn  Sn1       1.0  0.66700  0.33300  0.15800  1.0000
  Sn  Sn2       1.0  0.33300  0.66700  0.65800  1.0000
