data_image0
_chemical_formula_structural       In4Rh4Tm16
_chemical_formula_sum              "In4 Rh4 Tm16"
_cell_length_a       9.51496
_cell_length_b       9.51496
_cell_length_c       9.51496
_cell_angle_alpha    120
_cell_angle_beta     90
_cell_angle_gamma    120

_space_group_name_H-M_alt    "P 1"
_space_group_IT_number       1

loop_
  _space_group_symop_operation_xyz
  'x, y, z'

loop_
  _atom_site_type_symbol
  _atom_site_label
  _atom_site_symmetry_multiplicity
  _atom_site_fract_x
  _atom_site_fract_y
  _atom_site_fract_z
  _atom_site_occupancy
  In  In1       1.0  0.58300  0.16700  0.41700  1.0000
  In  In2       1.0  0.25000  0.83300  0.41700  1.0000
  In  In3       1.0  0.58300  0.83300  0.41700  1.0000
  In  In4       1.0  0.58300  0.16700  0.75000  1.0000
  Rh  Rh1       1.0  0.14200  0.28500  0.42700  1.0000
  Rh  Rh2       1.0  0.14200  0.28500  0.85800  1.0000
  Rh  Rh3       1.0  0.14200  0.71500  0.85800  1.0000
  Rh  Rh4       1.0  0.57300  0.71500  0.85800  1.0000
  Tm  Tm1       1.0  0.35000  0.70000  0.04980  1.0000
  Tm  Tm2       1.0  0.93800  0.50000  0.06180  1.0000
  Tm  Tm3       1.0  0.56200  0.12400  0.06180  1.0000
  Tm  Tm4       1.0  0.56200  0.50000  0.06180  1.0000
  Tm  Tm5       1.0  0.18900  0.00000  0.18900  1.0000
  Tm  Tm6       1.0  0.81100  0.00000  0.18900  1.0000
  Tm  Tm7       1.0  0.18900  0.37900  0.18900  1.0000
  Tm  Tm8       1.0  0.56200  0.50000  0.43800  1.0000
  Tm  Tm9       1.0  0.93800  0.50000  0.43800  1.0000
  Tm  Tm10      1.0  0.93800  0.87600  0.43800  1.0000
  Tm  Tm11      1.0  0.35000  0.30000  0.65000  1.0000
  Tm  Tm12      1.0  0.95000  0.30000  0.65000  1.0000
  Tm  Tm13      1.0  0.35000  0.70000  0.65000  1.0000
  Tm  Tm14      1.0  0.81100  0.00000  0.81100  1.0000
  Tm  Tm15      1.0  0.18900  0.00000  0.81100  1.0000
  Tm  Tm16      1.0  0.81100  0.62100  0.81100  1.0000
