data_image0
_chemical_formula_structural       Ce2Co6Pu8
_chemical_formula_sum              "Ce2 Co6 Pu8"
_cell_length_a       6.01928
_cell_length_b       8.01539
_cell_length_c       8.01539
_cell_angle_alpha    98.105
_cell_angle_beta     67.9459
_cell_angle_gamma    112.054

_space_group_name_H-M_alt    "P 1"
_space_group_IT_number       1

loop_
  _space_group_symop_operation_xyz
  'x, y, z'

loop_
  _atom_site_type_symbol
  _atom_site_label
  _atom_site_symmetry_multiplicity
  _atom_site_fract_x
  _atom_site_fract_y
  _atom_site_fract_z
  _atom_site_occupancy
  Ce  Ce1       1.0  0.25000  0.50000  0.50000  1.0000
  Ce  Ce2       1.0  0.75000  0.50000  0.50000  1.0000
  Co  Co1       1.0  0.25000  0.00000  0.00000  1.0000
  Co  Co2       1.0  0.75000  0.00000  0.00000  1.0000
  Co  Co3       1.0  0.67000  0.50000  0.16000  1.0000
  Co  Co4       1.0  0.17000  0.84000  0.50000  1.0000
  Co  Co5       1.0  0.83000  0.16000  0.50000  1.0000
  Co  Co6       1.0  0.33000  0.50000  0.84000  1.0000
  Pu  Pu1       1.0  0.08620  0.29500  0.12200  1.0000
  Pu  Pu2       1.0  0.29200  0.70500  0.12200  1.0000
  Pu  Pu3       1.0  0.79200  0.87800  0.29500  1.0000
  Pu  Pu4       1.0  0.41400  0.12200  0.29500  1.0000
  Pu  Pu5       1.0  0.20800  0.12200  0.70500  1.0000
  Pu  Pu6       1.0  0.58600  0.87800  0.70500  1.0000
  Pu  Pu7       1.0  0.70800  0.29500  0.87800  1.0000
  Pu  Pu8       1.0  0.91400  0.70500  0.87800  1.0000
