data_image0
_chemical_formula_structural       Br12Hg8Te4
_chemical_formula_sum              "Br12 Hg8 Te4"
_cell_length_a       7.57375
_cell_length_b       10.1508
_cell_length_c       11.8061
_cell_angle_alpha    90
_cell_angle_beta     122.367
_cell_angle_gamma    90

_space_group_name_H-M_alt    "P 1"
_space_group_IT_number       1

loop_
  _space_group_symop_operation_xyz
  'x, y, z'

loop_
  _atom_site_type_symbol
  _atom_site_label
  _atom_site_symmetry_multiplicity
  _atom_site_fract_x
  _atom_site_fract_y
  _atom_site_fract_z
  _atom_site_occupancy
  Br  Br1       1.0  0.26500  0.99700  0.01150  1.0000
  Br  Br2       1.0  0.66700  0.34200  0.13600  1.0000
  Br  Br3       1.0  0.75900  0.74100  0.22700  1.0000
  Br  Br4       1.0  0.24100  0.24100  0.27300  1.0000
  Br  Br5       1.0  0.33300  0.84200  0.36400  1.0000
  Br  Br6       1.0  0.73500  0.49700  0.48900  1.0000
  Br  Br7       1.0  0.26500  0.50300  0.51100  1.0000
  Br  Br8       1.0  0.66700  0.15800  0.63600  1.0000
  Br  Br9       1.0  0.75900  0.75900  0.72700  1.0000
  Br  Br10      1.0  0.24100  0.25900  0.77300  1.0000
  Br  Br11      1.0  0.33300  0.65800  0.86400  1.0000
  Br  Br12      1.0  0.73500  0.00316  0.98900  1.0000
  Hg  Hg1       1.0  0.00402  0.80900  0.00597  1.0000
  Hg  Hg2       1.0  0.47900  0.54700  0.16300  1.0000
  Hg  Hg3       1.0  0.52100  0.04730  0.33700  1.0000
  Hg  Hg4       1.0  0.99600  0.30900  0.49400  1.0000
  Hg  Hg5       1.0  0.00402  0.69100  0.50600  1.0000
  Hg  Hg6       1.0  0.47900  0.95300  0.66300  1.0000
  Hg  Hg7       1.0  0.52100  0.45300  0.83700  1.0000
  Hg  Hg8       1.0  0.99600  0.19100  0.99400  1.0000
  Te  Te1       1.0  0.08940  0.56700  0.12400  1.0000
  Te  Te2       1.0  0.91100  0.06680  0.37600  1.0000
  Te  Te3       1.0  0.08940  0.93300  0.62400  1.0000
  Te  Te4       1.0  0.91100  0.43300  0.87600  1.0000
