data_image0
_chemical_formula_structural       Al12Au3Er3Ge6
_chemical_formula_sum              "Al12 Au3 Er3 Ge6"
_cell_length_a       4.23497
_cell_length_b       4.23493
_cell_length_c       30.7486
_cell_angle_alpha    90
_cell_angle_beta     90.0001
_cell_angle_gamma    120

_space_group_name_H-M_alt    "P 1"
_space_group_IT_number       1

loop_
  _space_group_symop_operation_xyz
  'x, y, z'

loop_
  _atom_site_type_symbol
  _atom_site_label
  _atom_site_symmetry_multiplicity
  _atom_site_fract_x
  _atom_site_fract_y
  _atom_site_fract_z
  _atom_site_occupancy
  Al  Al1       1.0  0.66700  0.33300  0.02640  1.0000
  Al  Al2       1.0  0.00000  0.00000  0.08460  1.0000
  Al  Al3       1.0  0.66700  0.33300  0.24900  1.0000
  Al  Al4       1.0  0.00000  0.00000  0.30700  1.0000
  Al  Al5       1.0  0.33300  0.66700  0.36000  1.0000
  Al  Al6       1.0  0.66700  0.33300  0.41800  1.0000
  Al  Al7       1.0  0.33300  0.66700  0.58200  1.0000
  Al  Al8       1.0  0.66700  0.33300  0.64000  1.0000
  Al  Al9       1.0  0.00000  0.00000  0.69300  1.0000
  Al  Al10      1.0  0.33300  0.66700  0.75100  1.0000
  Al  Al11      1.0  0.00000  0.00000  0.91500  1.0000
  Al  Al12      1.0  0.33300  0.66700  0.97400  1.0000
  Au  Au1       1.0  0.00000  0.00000  0.00000  1.0000
  Au  Au2       1.0  0.66700  0.33300  0.33300  1.0000
  Au  Au3       1.0  0.33300  0.66700  0.66700  1.0000
  Er  Er1       1.0  0.33300  0.66700  0.16700  1.0000
  Er  Er2       1.0  0.00000  0.00000  0.50000  1.0000
  Er  Er3       1.0  0.66700  0.33300  0.83300  1.0000
  Ge  Ge1       1.0  0.66700  0.33300  0.11200  1.0000
  Ge  Ge2       1.0  0.00000  0.00000  0.22100  1.0000
  Ge  Ge3       1.0  0.33300  0.66700  0.44600  1.0000
  Ge  Ge4       1.0  0.66700  0.33300  0.55400  1.0000
  Ge  Ge5       1.0  0.00000  0.00000  0.77900  1.0000
  Ge  Ge6       1.0  0.33300  0.66700  0.88800  1.0000
