data_image0
_chemical_formula_structural       Co4Dy7Ge12In
_chemical_formula_sum              "Co4 Dy7 Ge12 In1"
_cell_length_a       10.3803
_cell_length_b       10.3803
_cell_length_c       4.19346
_cell_angle_alpha    90
_cell_angle_beta     90
_cell_angle_gamma    90

_space_group_name_H-M_alt    "P 1"
_space_group_IT_number       1

loop_
  _space_group_symop_operation_xyz
  'x, y, z'

loop_
  _atom_site_type_symbol
  _atom_site_label
  _atom_site_symmetry_multiplicity
  _atom_site_fract_x
  _atom_site_fract_y
  _atom_site_fract_z
  _atom_site_occupancy
  Co  Co1       1.0  0.27900  0.11800  0.00000  1.0000
  Co  Co2       1.0  0.88200  0.27900  0.00000  1.0000
  Co  Co3       1.0  0.11800  0.72100  0.00000  1.0000
  Co  Co4       1.0  0.72100  0.88200  0.00000  1.0000
  Dy  Dy1       1.0  0.00000  0.00000  0.00000  1.0000
  Dy  Dy2       1.0  0.50000  0.00000  0.50000  1.0000
  Dy  Dy3       1.0  0.67400  0.32300  0.50000  1.0000
  Dy  Dy4       1.0  0.32300  0.32600  0.50000  1.0000
  Dy  Dy5       1.0  0.00000  0.50000  0.50000  1.0000
  Dy  Dy6       1.0  0.67700  0.67400  0.50000  1.0000
  Dy  Dy7       1.0  0.32600  0.67700  0.50000  1.0000
  Ge  Ge1       1.0  0.71500  0.11300  0.00000  1.0000
  Ge  Ge2       1.0  0.48700  0.21300  0.00000  1.0000
  Ge  Ge3       1.0  0.11300  0.28500  0.00000  1.0000
  Ge  Ge4       1.0  0.78700  0.48700  0.00000  1.0000
  Ge  Ge5       1.0  0.21300  0.51300  0.00000  1.0000
  Ge  Ge6       1.0  0.88700  0.71500  0.00000  1.0000
  Ge  Ge7       1.0  0.51300  0.78700  0.00000  1.0000
  Ge  Ge8       1.0  0.28500  0.88700  0.00000  1.0000
  Ge  Ge9       1.0  0.19500  0.06520  0.50000  1.0000
  Ge  Ge10      1.0  0.93500  0.19500  0.50000  1.0000
  Ge  Ge11      1.0  0.06520  0.80500  0.50000  1.0000
  Ge  Ge12      1.0  0.80500  0.93500  0.50000  1.0000
  In  In1       1.0  0.50000  0.50000  0.00000  1.0000
