data_image0
_chemical_formula_structural       Au4Cl4F12P4
_chemical_formula_sum              "Au4 Cl4 F12 P4"
_cell_length_a       17.8539
_cell_length_b       5.15574
_cell_length_c       4.47381
_cell_angle_alpha    90
_cell_angle_beta     90
_cell_angle_gamma    90

_space_group_name_H-M_alt    "P 1"
_space_group_IT_number       1

loop_
  _space_group_symop_operation_xyz
  'x, y, z'

loop_
  _atom_site_type_symbol
  _atom_site_label
  _atom_site_symmetry_multiplicity
  _atom_site_fract_x
  _atom_site_fract_y
  _atom_site_fract_z
  _atom_site_occupancy
  Au  Au1       1.0  0.03000  0.25000  0.15300  1.0000
  Au  Au2       1.0  0.53000  0.25000  0.34700  1.0000
  Au  Au3       1.0  0.47000  0.75000  0.65300  1.0000
  Au  Au4       1.0  0.97000  0.75000  0.84700  1.0000
  Cl  Cl1       1.0  0.41400  0.25000  0.12500  1.0000
  Cl  Cl2       1.0  0.91400  0.25000  0.37500  1.0000
  Cl  Cl3       1.0  0.08630  0.75000  0.62500  1.0000
  Cl  Cl4       1.0  0.58600  0.75000  0.87500  1.0000
  F   F1        1.0  0.19700  0.01960  0.13600  1.0000
  F   F2        1.0  0.19700  0.48000  0.13600  1.0000
  F   F3        1.0  0.32600  0.75000  0.18500  1.0000
  F   F4        1.0  0.82600  0.75000  0.31500  1.0000
  F   F5        1.0  0.69700  0.01960  0.36400  1.0000
  F   F6        1.0  0.69700  0.48000  0.36400  1.0000
  F   F7        1.0  0.30300  0.52000  0.63600  1.0000
  F   F8        1.0  0.30300  0.98000  0.63600  1.0000
  F   F9        1.0  0.17400  0.25000  0.68500  1.0000
  F   F10       1.0  0.67400  0.25000  0.81500  1.0000
  F   F11       1.0  0.80300  0.52000  0.86400  1.0000
  F   F12       1.0  0.80300  0.98000  0.86400  1.0000
  P   P1        1.0  0.14900  0.25000  0.01830  1.0000
  P   P2        1.0  0.64900  0.25000  0.48200  1.0000
  P   P3        1.0  0.35100  0.75000  0.51800  1.0000
  P   P4        1.0  0.85100  0.75000  0.98200  1.0000
