data_image0
_chemical_formula_structural       Li3Mo2O6
_chemical_formula_sum              "Li3 Mo2 O6"
_cell_length_a       4.99117
_cell_length_b       4.99117
_cell_length_c       5.17579
_cell_angle_alpha    99.0983
_cell_angle_beta     99.0983
_cell_angle_gamma    118.529

_space_group_name_H-M_alt    "P 1"
_space_group_IT_number       1

loop_
  _space_group_symop_operation_xyz
  'x, y, z'

loop_
  _atom_site_type_symbol
  _atom_site_label
  _atom_site_symmetry_multiplicity
  _atom_site_fract_x
  _atom_site_fract_y
  _atom_site_fract_z
  _atom_site_occupancy
  Li  Li1       1.0  0.00000  0.00000  0.50000  1.0000
  Li  Li2       1.0  0.65600  0.34400  0.50000  1.0000
  Li  Li3       1.0  0.34400  0.65600  0.50000  1.0000
  Mo  Mo1       1.0  0.85600  0.14400  0.00000  1.0000
  Mo  Mo2       1.0  0.14400  0.85600  0.00000  1.0000
  O   O1        1.0  0.95400  0.59000  0.22900  1.0000
  O   O2        1.0  0.59000  0.95400  0.22900  1.0000
  O   O3        1.0  0.24400  0.24400  0.27500  1.0000
  O   O4        1.0  0.75600  0.75600  0.72500  1.0000
  O   O5        1.0  0.41000  0.04560  0.77100  1.0000
  O   O6        1.0  0.04560  0.41000  0.77100  1.0000
