data_image0
_chemical_formula_structural       B12Br4La8
_chemical_formula_sum              "B12 Br4 La8"
_cell_length_a       7.83412
_cell_length_b       7.83415
_cell_length_c       8.54518
_cell_angle_alpha    90
_cell_angle_beta     90
_cell_angle_gamma    120

_space_group_name_H-M_alt    "P 1"
_space_group_IT_number       1

loop_
  _space_group_symop_operation_xyz
  'x, y, z'

loop_
  _atom_site_type_symbol
  _atom_site_label
  _atom_site_symmetry_multiplicity
  _atom_site_fract_x
  _atom_site_fract_y
  _atom_site_fract_z
  _atom_site_occupancy
  B   B1        1.0  0.86100  0.13900  0.00000  1.0000
  B   B2        1.0  0.27700  0.13900  0.00000  1.0000
  B   B3        1.0  0.73700  0.26200  0.00000  1.0000
  B   B4        1.0  0.52500  0.26300  0.00000  1.0000
  B   B5        1.0  0.13900  0.27800  0.00000  1.0000
  B   B6        1.0  0.73800  0.47500  0.00000  1.0000
  B   B7        1.0  0.26300  0.52500  0.00000  1.0000
  B   B8        1.0  0.86100  0.72300  0.00000  1.0000
  B   B9        1.0  0.26300  0.73700  0.00000  1.0000
  B   B10       1.0  0.47500  0.73700  0.00000  1.0000
  B   B11       1.0  0.72200  0.86100  0.00000  1.0000
  B   B12       1.0  0.13900  0.86100  0.00000  1.0000
  Br  Br1       1.0  0.83000  0.17000  0.50000  1.0000
  Br  Br2       1.0  0.33900  0.17000  0.50000  1.0000
  Br  Br3       1.0  0.83000  0.66100  0.50000  1.0000
  Br  Br4       1.0  0.33300  0.66700  0.50000  1.0000
  La  La1       1.0  0.50000  0.00053  0.21800  1.0000
  La  La2       1.0  0.50100  0.50000  0.21800  1.0000
  La  La3       1.0  0.99900  0.49900  0.21800  1.0000
  La  La4       1.0  0.00000  0.00000  0.23200  1.0000
  La  La5       1.0  0.00000  0.00000  0.76800  1.0000
  La  La6       1.0  0.99900  0.49900  0.78200  1.0000
  La  La7       1.0  0.50000  0.00053  0.78200  1.0000
  La  La8       1.0  0.50100  0.50000  0.78200  1.0000
