data_image0
_chemical_formula_structural       Ba4Fe4K4O12
_chemical_formula_sum              "Ba4 Fe4 K4 O12"
_cell_length_a       5.81261
_cell_length_b       6.46691
_cell_length_c       12.8029
_cell_angle_alpha    90
_cell_angle_beta     90
_cell_angle_gamma    63.2941

_space_group_name_H-M_alt    "P 1"
_space_group_IT_number       1

loop_
  _space_group_symop_operation_xyz
  'x, y, z'

loop_
  _atom_site_type_symbol
  _atom_site_label
  _atom_site_symmetry_multiplicity
  _atom_site_fract_x
  _atom_site_fract_y
  _atom_site_fract_z
  _atom_site_occupancy
  Ba  Ba1       1.0  0.64300  0.71400  0.08150  1.0000
  Ba  Ba2       1.0  0.14300  0.71400  0.41800  1.0000
  Ba  Ba3       1.0  0.85700  0.28600  0.58200  1.0000
  Ba  Ba4       1.0  0.35700  0.28600  0.91800  1.0000
  Fe  Fe1       1.0  0.26800  0.46400  0.16300  1.0000
  Fe  Fe2       1.0  0.76800  0.46400  0.33700  1.0000
  Fe  Fe3       1.0  0.23200  0.53600  0.66300  1.0000
  Fe  Fe4       1.0  0.73200  0.53600  0.83700  1.0000
  K   K1        1.0  0.95400  0.09170  0.14300  1.0000
  K   K2        1.0  0.45400  0.09170  0.35700  1.0000
  K   K3        1.0  0.54600  0.90800  0.64300  1.0000
  K   K4        1.0  0.04580  0.90800  0.85700  1.0000
  O   O1        1.0  0.16900  0.66200  0.04680  1.0000
  O   O2        1.0  0.42400  0.15200  0.12500  1.0000
  O   O3        1.0  0.97400  0.55300  0.25000  1.0000
  O   O4        1.0  0.47400  0.55300  0.25000  1.0000
  O   O5        1.0  0.92400  0.15200  0.37500  1.0000
  O   O6        1.0  0.66900  0.66200  0.45300  1.0000
  O   O7        1.0  0.33100  0.33800  0.54700  1.0000
  O   O8        1.0  0.07620  0.84800  0.62500  1.0000
  O   O9        1.0  0.52600  0.44700  0.75000  1.0000
  O   O10       1.0  0.02630  0.44700  0.75000  1.0000
  O   O11       1.0  0.57600  0.84800  0.87500  1.0000
  O   O12       1.0  0.83100  0.33800  0.95300  1.0000
