data_image0
_chemical_formula_structural       Ga8Ge12Yb4
_chemical_formula_sum              "Ga8 Ge12 Yb4"
_cell_length_a       4.2092
_cell_length_b       10.7789
_cell_length_c       11.8352
_cell_angle_alpha    90
_cell_angle_beta     79.7569
_cell_angle_gamma    90

_space_group_name_H-M_alt    "P 1"
_space_group_IT_number       1

loop_
  _space_group_symop_operation_xyz
  'x, y, z'

loop_
  _atom_site_type_symbol
  _atom_site_label
  _atom_site_symmetry_multiplicity
  _atom_site_fract_x
  _atom_site_fract_y
  _atom_site_fract_z
  _atom_site_occupancy
  Ga  Ga1       1.0  0.48500  0.87800  0.02950  1.0000
  Ga  Ga2       1.0  0.88600  0.13000  0.22800  1.0000
  Ga  Ga3       1.0  0.85000  0.75600  0.30100  1.0000
  Ga  Ga4       1.0  0.25100  0.99900  0.49800  1.0000
  Ga  Ga5       1.0  0.74900  0.49900  0.50200  1.0000
  Ga  Ga6       1.0  0.15000  0.25600  0.69900  1.0000
  Ga  Ga7       1.0  0.11400  0.63000  0.77200  1.0000
  Ga  Ga8       1.0  0.51500  0.37800  0.97000  1.0000
  Ge  Ge1       1.0  0.93000  0.90800  0.14000  1.0000
  Ge  Ge2       1.0  0.42800  0.22400  0.14300  1.0000
  Ge  Ge3       1.0  0.41300  0.46100  0.17500  1.0000
  Ge  Ge4       1.0  0.85900  0.52200  0.28200  1.0000
  Ge  Ge5       1.0  0.29400  0.78700  0.41100  1.0000
  Ge  Ge6       1.0  0.77700  0.10800  0.44500  1.0000
  Ge  Ge7       1.0  0.22300  0.60800  0.55500  1.0000
  Ge  Ge8       1.0  0.70600  0.28700  0.58900  1.0000
  Ge  Ge9       1.0  0.14100  0.02230  0.71800  1.0000
  Ge  Ge10      1.0  0.58700  0.96100  0.82500  1.0000
  Ge  Ge11      1.0  0.57200  0.72400  0.85700  1.0000
  Ge  Ge12      1.0  0.07010  0.40800  0.86000  1.0000
  Yb  Yb1       1.0  0.98200  0.63100  0.03670  1.0000
  Yb  Yb2       1.0  0.30000  0.31200  0.40000  1.0000
  Yb  Yb3       1.0  0.70000  0.81200  0.60000  1.0000
  Yb  Yb4       1.0  0.01830  0.13100  0.96300  1.0000
