data_image0
_chemical_formula_structural       Ni4Sn13Yb7
_chemical_formula_sum              "Ni4 Sn13 Yb7"
_cell_length_a       11.218
_cell_length_b       11.218
_cell_length_c       4.56764
_cell_angle_alpha    90
_cell_angle_beta     90
_cell_angle_gamma    90

_space_group_name_H-M_alt    "P 1"
_space_group_IT_number       1

loop_
  _space_group_symop_operation_xyz
  'x, y, z'

loop_
  _atom_site_type_symbol
  _atom_site_label
  _atom_site_symmetry_multiplicity
  _atom_site_fract_x
  _atom_site_fract_y
  _atom_site_fract_z
  _atom_site_occupancy
  Ni  Ni1       1.0  0.72400  0.12100  0.00000  1.0000
  Ni  Ni2       1.0  0.12100  0.27600  0.00000  1.0000
  Ni  Ni3       1.0  0.87900  0.72400  0.00000  1.0000
  Ni  Ni4       1.0  0.27600  0.87900  0.00000  1.0000
  Sn  Sn1       1.0  0.28500  0.11100  0.00000  1.0000
  Sn  Sn2       1.0  0.51900  0.21500  0.00000  1.0000
  Sn  Sn3       1.0  0.88900  0.28500  0.00000  1.0000
  Sn  Sn4       1.0  0.21500  0.48100  0.00000  1.0000
  Sn  Sn5       1.0  0.50000  0.50000  0.00000  1.0000
  Sn  Sn6       1.0  0.78500  0.51900  0.00000  1.0000
  Sn  Sn7       1.0  0.11100  0.71500  0.00000  1.0000
  Sn  Sn8       1.0  0.48100  0.78500  0.00000  1.0000
  Sn  Sn9       1.0  0.71500  0.88900  0.00000  1.0000
  Sn  Sn10      1.0  0.81000  0.07630  0.50000  1.0000
  Sn  Sn11      1.0  0.07630  0.19000  0.50000  1.0000
  Sn  Sn12      1.0  0.92400  0.81000  0.50000  1.0000
  Sn  Sn13      1.0  0.19000  0.92400  0.50000  1.0000
  Yb  Yb1       1.0  0.00000  0.00000  0.00000  1.0000
  Yb  Yb2       1.0  0.50000  0.00000  0.50000  1.0000
  Yb  Yb3       1.0  0.33900  0.32900  0.50000  1.0000
  Yb  Yb4       1.0  0.67100  0.33900  0.50000  1.0000
  Yb  Yb5       1.0  0.00000  0.50000  0.50000  1.0000
  Yb  Yb6       1.0  0.32900  0.66100  0.50000  1.0000
  Yb  Yb7       1.0  0.66100  0.67100  0.50000  1.0000
