data_image0
_chemical_formula_structural       Ir2K4O14Sm4
_chemical_formula_sum              "Ir2 K4 O14 Sm4"
_cell_length_a       5.64714
_cell_length_b       5.64714
_cell_length_c       12.9492
_cell_angle_alpha    102.595
_cell_angle_beta     90
_cell_angle_gamma    60

_space_group_name_H-M_alt    "P 1"
_space_group_IT_number       1

loop_
  _space_group_symop_operation_xyz
  'x, y, z'

loop_
  _atom_site_type_symbol
  _atom_site_label
  _atom_site_symmetry_multiplicity
  _atom_site_fract_x
  _atom_site_fract_y
  _atom_site_fract_z
  _atom_site_occupancy
  Ir  Ir1       1.0  0.00000  0.00000  0.00000  1.0000
  Ir  Ir2       1.0  0.50000  0.00000  0.50000  1.0000
  K   K1        1.0  0.58700  0.82600  0.23900  1.0000
  K   K2        1.0  0.91300  0.17400  0.26100  1.0000
  K   K3        1.0  0.08680  0.82600  0.73900  1.0000
  K   K4        1.0  0.41300  0.17400  0.76100  1.0000
  O   O1        1.0  0.72600  0.37900  0.08250  1.0000
  O   O2        1.0  0.89500  0.80800  0.08250  1.0000
  O   O3        1.0  0.29700  0.97800  0.08250  1.0000
  O   O4        1.0  0.25000  0.50000  0.25000  1.0000
  O   O5        1.0  0.77400  0.02250  0.41700  1.0000
  O   O6        1.0  0.20300  0.19200  0.41700  1.0000
  O   O7        1.0  0.60500  0.62100  0.41700  1.0000
  O   O8        1.0  0.39500  0.37900  0.58300  1.0000
  O   O9        1.0  0.79700  0.80800  0.58300  1.0000
  O   O10       1.0  0.22600  0.97800  0.58300  1.0000
  O   O11       1.0  0.75000  0.50000  0.75000  1.0000
  O   O12       1.0  0.70300  0.02250  0.91700  1.0000
  O   O13       1.0  0.10500  0.19200  0.91700  1.0000
  O   O14       1.0  0.27400  0.62100  0.91700  1.0000
  Sm  Sm1       1.0  0.30900  0.38100  0.07210  1.0000
  Sm  Sm2       1.0  0.19100  0.61900  0.42800  1.0000
  Sm  Sm3       1.0  0.80900  0.38100  0.57200  1.0000
  Sm  Sm4       1.0  0.69100  0.61900  0.92800  1.0000
