data_image0
_chemical_formula_structural       Be4F16Yb4
_chemical_formula_sum              "Be4 F16 Yb4"
_cell_length_a       6.54428
_cell_length_b       5.41271
_cell_length_c       6.87428
_cell_angle_alpha    89.9973
_cell_angle_beta     105.538
_cell_angle_gamma    90.0082

_space_group_name_H-M_alt    "P 1"
_space_group_IT_number       1

loop_
  _space_group_symop_operation_xyz
  'x, y, z'

loop_
  _atom_site_type_symbol
  _atom_site_label
  _atom_site_symmetry_multiplicity
  _atom_site_fract_x
  _atom_site_fract_y
  _atom_site_fract_z
  _atom_site_occupancy
  Be  Be1       1.0  0.20400  0.25600  0.16200  1.0000
  Be  Be2       1.0  0.79600  0.75600  0.33800  1.0000
  Be  Be3       1.0  0.20300  0.24400  0.66200  1.0000
  Be  Be4       1.0  0.79700  0.74400  0.83800  1.0000
  F   F1        1.0  0.24200  0.49800  0.05610  1.0000
  F   F2        1.0  0.23500  0.00081  0.08000  1.0000
  F   F3        1.0  0.57500  0.78000  0.15500  1.0000
  F   F4        1.0  0.01690  0.27000  0.24600  1.0000
  F   F5        1.0  0.98400  0.77100  0.25500  1.0000
  F   F6        1.0  0.42500  0.28000  0.34400  1.0000
  F   F7        1.0  0.76500  0.50100  0.42000  1.0000
  F   F8        1.0  0.75700  0.99800  0.44400  1.0000
  F   F9        1.0  0.24300  0.00246  0.55600  1.0000
  F   F10       1.0  0.23500  0.49900  0.58000  1.0000
  F   F11       1.0  0.57500  0.71900  0.65600  1.0000
  F   F12       1.0  0.01620  0.23000  0.74500  1.0000
  F   F13       1.0  0.98400  0.73000  0.75400  1.0000
  F   F14       1.0  0.42500  0.22000  0.84500  1.0000
  F   F15       1.0  0.76500  0.99900  0.92000  1.0000
  F   F16       1.0  0.75800  0.50200  0.94400  1.0000
  Yb  Yb1       1.0  0.67600  0.22900  0.15600  1.0000
  Yb  Yb2       1.0  0.32400  0.72900  0.34400  1.0000
  Yb  Yb3       1.0  0.67600  0.27100  0.65500  1.0000
  Yb  Yb4       1.0  0.32400  0.77100  0.84400  1.0000
