data_image0
_chemical_formula_structural       Cl4O12Se4Yb4
_chemical_formula_sum              "Cl4 O12 Se4 Yb4"
_cell_length_a       6.91047
_cell_length_b       7.06001
_cell_length_c       8.67782
_cell_angle_alpha    90
_cell_angle_beta     90
_cell_angle_gamma    90

_space_group_name_H-M_alt    "P 1"
_space_group_IT_number       1

loop_
  _space_group_symop_operation_xyz
  'x, y, z'

loop_
  _atom_site_type_symbol
  _atom_site_label
  _atom_site_symmetry_multiplicity
  _atom_site_fract_x
  _atom_site_fract_y
  _atom_site_fract_z
  _atom_site_occupancy
  Cl  Cl1       1.0  0.98200  0.25000  0.15100  1.0000
  Cl  Cl2       1.0  0.48200  0.25000  0.34900  1.0000
  Cl  Cl3       1.0  0.51800  0.75000  0.65100  1.0000
  Cl  Cl4       1.0  0.01750  0.75000  0.84900  1.0000
  O   O1        1.0  0.65700  0.56800  0.05150  1.0000
  O   O2        1.0  0.65700  0.93200  0.05150  1.0000
  O   O3        1.0  0.24900  0.75000  0.18500  1.0000
  O   O4        1.0  0.74900  0.75000  0.31500  1.0000
  O   O5        1.0  0.15700  0.56800  0.44900  1.0000
  O   O6        1.0  0.15700  0.93200  0.44900  1.0000
  O   O7        1.0  0.84300  0.06780  0.55100  1.0000
  O   O8        1.0  0.84300  0.43200  0.55100  1.0000
  O   O9        1.0  0.25100  0.25000  0.68500  1.0000
  O   O10       1.0  0.75100  0.25000  0.81500  1.0000
  O   O11       1.0  0.34300  0.06780  0.94900  1.0000
  O   O12       1.0  0.34300  0.43200  0.94900  1.0000
  Se  Se1       1.0  0.78900  0.75000  0.12400  1.0000
  Se  Se2       1.0  0.28900  0.75000  0.37600  1.0000
  Se  Se3       1.0  0.71100  0.25000  0.62400  1.0000
  Se  Se4       1.0  0.21100  0.25000  0.87600  1.0000
  Yb  Yb1       1.0  0.60600  0.25000  0.05090  1.0000
  Yb  Yb2       1.0  0.10600  0.25000  0.44900  1.0000
  Yb  Yb3       1.0  0.89400  0.75000  0.55100  1.0000
  Yb  Yb4       1.0  0.39400  0.75000  0.94900  1.0000
