data_image0
_chemical_formula_structural       Al12Au3Ge6Nd3
_chemical_formula_sum              "Al12 Au3 Ge6 Nd3"
_cell_length_a       4.26275
_cell_length_b       4.26274
_cell_length_c       31.5554
_cell_angle_alpha    90
_cell_angle_beta     90.0003
_cell_angle_gamma    120

_space_group_name_H-M_alt    "P 1"
_space_group_IT_number       1

loop_
  _space_group_symop_operation_xyz
  'x, y, z'

loop_
  _atom_site_type_symbol
  _atom_site_label
  _atom_site_symmetry_multiplicity
  _atom_site_fract_x
  _atom_site_fract_y
  _atom_site_fract_z
  _atom_site_occupancy
  Al  Al1       1.0  0.66700  0.33300  0.02540  1.0000
  Al  Al2       1.0  0.00000  0.00000  0.08270  1.0000
  Al  Al3       1.0  0.66700  0.33300  0.25100  1.0000
  Al  Al4       1.0  0.00000  0.00000  0.30800  1.0000
  Al  Al5       1.0  0.33300  0.66700  0.35900  1.0000
  Al  Al6       1.0  0.66700  0.33300  0.41600  1.0000
  Al  Al7       1.0  0.33300  0.66700  0.58400  1.0000
  Al  Al8       1.0  0.66700  0.33300  0.64100  1.0000
  Al  Al9       1.0  0.00000  0.00000  0.69200  1.0000
  Al  Al10      1.0  0.33300  0.66700  0.74900  1.0000
  Al  Al11      1.0  0.00000  0.00000  0.91700  1.0000
  Al  Al12      1.0  0.33300  0.66700  0.97500  1.0000
  Au  Au1       1.0  0.00000  0.00000  0.00000  1.0000
  Au  Au2       1.0  0.66700  0.33300  0.33300  1.0000
  Au  Au3       1.0  0.33300  0.66700  0.66700  1.0000
  Ge  Ge1       1.0  0.66700  0.33300  0.10900  1.0000
  Ge  Ge2       1.0  0.00000  0.00000  0.22400  1.0000
  Ge  Ge3       1.0  0.33300  0.66700  0.44200  1.0000
  Ge  Ge4       1.0  0.66700  0.33300  0.55800  1.0000
  Ge  Ge5       1.0  0.00000  0.00000  0.77600  1.0000
  Ge  Ge6       1.0  0.33300  0.66700  0.89100  1.0000
  Nd  Nd1       1.0  0.33300  0.66700  0.16700  1.0000
  Nd  Nd2       1.0  0.00000  0.00000  0.50000  1.0000
  Nd  Nd3       1.0  0.66700  0.33300  0.83300  1.0000
