data_image0
_chemical_formula_structural       K4Mn2O14V4
_chemical_formula_sum              "K4 Mn2 O14 V4"
_cell_length_a       8.58924
_cell_length_b       8.58924
_cell_length_c       5.44864
_cell_angle_alpha    90
_cell_angle_beta     90
_cell_angle_gamma    90

_space_group_name_H-M_alt    "P 1"
_space_group_IT_number       1

loop_
  _space_group_symop_operation_xyz
  'x, y, z'

loop_
  _atom_site_type_symbol
  _atom_site_label
  _atom_site_symmetry_multiplicity
  _atom_site_fract_x
  _atom_site_fract_y
  _atom_site_fract_z
  _atom_site_occupancy
  K   K1        1.0  0.33900  0.16100  0.49200  1.0000
  K   K2        1.0  0.66100  0.83900  0.49200  1.0000
  K   K3        1.0  0.83900  0.33900  0.50800  1.0000
  K   K4        1.0  0.16100  0.66100  0.50800  1.0000
  Mn  Mn1       1.0  0.00000  0.00000  0.00000  1.0000
  Mn  Mn2       1.0  0.50000  0.50000  0.00000  1.0000
  O   O1        1.0  0.00000  0.50000  0.16600  1.0000
  O   O2        1.0  0.08800  0.18300  0.18800  1.0000
  O   O3        1.0  0.31700  0.41200  0.18800  1.0000
  O   O4        1.0  0.68300  0.58800  0.18800  1.0000
  O   O5        1.0  0.91200  0.81700  0.18800  1.0000
  O   O6        1.0  0.64600  0.14600  0.24800  1.0000
  O   O7        1.0  0.35400  0.85400  0.24800  1.0000
  O   O8        1.0  0.14600  0.35400  0.75200  1.0000
  O   O9        1.0  0.85400  0.64600  0.75200  1.0000
  O   O10       1.0  0.81700  0.08800  0.81200  1.0000
  O   O11       1.0  0.58800  0.31700  0.81200  1.0000
  O   O12       1.0  0.41200  0.68300  0.81200  1.0000
  O   O13       1.0  0.18300  0.91200  0.81200  1.0000
  O   O14       1.0  0.50000  0.00000  0.83400  1.0000
  V   V1        1.0  0.14100  0.35900  0.05920  1.0000
  V   V2        1.0  0.85900  0.64100  0.05920  1.0000
  V   V3        1.0  0.64100  0.14100  0.94100  1.0000
  V   V4        1.0  0.35900  0.85900  0.94100  1.0000
