data_image0
_chemical_formula_structural       Hg6O10Se8
_chemical_formula_sum              "Hg6 O10 Se8"
_cell_length_a       7.53148
_cell_length_b       7.7882
_cell_length_c       9.01454
_cell_angle_alpha    95.671
_cell_angle_beta     108.153
_cell_angle_gamma    107.462

_space_group_name_H-M_alt    "P 1"
_space_group_IT_number       1

loop_
  _space_group_symop_operation_xyz
  'x, y, z'

loop_
  _atom_site_type_symbol
  _atom_site_label
  _atom_site_symmetry_multiplicity
  _atom_site_fract_x
  _atom_site_fract_y
  _atom_site_fract_z
  _atom_site_occupancy
  Hg  Hg1       1.0  0.30000  0.82500  0.09620  1.0000
  Hg  Hg2       1.0  0.98500  0.01400  0.24300  1.0000
  Hg  Hg3       1.0  0.99500  0.52400  0.28100  1.0000
  Hg  Hg4       1.0  0.00547  0.47600  0.71900  1.0000
  Hg  Hg5       1.0  0.01490  0.98600  0.75700  1.0000
  Hg  Hg6       1.0  0.70000  0.17500  0.90400  1.0000
  O   O1        1.0  0.18100  0.46500  0.02830  1.0000
  O   O2        1.0  0.20800  0.14100  0.07280  1.0000
  O   O3        1.0  0.62900  0.74200  0.22400  1.0000
  O   O4        1.0  0.43200  0.43800  0.31300  1.0000
  O   O5        1.0  0.83600  0.63000  0.47200  1.0000
  O   O6        1.0  0.16400  0.37000  0.52800  1.0000
  O   O7        1.0  0.56800  0.56200  0.68700  1.0000
  O   O8        1.0  0.37100  0.25800  0.77600  1.0000
  O   O9        1.0  0.79200  0.85900  0.92700  1.0000
  O   O10       1.0  0.81900  0.53500  0.97200  1.0000
  Se  Se1       1.0  0.35000  0.36200  0.08860  1.0000
  Se  Se2       1.0  0.74600  0.19300  0.19900  1.0000
  Se  Se3       1.0  0.23700  0.85800  0.36000  1.0000
  Se  Se4       1.0  0.62200  0.67300  0.39800  1.0000
  Se  Se5       1.0  0.37800  0.32700  0.60200  1.0000
  Se  Se6       1.0  0.76300  0.14200  0.64000  1.0000
  Se  Se7       1.0  0.25400  0.80700  0.80100  1.0000
  Se  Se8       1.0  0.65000  0.63800  0.91100  1.0000
