data_image0
_chemical_formula_structural       Ag4B4F16
_chemical_formula_sum              "Ag4 B4 F16"
_cell_length_a       7.84434
_cell_length_b       5.10271
_cell_length_c       6.55596
_cell_angle_alpha    90
_cell_angle_beta     90
_cell_angle_gamma    90

_space_group_name_H-M_alt    "P 1"
_space_group_IT_number       1

loop_
  _space_group_symop_operation_xyz
  'x, y, z'

loop_
  _atom_site_type_symbol
  _atom_site_label
  _atom_site_symmetry_multiplicity
  _atom_site_fract_x
  _atom_site_fract_y
  _atom_site_fract_z
  _atom_site_occupancy
  Ag  Ag1       1.0  0.17800  0.25000  0.16900  1.0000
  Ag  Ag2       1.0  0.67800  0.25000  0.33100  1.0000
  Ag  Ag3       1.0  0.32200  0.75000  0.66900  1.0000
  Ag  Ag4       1.0  0.82200  0.75000  0.83100  1.0000
  B   B1        1.0  0.43200  0.75000  0.18700  1.0000
  B   B2        1.0  0.93200  0.75000  0.31300  1.0000
  B   B3        1.0  0.06810  0.25000  0.68700  1.0000
  B   B4        1.0  0.56800  0.25000  0.81300  1.0000
  F   F1        1.0  0.29300  0.75000  0.05280  1.0000
  F   F2        1.0  0.58700  0.75000  0.08370  1.0000
  F   F3        1.0  0.92100  0.52500  0.18600  1.0000
  F   F4        1.0  0.92100  0.97500  0.18600  1.0000
  F   F5        1.0  0.42100  0.52500  0.31400  1.0000
  F   F6        1.0  0.42100  0.97500  0.31400  1.0000
  F   F7        1.0  0.08720  0.75000  0.41600  1.0000
  F   F8        1.0  0.79300  0.75000  0.44700  1.0000
  F   F9        1.0  0.20700  0.25000  0.55300  1.0000
  F   F10       1.0  0.91300  0.25000  0.58400  1.0000
  F   F11       1.0  0.57900  0.02500  0.68600  1.0000
  F   F12       1.0  0.57900  0.47500  0.68600  1.0000
  F   F13       1.0  0.07870  0.02500  0.81400  1.0000
  F   F14       1.0  0.07870  0.47500  0.81400  1.0000
  F   F15       1.0  0.41300  0.25000  0.91600  1.0000
  F   F16       1.0  0.70700  0.25000  0.94700  1.0000
