data_image0
_chemical_formula_structural       B16Rh4Yb4
_chemical_formula_sum              "B16 Rh4 Yb4"
_cell_length_a       5.94292
_cell_length_b       11.5073
_cell_length_c       3.52272
_cell_angle_alpha    90
_cell_angle_beta     90
_cell_angle_gamma    90

_space_group_name_H-M_alt    "P 1"
_space_group_IT_number       1

loop_
  _space_group_symop_operation_xyz
  'x, y, z'

loop_
  _atom_site_type_symbol
  _atom_site_label
  _atom_site_symmetry_multiplicity
  _atom_site_fract_x
  _atom_site_fract_y
  _atom_site_fract_z
  _atom_site_occupancy
  B   B1        1.0  0.63600  0.02970  0.50000  1.0000
  B   B2        1.0  0.11200  0.04700  0.50000  1.0000
  B   B3        1.0  0.71000  0.18500  0.50000  1.0000
  B   B4        1.0  0.02510  0.19200  0.50000  1.0000
  B   B5        1.0  0.52500  0.30800  0.50000  1.0000
  B   B6        1.0  0.21000  0.31500  0.50000  1.0000
  B   B7        1.0  0.61200  0.45300  0.50000  1.0000
  B   B8        1.0  0.13600  0.47000  0.50000  1.0000
  B   B9        1.0  0.86400  0.53000  0.50000  1.0000
  B   B10       1.0  0.38800  0.54700  0.50000  1.0000
  B   B11       1.0  0.79000  0.68500  0.50000  1.0000
  B   B12       1.0  0.47500  0.69200  0.50000  1.0000
  B   B13       1.0  0.97500  0.80800  0.50000  1.0000
  B   B14       1.0  0.29000  0.81500  0.50000  1.0000
  B   B15       1.0  0.88800  0.95300  0.50000  1.0000
  B   B16       1.0  0.36400  0.97000  0.50000  1.0000
  Rh  Rh1       1.0  0.85800  0.09320  0.00000  1.0000
  Rh  Rh2       1.0  0.35800  0.40700  0.00000  1.0000
  Rh  Rh3       1.0  0.64200  0.59300  0.00000  1.0000
  Rh  Rh4       1.0  0.14200  0.90700  0.00000  1.0000
  Yb  Yb1       1.0  0.36900  0.15000  0.00000  1.0000
  Yb  Yb2       1.0  0.86900  0.35000  0.00000  1.0000
  Yb  Yb3       1.0  0.13100  0.65000  0.00000  1.0000
  Yb  Yb4       1.0  0.63100  0.85000  0.00000  1.0000
