data_image0
_chemical_formula_structural       Al12Au3Ce3Ge6
_chemical_formula_sum              "Al12 Au3 Ce3 Ge6"
_cell_length_a       4.27879
_cell_length_b       4.27876
_cell_length_c       31.841
_cell_angle_alpha    90
_cell_angle_beta     90.0001
_cell_angle_gamma    120

_space_group_name_H-M_alt    "P 1"
_space_group_IT_number       1

loop_
  _space_group_symop_operation_xyz
  'x, y, z'

loop_
  _atom_site_type_symbol
  _atom_site_label
  _atom_site_symmetry_multiplicity
  _atom_site_fract_x
  _atom_site_fract_y
  _atom_site_fract_z
  _atom_site_occupancy
  Al  Al1       1.0  0.66700  0.33300  0.02490  1.0000
  Al  Al2       1.0  0.00000  0.00000  0.08210  1.0000
  Al  Al3       1.0  0.66700  0.33300  0.25100  1.0000
  Al  Al4       1.0  0.00000  0.00000  0.30800  1.0000
  Al  Al5       1.0  0.33300  0.66700  0.35800  1.0000
  Al  Al6       1.0  0.66700  0.33300  0.41500  1.0000
  Al  Al7       1.0  0.33300  0.66700  0.58500  1.0000
  Al  Al8       1.0  0.66700  0.33300  0.64200  1.0000
  Al  Al9       1.0  0.00000  0.00000  0.69200  1.0000
  Al  Al10      1.0  0.33300  0.66700  0.74900  1.0000
  Al  Al11      1.0  0.00000  0.00000  0.91800  1.0000
  Al  Al12      1.0  0.33300  0.66700  0.97500  1.0000
  Au  Au1       1.0  0.00000  0.00000  0.00000  1.0000
  Au  Au2       1.0  0.66700  0.33300  0.33300  1.0000
  Au  Au3       1.0  0.33300  0.66700  0.66700  1.0000
  Ce  Ce1       1.0  0.33300  0.66700  0.16700  1.0000
  Ce  Ce2       1.0  0.00000  0.00000  0.50000  1.0000
  Ce  Ce3       1.0  0.66700  0.33300  0.83300  1.0000
  Ge  Ge1       1.0  0.66700  0.33300  0.10800  1.0000
  Ge  Ge2       1.0  0.00000  0.00000  0.22600  1.0000
  Ge  Ge3       1.0  0.33300  0.66700  0.44100  1.0000
  Ge  Ge4       1.0  0.66700  0.33300  0.55900  1.0000
  Ge  Ge5       1.0  0.00000  0.00000  0.77400  1.0000
  Ge  Ge6       1.0  0.33300  0.66700  0.89200  1.0000
