data_image0
_chemical_formula_structural       Cl4Lu4O12Se4
_chemical_formula_sum              "Cl4 Lu4 O12 Se4"
_cell_length_a       7.06971
_cell_length_b       6.79223
_cell_length_c       8.62877
_cell_angle_alpha    90
_cell_angle_beta     90
_cell_angle_gamma    90

_space_group_name_H-M_alt    "P 1"
_space_group_IT_number       1

loop_
  _space_group_symop_operation_xyz
  'x, y, z'

loop_
  _atom_site_type_symbol
  _atom_site_label
  _atom_site_symmetry_multiplicity
  _atom_site_fract_x
  _atom_site_fract_y
  _atom_site_fract_z
  _atom_site_occupancy
  Cl  Cl1       1.0  0.94000  0.25000  0.18100  1.0000
  Cl  Cl2       1.0  0.44000  0.25000  0.31900  1.0000
  Cl  Cl3       1.0  0.56000  0.75000  0.68100  1.0000
  Cl  Cl4       1.0  0.06010  0.75000  0.81900  1.0000
  Lu  Lu1       1.0  0.59900  0.25000  0.04060  1.0000
  Lu  Lu2       1.0  0.09950  0.25000  0.45900  1.0000
  Lu  Lu3       1.0  0.90100  0.75000  0.54100  1.0000
  Lu  Lu4       1.0  0.40100  0.75000  0.95900  1.0000
  O   O1        1.0  0.64300  0.57000  0.06620  1.0000
  O   O2        1.0  0.64300  0.93000  0.06620  1.0000
  O   O3        1.0  0.24700  0.75000  0.17300  1.0000
  O   O4        1.0  0.74700  0.75000  0.32700  1.0000
  O   O5        1.0  0.14300  0.57000  0.43400  1.0000
  O   O6        1.0  0.14300  0.93000  0.43400  1.0000
  O   O7        1.0  0.85700  0.06960  0.56600  1.0000
  O   O8        1.0  0.85700  0.43000  0.56600  1.0000
  O   O9        1.0  0.25300  0.25000  0.67300  1.0000
  O   O10       1.0  0.75300  0.25000  0.82700  1.0000
  O   O11       1.0  0.35700  0.06960  0.93400  1.0000
  O   O12       1.0  0.35700  0.43000  0.93400  1.0000
  Se  Se1       1.0  0.79800  0.75000  0.13500  1.0000
  Se  Se2       1.0  0.29800  0.75000  0.36500  1.0000
  Se  Se3       1.0  0.70200  0.25000  0.63500  1.0000
  Se  Se4       1.0  0.20200  0.25000  0.86500  1.0000
