data_image0
_chemical_formula_structural       Br10CoGd6
_chemical_formula_sum              "Br10 Co1 Gd6"
_cell_length_a       7.38187
_cell_length_b       9.114
_cell_length_c       9.26777
_cell_angle_alpha    108.525
_cell_angle_beta     97.3045
_cell_angle_gamma    105.648

_space_group_name_H-M_alt    "P 1"
_space_group_IT_number       1

loop_
  _space_group_symop_operation_xyz
  'x, y, z'

loop_
  _atom_site_type_symbol
  _atom_site_label
  _atom_site_symmetry_multiplicity
  _atom_site_fract_x
  _atom_site_fract_y
  _atom_site_fract_z
  _atom_site_occupancy
  Br  Br1       1.0  0.24300  0.91400  0.04070  1.0000
  Br  Br2       1.0  0.70500  0.73700  0.15000  1.0000
  Br  Br3       1.0  0.14200  0.54000  0.22600  1.0000
  Br  Br4       1.0  0.58600  0.37000  0.32700  1.0000
  Br  Br5       1.0  0.04890  0.17900  0.41600  1.0000
  Br  Br6       1.0  0.95100  0.82100  0.58400  1.0000
  Br  Br7       1.0  0.41400  0.63000  0.67300  1.0000
  Br  Br8       1.0  0.85800  0.46000  0.77400  1.0000
  Br  Br9       1.0  0.29500  0.26300  0.85000  1.0000
  Br  Br10      1.0  0.75700  0.08590  0.95900  1.0000
  Co  Co1       1.0  0.50000  0.00000  0.50000  1.0000
  Gd  Gd1       1.0  0.62300  0.04490  0.25400  1.0000
  Gd  Gd2       1.0  0.13800  0.86300  0.32000  1.0000
  Gd  Gd3       1.0  0.52800  0.71300  0.41100  1.0000
  Gd  Gd4       1.0  0.47200  0.28700  0.58900  1.0000
  Gd  Gd5       1.0  0.86200  0.13700  0.68000  1.0000
  Gd  Gd6       1.0  0.37700  0.95500  0.74600  1.0000
