data_image0
_chemical_formula_structural       Co2O7P2
_chemical_formula_sum              "Co2 O7 P2"
_cell_length_a       4.47565
_cell_length_b       5.30126
_cell_length_c       5.30126
_cell_angle_alpha    104.178
_cell_angle_beta     97.761
_cell_angle_gamma    97.761

_space_group_name_H-M_alt    "P 1"
_space_group_IT_number       1

loop_
  _space_group_symop_operation_xyz
  'x, y, z'

loop_
  _atom_site_type_symbol
  _atom_site_label
  _atom_site_symmetry_multiplicity
  _atom_site_fract_x
  _atom_site_fract_y
  _atom_site_fract_z
  _atom_site_occupancy
  Co  Co1       1.0  0.50000  0.68700  0.31300  1.0000
  Co  Co2       1.0  0.50000  0.31300  0.68700  1.0000
  O   O1        1.0  0.00000  0.00000  0.00000  1.0000
  O   O2        1.0  0.72100  0.38000  0.07400  1.0000
  O   O3        1.0  0.21300  0.37800  0.37800  1.0000
  O   O4        1.0  0.72100  0.07400  0.38000  1.0000
  O   O5        1.0  0.27900  0.92600  0.62000  1.0000
  O   O6        1.0  0.78700  0.62200  0.62200  1.0000
  O   O7        1.0  0.27900  0.62000  0.92600  1.0000
  P   P1        1.0  0.90600  0.21800  0.21800  1.0000
  P   P2        1.0  0.09450  0.78200  0.78200  1.0000
