data_image0
_chemical_formula_structural       As8Co8Se8
_chemical_formula_sum              "As8 Co8 Se8"
_cell_length_a       5.75595
_cell_length_b       5.84007
_cell_length_c       11.4857
_cell_angle_alpha    90
_cell_angle_beta     90
_cell_angle_gamma    90

_space_group_name_H-M_alt    "P 1"
_space_group_IT_number       1

loop_
  _space_group_symop_operation_xyz
  'x, y, z'

loop_
  _atom_site_type_symbol
  _atom_site_label
  _atom_site_symmetry_multiplicity
  _atom_site_fract_x
  _atom_site_fract_y
  _atom_site_fract_z
  _atom_site_occupancy
  As  As1       1.0  0.86600  0.31500  0.06490  1.0000
  As  As2       1.0  0.63400  0.81500  0.06490  1.0000
  As  As3       1.0  0.36600  0.31500  0.43500  1.0000
  As  As4       1.0  0.13400  0.81500  0.43500  1.0000
  As  As5       1.0  0.86600  0.18500  0.56500  1.0000
  As  As6       1.0  0.63400  0.68500  0.56500  1.0000
  As  As7       1.0  0.36600  0.18500  0.93500  1.0000
  As  As8       1.0  0.13400  0.68500  0.93500  1.0000
  Co  Co1       1.0  0.50200  0.17500  0.12700  1.0000
  Co  Co2       1.0  0.99800  0.67500  0.12700  1.0000
  Co  Co3       1.0  0.00246  0.17500  0.37300  1.0000
  Co  Co4       1.0  0.49800  0.67500  0.37300  1.0000
  Co  Co5       1.0  0.50200  0.32500  0.62700  1.0000
  Co  Co6       1.0  0.99800  0.82500  0.62700  1.0000
  Co  Co7       1.0  0.00246  0.32500  0.87300  1.0000
  Co  Co8       1.0  0.49800  0.82500  0.87300  1.0000
  Se  Se1       1.0  0.12200  0.05630  0.18000  1.0000
  Se  Se2       1.0  0.37800  0.55600  0.18000  1.0000
  Se  Se3       1.0  0.62200  0.05630  0.32000  1.0000
  Se  Se4       1.0  0.87800  0.55600  0.32000  1.0000
  Se  Se5       1.0  0.12200  0.44400  0.68000  1.0000
  Se  Se6       1.0  0.37800  0.94400  0.68000  1.0000
  Se  Se7       1.0  0.62200  0.44400  0.82000  1.0000
  Se  Se8       1.0  0.87800  0.94400  0.82000  1.0000
