data_image0
_chemical_formula_structural       Ba2O16P4Th2
_chemical_formula_sum              "Ba2 O16 P4 Th2"
_cell_length_a       5.44264
_cell_length_b       6.91803
_cell_length_c       9.46135
_cell_angle_alpha    101.066
_cell_angle_beta     90
_cell_angle_gamma    113.164

_space_group_name_H-M_alt    "P 1"
_space_group_IT_number       1

loop_
  _space_group_symop_operation_xyz
  'x, y, z'

loop_
  _atom_site_type_symbol
  _atom_site_label
  _atom_site_symmetry_multiplicity
  _atom_site_fract_x
  _atom_site_fract_y
  _atom_site_fract_z
  _atom_site_occupancy
  Ba  Ba1       1.0  0.50000  0.50000  0.00000  1.0000
  Ba  Ba2       1.0  0.00000  0.50000  0.50000  1.0000
  O   O1        1.0  0.14600  0.73700  0.03550  1.0000
  O   O2        1.0  0.78100  0.94800  0.08650  1.0000
  O   O3        1.0  0.59500  0.22900  0.18300  1.0000
  O   O4        1.0  0.09780  0.31300  0.20700  1.0000
  O   O5        1.0  0.78500  0.68700  0.29300  1.0000
  O   O6        1.0  0.36600  0.77100  0.31700  1.0000
  O   O7        1.0  0.83300  0.05170  0.41400  1.0000
  O   O8        1.0  0.40900  0.26300  0.46400  1.0000
  O   O9        1.0  0.59100  0.73700  0.53600  1.0000
  O   O10       1.0  0.16700  0.94800  0.58600  1.0000
  O   O11       1.0  0.63400  0.22900  0.68300  1.0000
  O   O12       1.0  0.21500  0.31300  0.70700  1.0000
  O   O13       1.0  0.90200  0.68700  0.79300  1.0000
  O   O14       1.0  0.40500  0.77100  0.81700  1.0000
  O   O15       1.0  0.21900  0.05170  0.91400  1.0000
  O   O16       1.0  0.85400  0.26300  0.96400  1.0000
  P   P1        1.0  0.82900  0.19000  0.11000  1.0000
  P   P2        1.0  0.63900  0.81000  0.39000  1.0000
  P   P3        1.0  0.36100  0.19000  0.61000  1.0000
  P   P4        1.0  0.17100  0.81000  0.89000  1.0000
  Th  Th1       1.0  0.17600  0.00000  0.25000  1.0000
  Th  Th2       1.0  0.82400  0.00000  0.75000  1.0000
