data_image0
_chemical_formula_structural       Cd4Gd16Ni4
_chemical_formula_sum              "Cd4 Gd16 Ni4"
_cell_length_a       9.61876
_cell_length_b       9.61876
_cell_length_c       9.61876
_cell_angle_alpha    120
_cell_angle_beta     90
_cell_angle_gamma    120

_space_group_name_H-M_alt    "P 1"
_space_group_IT_number       1

loop_
  _space_group_symop_operation_xyz
  'x, y, z'

loop_
  _atom_site_type_symbol
  _atom_site_label
  _atom_site_symmetry_multiplicity
  _atom_site_fract_x
  _atom_site_fract_y
  _atom_site_fract_z
  _atom_site_occupancy
  Cd  Cd1       1.0  0.41900  0.83800  0.25700  1.0000
  Cd  Cd2       1.0  0.41900  0.16200  0.58100  1.0000
  Cd  Cd3       1.0  0.74300  0.16200  0.58100  1.0000
  Cd  Cd4       1.0  0.41900  0.83800  0.58100  1.0000
  Gd  Gd1       1.0  0.18900  0.00000  0.18900  1.0000
  Gd  Gd2       1.0  0.81100  0.00000  0.18900  1.0000
  Gd  Gd3       1.0  0.18900  0.37900  0.18900  1.0000
  Gd  Gd4       1.0  0.65200  0.30300  0.34800  1.0000
  Gd  Gd5       1.0  0.04520  0.69700  0.34800  1.0000
  Gd  Gd6       1.0  0.65200  0.69700  0.34800  1.0000
  Gd  Gd7       1.0  0.06390  0.12800  0.56400  1.0000
  Gd  Gd8       1.0  0.06390  0.50000  0.56400  1.0000
  Gd  Gd9       1.0  0.43600  0.50000  0.56400  1.0000
  Gd  Gd10      1.0  0.18900  0.00000  0.81100  1.0000
  Gd  Gd11      1.0  0.81100  0.00000  0.81100  1.0000
  Gd  Gd12      1.0  0.81100  0.62100  0.81100  1.0000
  Gd  Gd13      1.0  0.06390  0.50000  0.93600  1.0000
  Gd  Gd14      1.0  0.43600  0.50000  0.93600  1.0000
  Gd  Gd15      1.0  0.43600  0.87200  0.93600  1.0000
  Gd  Gd16      1.0  0.65200  0.30300  0.95500  1.0000
  Ni  Ni1       1.0  0.42800  0.28500  0.14300  1.0000
  Ni  Ni2       1.0  0.85700  0.28500  0.14300  1.0000
  Ni  Ni3       1.0  0.85700  0.71500  0.14300  1.0000
  Ni  Ni4       1.0  0.85700  0.71500  0.57200  1.0000
