data_image0
_chemical_formula_structural       Cd4Gd16Pt4
_chemical_formula_sum              "Cd4 Gd16 Pt4"
_cell_length_a       9.76351
_cell_length_b       9.76351
_cell_length_c       9.76351
_cell_angle_alpha    120
_cell_angle_beta     90
_cell_angle_gamma    120

_space_group_name_H-M_alt    "P 1"
_space_group_IT_number       1

loop_
  _space_group_symop_operation_xyz
  'x, y, z'

loop_
  _atom_site_type_symbol
  _atom_site_label
  _atom_site_symmetry_multiplicity
  _atom_site_fract_x
  _atom_site_fract_y
  _atom_site_fract_z
  _atom_site_occupancy
  Cd  Cd1       1.0  0.58100  0.16300  0.41900  1.0000
  Cd  Cd2       1.0  0.25600  0.83700  0.41900  1.0000
  Cd  Cd3       1.0  0.58100  0.83700  0.41900  1.0000
  Cd  Cd4       1.0  0.58100  0.16300  0.74400  1.0000
  Gd  Gd1       1.0  0.35100  0.70300  0.05440  1.0000
  Gd  Gd2       1.0  0.93500  0.50000  0.06480  1.0000
  Gd  Gd3       1.0  0.56500  0.13000  0.06480  1.0000
  Gd  Gd4       1.0  0.56500  0.50000  0.06480  1.0000
  Gd  Gd5       1.0  0.19100  0.00000  0.19100  1.0000
  Gd  Gd6       1.0  0.19100  0.38200  0.19100  1.0000
  Gd  Gd7       1.0  0.80900  0.00000  0.19100  1.0000
  Gd  Gd8       1.0  0.56500  0.50000  0.43500  1.0000
  Gd  Gd9       1.0  0.93500  0.50000  0.43500  1.0000
  Gd  Gd10      1.0  0.93500  0.87000  0.43500  1.0000
  Gd  Gd11      1.0  0.35100  0.29700  0.64900  1.0000
  Gd  Gd12      1.0  0.94600  0.29700  0.64900  1.0000
  Gd  Gd13      1.0  0.35100  0.70300  0.64900  1.0000
  Gd  Gd14      1.0  0.19100  0.00000  0.80900  1.0000
  Gd  Gd15      1.0  0.80900  0.00000  0.80900  1.0000
  Gd  Gd16      1.0  0.80900  0.61800  0.80900  1.0000
  Pt  Pt1       1.0  0.14300  0.28600  0.42900  1.0000
  Pt  Pt2       1.0  0.14300  0.28600  0.85700  1.0000
  Pt  Pt3       1.0  0.14300  0.71400  0.85700  1.0000
  Pt  Pt4       1.0  0.57100  0.71400  0.85700  1.0000
