data_image0
_chemical_formula_structural       Cs6NiO8Si2
_chemical_formula_sum              "Cs6 Ni1 O8 Si2"
_cell_length_a       6.85478
_cell_length_b       6.9984
_cell_length_c       8.0161
_cell_angle_alpha    87.4572
_cell_angle_beta     88.7479
_cell_angle_gamma    70.053

_space_group_name_H-M_alt    "P 1"
_space_group_IT_number       1

loop_
  _space_group_symop_operation_xyz
  'x, y, z'

loop_
  _atom_site_type_symbol
  _atom_site_label
  _atom_site_symmetry_multiplicity
  _atom_site_fract_x
  _atom_site_fract_y
  _atom_site_fract_z
  _atom_site_occupancy
  Cs  Cs1       1.0  0.20200  0.70300  0.00956  1.0000
  Cs  Cs2       1.0  0.66000  0.83000  0.16600  1.0000
  Cs  Cs3       1.0  0.71900  0.20900  0.47800  1.0000
  Cs  Cs4       1.0  0.28100  0.79100  0.52200  1.0000
  Cs  Cs5       1.0  0.34000  0.17000  0.83400  1.0000
  Cs  Cs6       1.0  0.79800  0.29700  0.99000  1.0000
  Ni  Ni1       1.0  0.00000  0.50000  0.50000  1.0000
  O   O1        1.0  0.42500  0.29800  0.18700  1.0000
  O   O2        1.0  0.18300  0.06210  0.20600  1.0000
  O   O3        1.0  0.00803  0.47100  0.26200  1.0000
  O   O4        1.0  0.23800  0.25200  0.48700  1.0000
  O   O5        1.0  0.76200  0.74800  0.51300  1.0000
  O   O6        1.0  0.99200  0.52900  0.73800  1.0000
  O   O7        1.0  0.81700  0.93800  0.79400  1.0000
  O   O8        1.0  0.57500  0.70200  0.81300  1.0000
  Si  Si1       1.0  0.22300  0.26200  0.27700  1.0000
  Si  Si2       1.0  0.77700  0.73800  0.72300  1.0000
