data_image0
_chemical_formula_structural       Na2S14Si2Sm6
_chemical_formula_sum              "Na2 S14 Si2 Sm6"
_cell_length_a       10.1532
_cell_length_b       10.1532
_cell_length_c       5.73789
_cell_angle_alpha    90
_cell_angle_beta     90
_cell_angle_gamma    120

_space_group_name_H-M_alt    "P 1"
_space_group_IT_number       1

loop_
  _space_group_symop_operation_xyz
  'x, y, z'

loop_
  _atom_site_type_symbol
  _atom_site_label
  _atom_site_symmetry_multiplicity
  _atom_site_fract_x
  _atom_site_fract_y
  _atom_site_fract_z
  _atom_site_occupancy
  Na  Na1       1.0  0.00000  0.00000  0.01860  1.0000
  Na  Na2       1.0  0.00000  0.00000  0.51900  1.0000
  S   S1        1.0  0.47800  0.59000  0.01660  1.0000
  S   S2        1.0  0.41000  0.88800  0.01660  1.0000
  S   S3        1.0  0.11200  0.52200  0.01660  1.0000
  S   S4        1.0  0.66700  0.33300  0.03230  1.0000
  S   S5        1.0  0.16900  0.26100  0.27100  1.0000
  S   S6        1.0  0.09130  0.83100  0.27100  1.0000
  S   S7        1.0  0.73900  0.90900  0.27100  1.0000
  S   S8        1.0  0.59000  0.11200  0.51700  1.0000
  S   S9        1.0  0.52200  0.41000  0.51700  1.0000
  S   S10       1.0  0.88800  0.47800  0.51700  1.0000
  S   S11       1.0  0.33300  0.66700  0.53200  1.0000
  S   S12       1.0  0.26100  0.09130  0.77100  1.0000
  S   S13       1.0  0.90900  0.16900  0.77100  1.0000
  S   S14       1.0  0.83100  0.73900  0.77100  1.0000
  Si  Si1       1.0  0.33300  0.66700  0.16400  1.0000
  Si  Si2       1.0  0.66700  0.33300  0.66400  1.0000
  Sm  Sm1       1.0  0.87300  0.23400  0.25100  1.0000
  Sm  Sm2       1.0  0.76600  0.63900  0.25100  1.0000
  Sm  Sm3       1.0  0.36100  0.12700  0.25100  1.0000
  Sm  Sm4       1.0  0.23400  0.36100  0.75100  1.0000
  Sm  Sm5       1.0  0.12700  0.76600  0.75100  1.0000
  Sm  Sm6       1.0  0.63900  0.87300  0.75100  1.0000
