data_image0
_chemical_formula_structural       In2Li2O16W4
_chemical_formula_sum              "In2 Li2 O16 W4"
_cell_length_a       4.95741
_cell_length_b       7.50975
_cell_length_c       7.50975
_cell_angle_alpha    101.059
_cell_angle_beta     90.6662
_cell_angle_gamma    90.6662

_space_group_name_H-M_alt    "P 1"
_space_group_IT_number       1

loop_
  _space_group_symop_operation_xyz
  'x, y, z'

loop_
  _atom_site_type_symbol
  _atom_site_label
  _atom_site_symmetry_multiplicity
  _atom_site_fract_x
  _atom_site_fract_y
  _atom_site_fract_z
  _atom_site_occupancy
  In  In1       1.0  0.25000  0.66200  0.33800  1.0000
  In  In2       1.0  0.75000  0.33800  0.66200  1.0000
  Li  Li1       1.0  0.75000  0.84300  0.15700  1.0000
  Li  Li2       1.0  0.25000  0.15700  0.84300  1.0000
  O   O1        1.0  0.40600  0.69200  0.07050  1.0000
  O   O2        1.0  0.06000  0.19200  0.09020  1.0000
  O   O3        1.0  0.89400  0.55800  0.18400  1.0000
  O   O4        1.0  0.56000  0.09020  0.19200  1.0000
  O   O5        1.0  0.44100  0.40700  0.30600  1.0000
  O   O6        1.0  0.09360  0.93000  0.30800  1.0000
  O   O7        1.0  0.94100  0.30600  0.40700  1.0000
  O   O8        1.0  0.60600  0.81600  0.44200  1.0000
  O   O9        1.0  0.39400  0.18400  0.55800  1.0000
  O   O10       1.0  0.05900  0.69400  0.59300  1.0000
  O   O11       1.0  0.90600  0.07050  0.69200  1.0000
  O   O12       1.0  0.55900  0.59300  0.69400  1.0000
  O   O13       1.0  0.44000  0.91000  0.80800  1.0000
  O   O14       1.0  0.10600  0.44200  0.81600  1.0000
  O   O15       1.0  0.94000  0.80800  0.91000  1.0000
  O   O16       1.0  0.59400  0.30800  0.93000  1.0000
  W   W1        1.0  0.75000  0.33100  0.15000  1.0000
  W   W2        1.0  0.25000  0.15000  0.33100  1.0000
  W   W3        1.0  0.75000  0.85000  0.66900  1.0000
  W   W4        1.0  0.25000  0.66900  0.85000  1.0000
