data_image0
_chemical_formula_structural       B16Eu4Ru4
_chemical_formula_sum              "B16 Eu4 Ru4"
_cell_length_a       6.02
_cell_length_b       11.6686
_cell_length_c       3.59381
_cell_angle_alpha    90
_cell_angle_beta     90
_cell_angle_gamma    90

_space_group_name_H-M_alt    "P 1"
_space_group_IT_number       1

loop_
  _space_group_symop_operation_xyz
  'x, y, z'

loop_
  _atom_site_type_symbol
  _atom_site_label
  _atom_site_symmetry_multiplicity
  _atom_site_fract_x
  _atom_site_fract_y
  _atom_site_fract_z
  _atom_site_occupancy
  B   B1        1.0  0.86200  0.03180  0.50000  1.0000
  B   B2        1.0  0.38900  0.04610  0.50000  1.0000
  B   B3        1.0  0.78200  0.18300  0.50000  1.0000
  B   B4        1.0  0.47700  0.19000  0.50000  1.0000
  B   B5        1.0  0.97700  0.31000  0.50000  1.0000
  B   B6        1.0  0.28200  0.31700  0.50000  1.0000
  B   B7        1.0  0.88900  0.45400  0.50000  1.0000
  B   B8        1.0  0.36200  0.46800  0.50000  1.0000
  B   B9        1.0  0.63800  0.53200  0.50000  1.0000
  B   B10       1.0  0.11100  0.54600  0.50000  1.0000
  B   B11       1.0  0.71800  0.68300  0.50000  1.0000
  B   B12       1.0  0.02340  0.69000  0.50000  1.0000
  B   B13       1.0  0.52300  0.81000  0.50000  1.0000
  B   B14       1.0  0.21800  0.81700  0.50000  1.0000
  B   B15       1.0  0.61100  0.95400  0.50000  1.0000
  B   B16       1.0  0.13800  0.96800  0.50000  1.0000
  Eu  Eu1       1.0  0.12800  0.15100  0.00000  1.0000
  Eu  Eu2       1.0  0.62800  0.34900  0.00000  1.0000
  Eu  Eu3       1.0  0.37200  0.65100  0.00000  1.0000
  Eu  Eu4       1.0  0.87200  0.84900  0.00000  1.0000
  Ru  Ru1       1.0  0.63200  0.08620  0.00000  1.0000
  Ru  Ru2       1.0  0.13200  0.41400  0.00000  1.0000
  Ru  Ru3       1.0  0.86800  0.58600  0.00000  1.0000
  Ru  Ru4       1.0  0.36800  0.91400  0.00000  1.0000
