data_image0
_chemical_formula_structural       Ba4Be4F16
_chemical_formula_sum              "Ba4 Be4 F16"
_cell_length_a       8.71527
_cell_length_b       5.15836
_cell_length_c       6.90858
_cell_angle_alpha    90
_cell_angle_beta     90
_cell_angle_gamma    90

_space_group_name_H-M_alt    "P 1"
_space_group_IT_number       1

loop_
  _space_group_symop_operation_xyz
  'x, y, z'

loop_
  _atom_site_type_symbol
  _atom_site_label
  _atom_site_symmetry_multiplicity
  _atom_site_fract_x
  _atom_site_fract_y
  _atom_site_fract_z
  _atom_site_occupancy
  Ba  Ba1       1.0  0.18600  0.25000  0.15500  1.0000
  Ba  Ba2       1.0  0.68600  0.25000  0.34500  1.0000
  Ba  Ba3       1.0  0.31400  0.75000  0.65500  1.0000
  Ba  Ba4       1.0  0.81400  0.75000  0.84500  1.0000
  Be  Be1       1.0  0.44500  0.75000  0.19400  1.0000
  Be  Be2       1.0  0.94500  0.75000  0.30600  1.0000
  Be  Be3       1.0  0.05550  0.25000  0.69400  1.0000
  Be  Be4       1.0  0.55500  0.25000  0.80600  1.0000
  F   F1        1.0  0.32000  0.75000  0.03670  1.0000
  F   F2        1.0  0.61100  0.75000  0.12500  1.0000
  F   F3        1.0  0.91900  0.50900  0.17600  1.0000
  F   F4        1.0  0.91900  0.99100  0.17600  1.0000
  F   F5        1.0  0.41900  0.50900  0.32400  1.0000
  F   F6        1.0  0.41900  0.99100  0.32400  1.0000
  F   F7        1.0  0.11100  0.75000  0.37500  1.0000
  F   F8        1.0  0.82000  0.75000  0.46300  1.0000
  F   F9        1.0  0.18000  0.25000  0.53700  1.0000
  F   F10       1.0  0.88900  0.25000  0.62500  1.0000
  F   F11       1.0  0.58100  0.00863  0.67600  1.0000
  F   F12       1.0  0.58100  0.49100  0.67600  1.0000
  F   F13       1.0  0.08060  0.00863  0.82400  1.0000
  F   F14       1.0  0.08060  0.49100  0.82400  1.0000
  F   F15       1.0  0.38900  0.25000  0.87500  1.0000
  F   F16       1.0  0.68000  0.25000  0.96300  1.0000
