data_image0
_chemical_formula_structural       Co2Na12Se8
_chemical_formula_sum              "Co2 Na12 Se8"
_cell_length_a       9.25801
_cell_length_b       9.25801
_cell_length_c       7.12564
_cell_angle_alpha    90
_cell_angle_beta     90
_cell_angle_gamma    120

_space_group_name_H-M_alt    "P 1"
_space_group_IT_number       1

loop_
  _space_group_symop_operation_xyz
  'x, y, z'

loop_
  _atom_site_type_symbol
  _atom_site_label
  _atom_site_symmetry_multiplicity
  _atom_site_fract_x
  _atom_site_fract_y
  _atom_site_fract_z
  _atom_site_occupancy
  Co  Co1       1.0  0.33300  0.66700  0.25100  1.0000
  Co  Co2       1.0  0.66700  0.33300  0.75100  1.0000
  Na  Na1       1.0  0.29500  0.14800  0.04200  1.0000
  Na  Na2       1.0  0.85200  0.14800  0.04200  1.0000
  Na  Na3       1.0  0.85200  0.70500  0.04200  1.0000
  Na  Na4       1.0  0.52900  0.05780  0.36800  1.0000
  Na  Na5       1.0  0.52900  0.47100  0.36800  1.0000
  Na  Na6       1.0  0.94200  0.47100  0.36800  1.0000
  Na  Na7       1.0  0.14800  0.85200  0.54200  1.0000
  Na  Na8       1.0  0.70500  0.85200  0.54200  1.0000
  Na  Na9       1.0  0.14800  0.29500  0.54200  1.0000
  Na  Na10      1.0  0.47100  0.94200  0.86800  1.0000
  Na  Na11      1.0  0.05780  0.52900  0.86800  1.0000
  Na  Na12      1.0  0.47100  0.52900  0.86800  1.0000
  Se  Se1       1.0  0.66700  0.33300  0.09160  1.0000
  Se  Se2       1.0  0.18900  0.37800  0.14400  1.0000
  Se  Se3       1.0  0.18900  0.81100  0.14400  1.0000
  Se  Se4       1.0  0.62200  0.81100  0.14400  1.0000
  Se  Se5       1.0  0.33300  0.66700  0.59200  1.0000
  Se  Se6       1.0  0.81100  0.62200  0.64400  1.0000
  Se  Se7       1.0  0.37800  0.18900  0.64400  1.0000
  Se  Se8       1.0  0.81100  0.18900  0.64400  1.0000
