data_image0
_chemical_formula_structural       Ag2La6Se14Sn2
_chemical_formula_sum              "Ag2 La6 Se14 Sn2"
_cell_length_a       10.888
_cell_length_b       10.888
_cell_length_c       6.29217
_cell_angle_alpha    90
_cell_angle_beta     90
_cell_angle_gamma    120

_space_group_name_H-M_alt    "P 1"
_space_group_IT_number       1

loop_
  _space_group_symop_operation_xyz
  'x, y, z'

loop_
  _atom_site_type_symbol
  _atom_site_label
  _atom_site_symmetry_multiplicity
  _atom_site_fract_x
  _atom_site_fract_y
  _atom_site_fract_z
  _atom_site_occupancy
  Ag  Ag1       1.0  0.00000  0.00000  0.05200  1.0000
  Ag  Ag2       1.0  0.00000  0.00000  0.55200  1.0000
  La  La1       1.0  0.64300  0.86600  0.11800  1.0000
  La  La2       1.0  0.13400  0.77700  0.11800  1.0000
  La  La3       1.0  0.22300  0.35700  0.11800  1.0000
  La  La4       1.0  0.35700  0.13400  0.61800  1.0000
  La  La5       1.0  0.86600  0.22300  0.61800  1.0000
  La  La6       1.0  0.77700  0.64300  0.61800  1.0000
  Se  Se1       1.0  0.89600  0.16600  0.09550  1.0000
  Se  Se2       1.0  0.83400  0.73000  0.09550  1.0000
  Se  Se3       1.0  0.27000  0.10400  0.09550  1.0000
  Se  Se4       1.0  0.33300  0.66700  0.29800  1.0000
  Se  Se5       1.0  0.91200  0.48600  0.37000  1.0000
  Se  Se6       1.0  0.51400  0.42600  0.37000  1.0000
  Se  Se7       1.0  0.57400  0.08750  0.37000  1.0000
  Se  Se8       1.0  0.16600  0.27000  0.59600  1.0000
  Se  Se9       1.0  0.10400  0.83400  0.59600  1.0000
  Se  Se10      1.0  0.73000  0.89600  0.59600  1.0000
  Se  Se11      1.0  0.66700  0.33300  0.79800  1.0000
  Se  Se12      1.0  0.08750  0.51400  0.87000  1.0000
  Se  Se13      1.0  0.48600  0.57400  0.87000  1.0000
  Se  Se14      1.0  0.42600  0.91300  0.87000  1.0000
  Sn  Sn1       1.0  0.66700  0.33300  0.19800  1.0000
  Sn  Sn2       1.0  0.33300  0.66700  0.69800  1.0000
