data_image0
_chemical_formula_structural       Cl4O12Se4Tm4
_chemical_formula_sum              "Cl4 O12 Se4 Tm4"
_cell_length_a       7.06351
_cell_length_b       6.84525
_cell_length_c       8.69416
_cell_angle_alpha    90
_cell_angle_beta     90
_cell_angle_gamma    90

_space_group_name_H-M_alt    "P 1"
_space_group_IT_number       1

loop_
  _space_group_symop_operation_xyz
  'x, y, z'

loop_
  _atom_site_type_symbol
  _atom_site_label
  _atom_site_symmetry_multiplicity
  _atom_site_fract_x
  _atom_site_fract_y
  _atom_site_fract_z
  _atom_site_occupancy
  Cl  Cl1       1.0  0.94500  0.25000  0.17900  1.0000
  Cl  Cl2       1.0  0.44500  0.25000  0.32100  1.0000
  Cl  Cl3       1.0  0.55500  0.75000  0.67900  1.0000
  Cl  Cl4       1.0  0.05470  0.75000  0.82100  1.0000
  O   O1        1.0  0.64500  0.57100  0.06520  1.0000
  O   O2        1.0  0.64500  0.92900  0.06520  1.0000
  O   O3        1.0  0.24800  0.75000  0.17500  1.0000
  O   O4        1.0  0.74800  0.75000  0.32500  1.0000
  O   O5        1.0  0.14500  0.57100  0.43500  1.0000
  O   O6        1.0  0.14500  0.92900  0.43500  1.0000
  O   O7        1.0  0.85500  0.07050  0.56500  1.0000
  O   O8        1.0  0.85500  0.42900  0.56500  1.0000
  O   O9        1.0  0.25200  0.25000  0.67500  1.0000
  O   O10       1.0  0.75200  0.25000  0.82500  1.0000
  O   O11       1.0  0.35500  0.07050  0.93500  1.0000
  O   O12       1.0  0.35500  0.42900  0.93500  1.0000
  Se  Se1       1.0  0.80000  0.75000  0.13400  1.0000
  Se  Se2       1.0  0.30000  0.75000  0.36600  1.0000
  Se  Se3       1.0  0.70000  0.25000  0.63400  1.0000
  Se  Se4       1.0  0.20000  0.25000  0.86600  1.0000
  Tm  Tm1       1.0  0.60000  0.25000  0.04090  1.0000
  Tm  Tm2       1.0  0.10000  0.25000  0.45900  1.0000
  Tm  Tm3       1.0  0.90000  0.75000  0.54100  1.0000
  Tm  Tm4       1.0  0.40000  0.75000  0.95900  1.0000
