data_image0
_chemical_formula_structural       Cl4Er4O12Se4
_chemical_formula_sum              "Cl4 Er4 O12 Se4"
_cell_length_a       7.09571
_cell_length_b       6.88544
_cell_length_c       8.73425
_cell_angle_alpha    90
_cell_angle_beta     90
_cell_angle_gamma    90

_space_group_name_H-M_alt    "P 1"
_space_group_IT_number       1

loop_
  _space_group_symop_operation_xyz
  'x, y, z'

loop_
  _atom_site_type_symbol
  _atom_site_label
  _atom_site_symmetry_multiplicity
  _atom_site_fract_x
  _atom_site_fract_y
  _atom_site_fract_z
  _atom_site_occupancy
  Cl  Cl1       1.0  0.94400  0.25000  0.18000  1.0000
  Cl  Cl2       1.0  0.44400  0.25000  0.32000  1.0000
  Cl  Cl3       1.0  0.55600  0.75000  0.68000  1.0000
  Cl  Cl4       1.0  0.05620  0.75000  0.82000  1.0000
  Er  Er1       1.0  0.60200  0.25000  0.04080  1.0000
  Er  Er2       1.0  0.10200  0.25000  0.45900  1.0000
  Er  Er3       1.0  0.89800  0.75000  0.54100  1.0000
  Er  Er4       1.0  0.39800  0.75000  0.95900  1.0000
  O   O1        1.0  0.64500  0.57100  0.06600  1.0000
  O   O2        1.0  0.64500  0.92900  0.06600  1.0000
  O   O3        1.0  0.24600  0.75000  0.17600  1.0000
  O   O4        1.0  0.74600  0.75000  0.32400  1.0000
  O   O5        1.0  0.14500  0.57100  0.43400  1.0000
  O   O6        1.0  0.14500  0.92900  0.43400  1.0000
  O   O7        1.0  0.85500  0.07100  0.56600  1.0000
  O   O8        1.0  0.85500  0.42900  0.56600  1.0000
  O   O9        1.0  0.25400  0.25000  0.67600  1.0000
  O   O10       1.0  0.75400  0.25000  0.82400  1.0000
  O   O11       1.0  0.35500  0.07100  0.93400  1.0000
  O   O12       1.0  0.35500  0.42900  0.93400  1.0000
  Se  Se1       1.0  0.79800  0.75000  0.13400  1.0000
  Se  Se2       1.0  0.29800  0.75000  0.36600  1.0000
  Se  Se3       1.0  0.70200  0.25000  0.63400  1.0000
  Se  Se4       1.0  0.20200  0.25000  0.86600  1.0000
