data_image0
_chemical_formula_structural       Ho16In4Rh4
_chemical_formula_sum              "Ho16 In4 Rh4"
_cell_length_a       9.59747
_cell_length_b       9.59747
_cell_length_c       9.59747
_cell_angle_alpha    120
_cell_angle_beta     90
_cell_angle_gamma    120

_space_group_name_H-M_alt    "P 1"
_space_group_IT_number       1

loop_
  _space_group_symop_operation_xyz
  'x, y, z'

loop_
  _atom_site_type_symbol
  _atom_site_label
  _atom_site_symmetry_multiplicity
  _atom_site_fract_x
  _atom_site_fract_y
  _atom_site_fract_z
  _atom_site_occupancy
  Ho  Ho1       1.0  0.35000  0.70000  0.04950  1.0000
  Ho  Ho2       1.0  0.93800  0.50000  0.06230  1.0000
  Ho  Ho3       1.0  0.56200  0.12500  0.06230  1.0000
  Ho  Ho4       1.0  0.56200  0.50000  0.06230  1.0000
  Ho  Ho5       1.0  0.19000  0.00000  0.19000  1.0000
  Ho  Ho6       1.0  0.19000  0.37900  0.19000  1.0000
  Ho  Ho7       1.0  0.81000  0.00000  0.19000  1.0000
  Ho  Ho8       1.0  0.56200  0.50000  0.43800  1.0000
  Ho  Ho9       1.0  0.93800  0.50000  0.43800  1.0000
  Ho  Ho10      1.0  0.93800  0.87500  0.43800  1.0000
  Ho  Ho11      1.0  0.35000  0.30000  0.65000  1.0000
  Ho  Ho12      1.0  0.95000  0.30000  0.65000  1.0000
  Ho  Ho13      1.0  0.35000  0.70000  0.65000  1.0000
  Ho  Ho14      1.0  0.81000  0.00000  0.81000  1.0000
  Ho  Ho15      1.0  0.19000  0.00000  0.81000  1.0000
  Ho  Ho16      1.0  0.81000  0.62100  0.81000  1.0000
  In  In1       1.0  0.58300  0.16600  0.41700  1.0000
  In  In2       1.0  0.25100  0.83400  0.41700  1.0000
  In  In3       1.0  0.58300  0.83400  0.41700  1.0000
  In  In4       1.0  0.58300  0.16600  0.74900  1.0000
  Rh  Rh1       1.0  0.14200  0.28500  0.42700  1.0000
  Rh  Rh2       1.0  0.14200  0.71500  0.85800  1.0000
  Rh  Rh3       1.0  0.57300  0.71500  0.85800  1.0000
  Rh  Rh4       1.0  0.14200  0.28500  0.85800  1.0000
