data_image0
_chemical_formula_structural       Cl4Gd4O12Se4
_chemical_formula_sum              "Cl4 Gd4 O12 Se4"
_cell_length_a       7.16153
_cell_length_b       7.01752
_cell_length_c       8.87832
_cell_angle_alpha    90
_cell_angle_beta     90
_cell_angle_gamma    90

_space_group_name_H-M_alt    "P 1"
_space_group_IT_number       1

loop_
  _space_group_symop_operation_xyz
  'x, y, z'

loop_
  _atom_site_type_symbol
  _atom_site_label
  _atom_site_symmetry_multiplicity
  _atom_site_fract_x
  _atom_site_fract_y
  _atom_site_fract_z
  _atom_site_occupancy
  Cl  Cl1       1.0  0.95100  0.25000  0.17800  1.0000
  Cl  Cl2       1.0  0.45100  0.25000  0.32200  1.0000
  Cl  Cl3       1.0  0.54900  0.75000  0.67800  1.0000
  Cl  Cl4       1.0  0.04940  0.75000  0.82200  1.0000
  Gd  Gd1       1.0  0.60500  0.25000  0.04080  1.0000
  Gd  Gd2       1.0  0.10500  0.25000  0.45900  1.0000
  Gd  Gd3       1.0  0.89500  0.75000  0.54100  1.0000
  Gd  Gd4       1.0  0.39500  0.75000  0.95900  1.0000
  O   O1        1.0  0.64700  0.57300  0.06560  1.0000
  O   O2        1.0  0.64700  0.92700  0.06560  1.0000
  O   O3        1.0  0.24500  0.75000  0.18000  1.0000
  O   O4        1.0  0.74500  0.75000  0.32000  1.0000
  O   O5        1.0  0.14700  0.57300  0.43400  1.0000
  O   O6        1.0  0.14700  0.92700  0.43400  1.0000
  O   O7        1.0  0.85300  0.07270  0.56600  1.0000
  O   O8        1.0  0.85300  0.42700  0.56600  1.0000
  O   O9        1.0  0.25500  0.25000  0.68000  1.0000
  O   O10       1.0  0.75500  0.25000  0.82000  1.0000
  O   O11       1.0  0.35300  0.07270  0.93400  1.0000
  O   O12       1.0  0.35300  0.42700  0.93400  1.0000
  Se  Se1       1.0  0.79700  0.75000  0.13300  1.0000
  Se  Se2       1.0  0.29700  0.75000  0.36700  1.0000
  Se  Se3       1.0  0.70300  0.25000  0.63300  1.0000
  Se  Se4       1.0  0.20300  0.25000  0.86700  1.0000
