data_image0
_chemical_formula_structural       Bi4O16Ta4
_chemical_formula_sum              "Bi4 O16 Ta4"
_cell_length_a       5.65816
_cell_length_b       11.7512
_cell_length_c       4.96225
_cell_angle_alpha    90
_cell_angle_beta     90
_cell_angle_gamma    90

_space_group_name_H-M_alt    "P 1"
_space_group_IT_number       1

loop_
  _space_group_symop_operation_xyz
  'x, y, z'

loop_
  _atom_site_type_symbol
  _atom_site_label
  _atom_site_symmetry_multiplicity
  _atom_site_fract_x
  _atom_site_fract_y
  _atom_site_fract_z
  _atom_site_occupancy
  Bi  Bi1       1.0  0.75000  0.50000  0.23000  1.0000
  Bi  Bi2       1.0  0.75000  0.00000  0.27000  1.0000
  Bi  Bi3       1.0  0.25000  0.00000  0.73000  1.0000
  Bi  Bi4       1.0  0.25000  0.50000  0.77000  1.0000
  O   O1        1.0  0.64000  0.19300  0.00560  1.0000
  O   O2        1.0  0.86000  0.80700  0.00560  1.0000
  O   O3        1.0  0.41600  0.40200  0.08460  1.0000
  O   O4        1.0  0.08420  0.59800  0.08460  1.0000
  O   O5        1.0  0.41600  0.09800  0.41500  1.0000
  O   O6        1.0  0.08420  0.90200  0.41500  1.0000
  O   O7        1.0  0.64000  0.30700  0.49400  1.0000
  O   O8        1.0  0.86000  0.69300  0.49400  1.0000
  O   O9        1.0  0.14000  0.30700  0.50600  1.0000
  O   O10       1.0  0.36000  0.69300  0.50600  1.0000
  O   O11       1.0  0.91600  0.09800  0.58500  1.0000
  O   O12       1.0  0.58400  0.90200  0.58500  1.0000
  O   O13       1.0  0.91600  0.40200  0.91500  1.0000
  O   O14       1.0  0.58400  0.59800  0.91500  1.0000
  O   O15       1.0  0.14000  0.19300  0.99400  1.0000
  O   O16       1.0  0.36000  0.80700  0.99400  1.0000
  Ta  Ta1       1.0  0.36300  0.25000  0.25000  1.0000
  Ta  Ta2       1.0  0.13700  0.75000  0.25000  1.0000
  Ta  Ta3       1.0  0.86300  0.25000  0.75000  1.0000
  Ta  Ta4       1.0  0.63700  0.75000  0.75000  1.0000
