data_image0
_chemical_formula_structural       F16Na6Ta2
_chemical_formula_sum              "F16 Na6 Ta2"
_cell_length_a       5.1546
_cell_length_b       6.13839
_cell_length_c       9.63287
_cell_angle_alpha    97.9539
_cell_angle_beta     105.519
_cell_angle_gamma    65.1739

_space_group_name_H-M_alt    "P 1"
_space_group_IT_number       1

loop_
  _space_group_symop_operation_xyz
  'x, y, z'

loop_
  _atom_site_type_symbol
  _atom_site_label
  _atom_site_symmetry_multiplicity
  _atom_site_fract_x
  _atom_site_fract_y
  _atom_site_fract_z
  _atom_site_occupancy
  F   F1        1.0  0.00000  0.19200  0.08050  1.0000
  F   F2        1.0  0.44700  0.42500  0.10800  1.0000
  F   F3        1.0  0.69300  0.00565  0.13300  1.0000
  F   F4        1.0  0.85000  0.56000  0.21300  1.0000
  F   F5        1.0  0.19600  0.94000  0.28700  1.0000
  F   F6        1.0  0.56600  0.49400  0.36700  1.0000
  F   F7        1.0  0.76500  0.07450  0.39200  1.0000
  F   F8        1.0  0.11100  0.30800  0.42000  1.0000
  F   F9        1.0  0.88900  0.69200  0.58000  1.0000
  F   F10       1.0  0.23500  0.92500  0.60800  1.0000
  F   F11       1.0  0.43400  0.50600  0.63300  1.0000
  F   F12       1.0  0.80400  0.05960  0.71300  1.0000
  F   F13       1.0  0.15000  0.44000  0.78700  1.0000
  F   F14       1.0  0.30700  0.99400  0.86700  1.0000
  F   F15       1.0  0.55300  0.57500  0.89200  1.0000
  F   F16       1.0  0.00013  0.80800  0.92000  1.0000
  Na  Na1       1.0  0.00000  0.50000  0.00000  1.0000
  Na  Na2       1.0  0.39600  0.82500  0.09970  1.0000
  Na  Na3       1.0  0.12100  0.67500  0.40000  1.0000
  Na  Na4       1.0  0.50000  0.00000  0.50000  1.0000
  Na  Na5       1.0  0.87900  0.32500  0.60000  1.0000
  Na  Na6       1.0  0.60400  0.17500  0.90000  1.0000
  Ta  Ta1       1.0  0.82200  0.25000  0.25000  1.0000
  Ta  Ta2       1.0  0.17800  0.75000  0.75000  1.0000
