data_image0
_chemical_formula_structural       F4O12Se4Yb4
_chemical_formula_sum              "F4 O12 Se4 Yb4"
_cell_length_a       6.6134
_cell_length_b       6.72808
_cell_length_c       6.82819
_cell_angle_alpha    90
_cell_angle_beta     98.2247
_cell_angle_gamma    90

_space_group_name_H-M_alt    "P 1"
_space_group_IT_number       1

loop_
  _space_group_symop_operation_xyz
  'x, y, z'

loop_
  _atom_site_type_symbol
  _atom_site_label
  _atom_site_symmetry_multiplicity
  _atom_site_fract_x
  _atom_site_fract_y
  _atom_site_fract_z
  _atom_site_occupancy
  F   F1        1.0  0.21400  0.42000  0.02870  1.0000
  F   F2        1.0  0.78600  0.92000  0.47100  1.0000
  F   F3        1.0  0.21400  0.07970  0.52900  1.0000
  F   F4        1.0  0.78600  0.58000  0.97100  1.0000
  O   O1        1.0  0.49000  0.76700  0.13300  1.0000
  O   O2        1.0  0.19000  0.03540  0.14900  1.0000
  O   O3        1.0  0.84700  0.19600  0.18100  1.0000
  O   O4        1.0  0.15300  0.69600  0.31900  1.0000
  O   O5        1.0  0.81000  0.53500  0.35100  1.0000
  O   O6        1.0  0.51000  0.26700  0.36700  1.0000
  O   O7        1.0  0.49000  0.73300  0.63300  1.0000
  O   O8        1.0  0.19000  0.46500  0.64900  1.0000
  O   O9        1.0  0.84700  0.30400  0.68100  1.0000
  O   O10       1.0  0.15300  0.80400  0.81900  1.0000
  O   O11       1.0  0.81000  0.96500  0.85100  1.0000
  O   O12       1.0  0.51000  0.23300  0.86700  1.0000
  Se  Se1       1.0  0.66700  0.36500  0.21100  1.0000
  Se  Se2       1.0  0.33300  0.86500  0.28900  1.0000
  Se  Se3       1.0  0.66700  0.13500  0.71100  1.0000
  Se  Se4       1.0  0.33300  0.63500  0.78900  1.0000
  Yb  Yb1       1.0  0.84800  0.84300  0.17400  1.0000
  Yb  Yb2       1.0  0.15200  0.34300  0.32600  1.0000
  Yb  Yb3       1.0  0.84800  0.65700  0.67400  1.0000
  Yb  Yb4       1.0  0.15200  0.15700  0.82600  1.0000
