data_image0
_chemical_formula_structural       Al12Fe8Si4
_chemical_formula_sum              "Al12 Fe8 Si4"
_cell_length_a       7.58831
_cell_length_b       7.58831
_cell_length_c       7.58831
_cell_angle_alpha    120
_cell_angle_beta     90
_cell_angle_gamma    120

_space_group_name_H-M_alt    "P 1"
_space_group_IT_number       1

loop_
  _space_group_symop_operation_xyz
  'x, y, z'

loop_
  _atom_site_type_symbol
  _atom_site_label
  _atom_site_symmetry_multiplicity
  _atom_site_fract_x
  _atom_site_fract_y
  _atom_site_fract_z
  _atom_site_occupancy
  Al  Al1       1.0  0.92400  0.34900  0.17400  1.0000
  Al  Al2       1.0  0.32600  0.75000  0.17400  1.0000
  Al  Al3       1.0  0.92400  0.75000  0.17400  1.0000
  Al  Al4       1.0  0.67400  0.84900  0.42400  1.0000
  Al  Al5       1.0  0.07570  0.25000  0.42400  1.0000
  Al  Al6       1.0  0.67400  0.25000  0.42400  1.0000
  Al  Al7       1.0  0.32600  0.15100  0.57600  1.0000
  Al  Al8       1.0  0.32600  0.75000  0.57600  1.0000
  Al  Al9       1.0  0.92400  0.75000  0.57600  1.0000
  Al  Al10      1.0  0.67400  0.25000  0.82600  1.0000
  Al  Al11      1.0  0.07570  0.65100  0.82600  1.0000
  Al  Al12      1.0  0.07570  0.25000  0.82600  1.0000
  Fe  Fe1       1.0  0.71500  0.93000  0.14500  1.0000
  Fe  Fe2       1.0  0.28500  0.07000  0.21500  1.0000
  Fe  Fe3       1.0  0.28500  0.43000  0.21500  1.0000
  Fe  Fe4       1.0  0.64500  0.43000  0.21500  1.0000
  Fe  Fe5       1.0  0.35500  0.57000  0.78500  1.0000
  Fe  Fe6       1.0  0.71500  0.57000  0.78500  1.0000
  Fe  Fe7       1.0  0.71500  0.93000  0.78500  1.0000
  Fe  Fe8       1.0  0.28500  0.07000  0.85500  1.0000
  Si  Si1       1.0  0.00000  0.00000  0.00000  1.0000
  Si  Si2       1.0  0.50000  0.00000  0.00000  1.0000
  Si  Si3       1.0  0.50000  0.50000  0.00000  1.0000
  Si  Si4       1.0  0.50000  0.50000  0.50000  1.0000
