data_image0
_chemical_formula_structural       F4O12Se4Y4
_chemical_formula_sum              "F4 O12 Se4 Y4"
_cell_length_a       6.56617
_cell_length_b       6.81062
_cell_length_c       7.12344
_cell_angle_alpha    90
_cell_angle_beta     99.631
_cell_angle_gamma    90

_space_group_name_H-M_alt    "P 1"
_space_group_IT_number       1

loop_
  _space_group_symop_operation_xyz
  'x, y, z'

loop_
  _atom_site_type_symbol
  _atom_site_label
  _atom_site_symmetry_multiplicity
  _atom_site_fract_x
  _atom_site_fract_y
  _atom_site_fract_z
  _atom_site_occupancy
  F   F1        1.0  0.17400  0.39600  0.02220  1.0000
  F   F2        1.0  0.82600  0.89600  0.47800  1.0000
  F   F3        1.0  0.17400  0.10400  0.52200  1.0000
  F   F4        1.0  0.82600  0.60400  0.97800  1.0000
  O   O1        1.0  0.51100  0.80900  0.13500  1.0000
  O   O2        1.0  0.17700  0.03820  0.14800  1.0000
  O   O3        1.0  0.82200  0.19700  0.21300  1.0000
  O   O4        1.0  0.17800  0.69700  0.28700  1.0000
  O   O5        1.0  0.82300  0.53800  0.35200  1.0000
  O   O6        1.0  0.48900  0.30900  0.36500  1.0000
  O   O7        1.0  0.51100  0.69100  0.63500  1.0000
  O   O8        1.0  0.17700  0.46200  0.64800  1.0000
  O   O9        1.0  0.82200  0.30300  0.71300  1.0000
  O   O10       1.0  0.17800  0.80300  0.78700  1.0000
  O   O11       1.0  0.82300  0.96200  0.85200  1.0000
  O   O12       1.0  0.48900  0.19100  0.86500  1.0000
  Se  Se1       1.0  0.64100  0.38500  0.20700  1.0000
  Se  Se2       1.0  0.35900  0.88500  0.29300  1.0000
  Se  Se3       1.0  0.64100  0.11500  0.70700  1.0000
  Se  Se4       1.0  0.35900  0.61500  0.79300  1.0000
  Y   Y1        1.0  0.86100  0.85900  0.17700  1.0000
  Y   Y2        1.0  0.13900  0.35900  0.32300  1.0000
  Y   Y3        1.0  0.86100  0.64100  0.67700  1.0000
  Y   Y4        1.0  0.13900  0.14100  0.82300  1.0000
