data_image0
_chemical_formula_structural       B16Rh4Y4
_chemical_formula_sum              "B16 Rh4 Y4"
_cell_length_a       5.96102
_cell_length_b       11.5618
_cell_length_c       3.56652
_cell_angle_alpha    90
_cell_angle_beta     90
_cell_angle_gamma    90

_space_group_name_H-M_alt    "P 1"
_space_group_IT_number       1

loop_
  _space_group_symop_operation_xyz
  'x, y, z'

loop_
  _atom_site_type_symbol
  _atom_site_label
  _atom_site_symmetry_multiplicity
  _atom_site_fract_x
  _atom_site_fract_y
  _atom_site_fract_z
  _atom_site_occupancy
  B   B1        1.0  0.63600  0.03060  0.50000  1.0000
  B   B2        1.0  0.11200  0.04690  0.50000  1.0000
  B   B3        1.0  0.71000  0.18700  0.50000  1.0000
  B   B4        1.0  0.02190  0.19300  0.50000  1.0000
  B   B5        1.0  0.52200  0.30700  0.50000  1.0000
  B   B6        1.0  0.21000  0.31300  0.50000  1.0000
  B   B7        1.0  0.61200  0.45300  0.50000  1.0000
  B   B8        1.0  0.13600  0.46900  0.50000  1.0000
  B   B9        1.0  0.86400  0.53100  0.50000  1.0000
  B   B10       1.0  0.38800  0.54700  0.50000  1.0000
  B   B11       1.0  0.79000  0.68700  0.50000  1.0000
  B   B12       1.0  0.47800  0.69300  0.50000  1.0000
  B   B13       1.0  0.97800  0.80700  0.50000  1.0000
  B   B14       1.0  0.29000  0.81300  0.50000  1.0000
  B   B15       1.0  0.88800  0.95300  0.50000  1.0000
  B   B16       1.0  0.36400  0.96900  0.50000  1.0000
  Rh  Rh1       1.0  0.85800  0.09430  0.00000  1.0000
  Rh  Rh2       1.0  0.35800  0.40600  0.00000  1.0000
  Rh  Rh3       1.0  0.64200  0.59400  0.00000  1.0000
  Rh  Rh4       1.0  0.14200  0.90600  0.00000  1.0000
  Y   Y1        1.0  0.36900  0.14900  0.00000  1.0000
  Y   Y2        1.0  0.86900  0.35100  0.00000  1.0000
  Y   Y3        1.0  0.13100  0.64900  0.00000  1.0000
  Y   Y4        1.0  0.63100  0.85100  0.00000  1.0000
