data_image0
_chemical_formula_structural       O16P4Sr2Ti2
_chemical_formula_sum              "O16 P4 Sr2 Ti2"
_cell_length_a       5.18832
_cell_length_b       8.07124
_cell_length_c       8.54274
_cell_angle_alpha    115.218
_cell_angle_beta     107.678
_cell_angle_gamma    90

_space_group_name_H-M_alt    "P 1"
_space_group_IT_number       1

loop_
  _space_group_symop_operation_xyz
  'x, y, z'

loop_
  _atom_site_type_symbol
  _atom_site_label
  _atom_site_symmetry_multiplicity
  _atom_site_fract_x
  _atom_site_fract_y
  _atom_site_fract_z
  _atom_site_occupancy
  O   O1        1.0  0.82400  0.60000  0.09050  1.0000
  O   O2        1.0  0.26700  0.09990  0.09050  1.0000
  O   O3        1.0  0.62100  0.85600  0.28600  1.0000
  O   O4        1.0  0.66500  0.35600  0.28600  1.0000
  O   O5        1.0  0.12300  0.90000  0.32400  1.0000
  O   O6        1.0  0.20100  0.40000  0.32400  1.0000
  O   O7        1.0  0.94900  0.69900  0.43700  1.0000
  O   O8        1.0  0.48800  0.19900  0.43700  1.0000
  O   O9        1.0  0.51200  0.80100  0.56300  1.0000
  O   O10       1.0  0.05130  0.30100  0.56300  1.0000
  O   O11       1.0  0.79900  0.60000  0.67600  1.0000
  O   O12       1.0  0.87700  0.09970  0.67600  1.0000
  O   O13       1.0  0.33500  0.64400  0.71400  1.0000
  O   O14       1.0  0.37900  0.14400  0.71400  1.0000
  O   O15       1.0  0.73300  0.90000  0.91000  1.0000
  O   O16       1.0  0.17600  0.40000  0.91000  1.0000
  P   P1        1.0  0.87800  0.75700  0.28100  1.0000
  P   P2        1.0  0.40300  0.25700  0.28100  1.0000
  P   P3        1.0  0.12200  0.24300  0.71900  1.0000
  P   P4        1.0  0.59700  0.74300  0.71900  1.0000
  Sr  Sr1       1.0  0.81200  0.25000  0.00000  1.0000
  Sr  Sr2       1.0  0.18800  0.75000  0.00000  1.0000
  Ti  Ti1       1.0  0.00000  0.50000  0.50000  1.0000
  Ti  Ti2       1.0  0.50000  0.00000  0.50000  1.0000
