data_image0
_chemical_formula_structural       Ca4Fe2Nb2O12
_chemical_formula_sum              "Ca4 Fe2 Nb2 O12"
_cell_length_a       5.40283
_cell_length_b       5.56135
_cell_length_c       7.72383
_cell_angle_alpha    89.999
_cell_angle_beta     89.7427
_cell_angle_gamma    89.9917

_space_group_name_H-M_alt    "P 1"
_space_group_IT_number       1

loop_
  _space_group_symop_operation_xyz
  'x, y, z'

loop_
  _atom_site_type_symbol
  _atom_site_label
  _atom_site_symmetry_multiplicity
  _atom_site_fract_x
  _atom_site_fract_y
  _atom_site_fract_z
  _atom_site_occupancy
  Ca  Ca1       1.0  0.98800  0.05160  0.24900  1.0000
  Ca  Ca2       1.0  0.51200  0.55200  0.25200  1.0000
  Ca  Ca3       1.0  0.48800  0.44900  0.74900  1.0000
  Ca  Ca4       1.0  0.01260  0.94800  0.75200  1.0000
  Fe  Fe1       1.0  0.00019  0.50000  0.00000  1.0000
  Fe  Fe2       1.0  0.50000  0.00011  0.50000  1.0000
  Nb  Nb1       1.0  0.50000  0.00032  0.00000  1.0000
  Nb  Nb2       1.0  0.00000  0.50000  0.50000  1.0000
  O   O1        1.0  0.79900  0.79900  0.04720  1.0000
  O   O2        1.0  0.70000  0.29600  0.04960  1.0000
  O   O3        1.0  0.09300  0.47100  0.25000  1.0000
  O   O4        1.0  0.40600  0.97200  0.25000  1.0000
  O   O5        1.0  0.80000  0.79600  0.45000  1.0000
  O   O6        1.0  0.70100  0.29800  0.45300  1.0000
  O   O7        1.0  0.29900  0.70100  0.54700  1.0000
  O   O8        1.0  0.20000  0.20400  0.55000  1.0000
  O   O9        1.0  0.59300  0.02860  0.75000  1.0000
  O   O10       1.0  0.90600  0.52800  0.75000  1.0000
  O   O11       1.0  0.30000  0.70400  0.95000  1.0000
  O   O12       1.0  0.20100  0.20200  0.95300  1.0000
