data_image0
_chemical_formula_structural       LiMo2O6
_chemical_formula_sum              "Li1 Mo2 O6"
_cell_length_a       5.11779
_cell_length_b       5.11779
_cell_length_c       4.91842
_cell_angle_alpha    99.9529
_cell_angle_beta     99.9529
_cell_angle_gamma    119.804

_space_group_name_H-M_alt    "P 1"
_space_group_IT_number       1

loop_
  _space_group_symop_operation_xyz
  'x, y, z'

loop_
  _atom_site_type_symbol
  _atom_site_label
  _atom_site_symmetry_multiplicity
  _atom_site_fract_x
  _atom_site_fract_y
  _atom_site_fract_z
  _atom_site_occupancy
  Li  Li1       1.0  0.50000  0.50000  0.00000  1.0000
  Mo  Mo1       1.0  0.84200  0.15800  0.00000  1.0000
  Mo  Mo2       1.0  0.15800  0.84200  0.00000  1.0000
  O   O1        1.0  0.92800  0.57800  0.21500  1.0000
  O   O2        1.0  0.57800  0.92800  0.21500  1.0000
  O   O3        1.0  0.22700  0.22700  0.24700  1.0000
  O   O4        1.0  0.77300  0.77300  0.75300  1.0000
  O   O5        1.0  0.42200  0.07250  0.78500  1.0000
  O   O6        1.0  0.07250  0.42200  0.78500  1.0000
