data_image0
_chemical_formula_structural       Cr2LiO6
_chemical_formula_sum              "Cr2 Li1 O6"
_cell_length_a       4.92686
_cell_length_b       4.92686
_cell_length_c       4.67447
_cell_angle_alpha    100.737
_cell_angle_beta     100.737
_cell_angle_gamma    119.393

_space_group_name_H-M_alt    "P 1"
_space_group_IT_number       1

loop_
  _space_group_symop_operation_xyz
  'x, y, z'

loop_
  _atom_site_type_symbol
  _atom_site_label
  _atom_site_symmetry_multiplicity
  _atom_site_fract_x
  _atom_site_fract_y
  _atom_site_fract_z
  _atom_site_occupancy
  Cr  Cr1       1.0  0.83200  0.16800  0.00000  1.0000
  Cr  Cr2       1.0  0.16800  0.83200  0.00000  1.0000
  Li  Li1       1.0  0.50000  0.50000  0.00000  1.0000
  O   O1        1.0  0.94400  0.57700  0.22800  1.0000
  O   O2        1.0  0.57700  0.94400  0.22800  1.0000
  O   O3        1.0  0.20700  0.20700  0.23300  1.0000
  O   O4        1.0  0.79300  0.79300  0.76700  1.0000
  O   O5        1.0  0.42300  0.05570  0.77200  1.0000
  O   O6        1.0  0.05570  0.42300  0.77200  1.0000
