data_image0
_chemical_formula_structural       Cl4O12Se4Tb4
_chemical_formula_sum              "Cl4 O12 Se4 Tb4"
_cell_length_a       7.12388
_cell_length_b       6.97999
_cell_length_c       8.83428
_cell_angle_alpha    90
_cell_angle_beta     90
_cell_angle_gamma    90

_space_group_name_H-M_alt    "P 1"
_space_group_IT_number       1

loop_
  _space_group_symop_operation_xyz
  'x, y, z'

loop_
  _atom_site_type_symbol
  _atom_site_label
  _atom_site_symmetry_multiplicity
  _atom_site_fract_x
  _atom_site_fract_y
  _atom_site_fract_z
  _atom_site_occupancy
  Cl  Cl1       1.0  0.95100  0.25000  0.17700  1.0000
  Cl  Cl2       1.0  0.45100  0.25000  0.32300  1.0000
  Cl  Cl3       1.0  0.54900  0.75000  0.67700  1.0000
  Cl  Cl4       1.0  0.04870  0.75000  0.82300  1.0000
  O   O1        1.0  0.64800  0.57200  0.06510  1.0000
  O   O2        1.0  0.64800  0.92800  0.06510  1.0000
  O   O3        1.0  0.24600  0.75000  0.17900  1.0000
  O   O4        1.0  0.74600  0.75000  0.32100  1.0000
  O   O5        1.0  0.14800  0.57200  0.43500  1.0000
  O   O6        1.0  0.14800  0.92800  0.43500  1.0000
  O   O7        1.0  0.85200  0.07220  0.56500  1.0000
  O   O8        1.0  0.85200  0.42800  0.56500  1.0000
  O   O9        1.0  0.25400  0.25000  0.67900  1.0000
  O   O10       1.0  0.75400  0.25000  0.82100  1.0000
  O   O11       1.0  0.35200  0.07220  0.93500  1.0000
  O   O12       1.0  0.35200  0.42800  0.93500  1.0000
  Se  Se1       1.0  0.79900  0.75000  0.13400  1.0000
  Se  Se2       1.0  0.29900  0.75000  0.36600  1.0000
  Se  Se3       1.0  0.70100  0.25000  0.63400  1.0000
  Se  Se4       1.0  0.20100  0.25000  0.86600  1.0000
  Tb  Tb1       1.0  0.60400  0.25000  0.04130  1.0000
  Tb  Tb2       1.0  0.10400  0.25000  0.45900  1.0000
  Tb  Tb3       1.0  0.89600  0.75000  0.54100  1.0000
  Tb  Tb4       1.0  0.39600  0.75000  0.95900  1.0000
