data_image0
_chemical_formula_structural       LiO6Os2
_chemical_formula_sum              "Li1 O6 Os2"
_cell_length_a       4.97728
_cell_length_b       4.97728
_cell_length_c       4.96566
_cell_angle_alpha    100.615
_cell_angle_beta     100.615
_cell_angle_gamma    117.048

_space_group_name_H-M_alt    "P 1"
_space_group_IT_number       1

loop_
  _space_group_symop_operation_xyz
  'x, y, z'

loop_
  _atom_site_type_symbol
  _atom_site_label
  _atom_site_symmetry_multiplicity
  _atom_site_fract_x
  _atom_site_fract_y
  _atom_site_fract_z
  _atom_site_occupancy
  Li  Li1       1.0  0.50000  0.50000  0.00000  1.0000
  O   O1        1.0  0.92700  0.57200  0.20400  1.0000
  O   O2        1.0  0.57200  0.92700  0.20400  1.0000
  O   O3        1.0  0.23500  0.23500  0.28200  1.0000
  O   O4        1.0  0.76500  0.76500  0.71800  1.0000
  O   O5        1.0  0.42800  0.07250  0.79600  1.0000
  O   O6        1.0  0.07250  0.42800  0.79600  1.0000
  Os  Os1       1.0  0.85300  0.14700  0.00000  1.0000
  Os  Os2       1.0  0.14700  0.85300  0.00000  1.0000
