data_image0
_chemical_formula_structural       In4Nd2Ni18
_chemical_formula_sum              "In4 Nd2 Ni18"
_cell_length_a       8.26234
_cell_length_b       8.26234
_cell_length_c       4.84404
_cell_angle_alpha    90
_cell_angle_beta     90
_cell_angle_gamma    90

_space_group_name_H-M_alt    "P 1"
_space_group_IT_number       1

loop_
  _space_group_symop_operation_xyz
  'x, y, z'

loop_
  _atom_site_type_symbol
  _atom_site_label
  _atom_site_symmetry_multiplicity
  _atom_site_fract_x
  _atom_site_fract_y
  _atom_site_fract_z
  _atom_site_occupancy
  In  In1       1.0  0.37600  0.12400  0.00000  1.0000
  In  In2       1.0  0.87600  0.37600  0.00000  1.0000
  In  In3       1.0  0.12400  0.62400  0.00000  1.0000
  In  In4       1.0  0.62400  0.87600  0.00000  1.0000
  Nd  Nd1       1.0  0.00000  0.00000  0.00000  1.0000
  Nd  Nd2       1.0  0.50000  0.50000  0.00000  1.0000
  Ni  Ni1       1.0  0.67600  0.17600  0.25000  1.0000
  Ni  Ni2       1.0  0.17600  0.32400  0.25000  1.0000
  Ni  Ni3       1.0  0.82400  0.67600  0.25000  1.0000
  Ni  Ni4       1.0  0.32400  0.82400  0.25000  1.0000
  Ni  Ni5       1.0  0.50000  0.00000  0.50000  1.0000
  Ni  Ni6       1.0  0.20900  0.06520  0.50000  1.0000
  Ni  Ni7       1.0  0.93500  0.20900  0.50000  1.0000
  Ni  Ni8       1.0  0.43500  0.29100  0.50000  1.0000
  Ni  Ni9       1.0  0.70900  0.43500  0.50000  1.0000
  Ni  Ni10      1.0  0.00000  0.50000  0.50000  1.0000
  Ni  Ni11      1.0  0.29100  0.56500  0.50000  1.0000
  Ni  Ni12      1.0  0.56500  0.70900  0.50000  1.0000
  Ni  Ni13      1.0  0.06520  0.79100  0.50000  1.0000
  Ni  Ni14      1.0  0.79100  0.93500  0.50000  1.0000
  Ni  Ni15      1.0  0.67600  0.17600  0.75000  1.0000
  Ni  Ni16      1.0  0.17600  0.32400  0.75000  1.0000
  Ni  Ni17      1.0  0.82400  0.67600  0.75000  1.0000
  Ni  Ni18      1.0  0.32400  0.82400  0.75000  1.0000
