data_image0
_chemical_formula_structural       Co2LiO6
_chemical_formula_sum              "Co2 Li1 O6"
_cell_length_a       4.8511
_cell_length_b       4.8511
_cell_length_c       4.5723
_cell_angle_alpha    100.478
_cell_angle_beta     100.478
_cell_angle_gamma    120.106

_space_group_name_H-M_alt    "P 1"
_space_group_IT_number       1

loop_
  _space_group_symop_operation_xyz
  'x, y, z'

loop_
  _atom_site_type_symbol
  _atom_site_label
  _atom_site_symmetry_multiplicity
  _atom_site_fract_x
  _atom_site_fract_y
  _atom_site_fract_z
  _atom_site_occupancy
  Co  Co1       1.0  0.83400  0.16600  0.00000  1.0000
  Co  Co2       1.0  0.16600  0.83400  0.00000  1.0000
  Li  Li1       1.0  0.50000  0.50000  0.00000  1.0000
  O   O1        1.0  0.94500  0.58100  0.22900  1.0000
  O   O2        1.0  0.58100  0.94500  0.22900  1.0000
  O   O3        1.0  0.21400  0.21400  0.23100  1.0000
  O   O4        1.0  0.78600  0.78600  0.76900  1.0000
  O   O5        1.0  0.41900  0.05520  0.77100  1.0000
  O   O6        1.0  0.05520  0.41900  0.77100  1.0000
