data_image0
_chemical_formula_structural       LiO6Pb2
_chemical_formula_sum              "Li1 O6 Pb2"
_cell_length_a       5.9988
_cell_length_b       5.9988
_cell_length_c       5.119
_cell_angle_alpha    106.54
_cell_angle_beta     106.54
_cell_angle_gamma    126.042

_space_group_name_H-M_alt    "P 1"
_space_group_IT_number       1

loop_
  _space_group_symop_operation_xyz
  'x, y, z'

loop_
  _atom_site_type_symbol
  _atom_site_label
  _atom_site_symmetry_multiplicity
  _atom_site_fract_x
  _atom_site_fract_y
  _atom_site_fract_z
  _atom_site_occupancy
  Li  Li1       1.0  0.00043  0.00043  0.50000  1.0000
  O   O1        1.0  0.95600  0.61800  0.26000  1.0000
  O   O2        1.0  0.61800  0.95600  0.26000  1.0000
  O   O3        1.0  0.27600  0.27600  0.32500  1.0000
  O   O4        1.0  0.72400  0.72400  0.67500  1.0000
  O   O5        1.0  0.38200  0.04310  0.74000  1.0000
  O   O6        1.0  0.04310  0.38200  0.74000  1.0000
  Pb  Pb1       1.0  0.83900  0.16100  0.00011  1.0000
  Pb  Pb2       1.0  0.16100  0.83900  0.00011  1.0000
