data_image0
_chemical_formula_structural       LiNi2O6
_chemical_formula_sum              "Li1 Ni2 O6"
_cell_length_a       4.90072
_cell_length_b       4.90072
_cell_length_c       4.42266
_cell_angle_alpha    103.33
_cell_angle_beta     103.33
_cell_angle_gamma    119.672

_space_group_name_H-M_alt    "P 1"
_space_group_IT_number       1

loop_
  _space_group_symop_operation_xyz
  'x, y, z'

loop_
  _atom_site_type_symbol
  _atom_site_label
  _atom_site_symmetry_multiplicity
  _atom_site_fract_x
  _atom_site_fract_y
  _atom_site_fract_z
  _atom_site_occupancy
  Li  Li1       1.0  0.50000  0.50000  0.00000  1.0000
  Ni  Ni1       1.0  0.83300  0.16700  0.00000  1.0000
  Ni  Ni2       1.0  0.16700  0.83300  0.00000  1.0000
  O   O1        1.0  0.24500  0.24500  0.23600  1.0000
  O   O2        1.0  0.95400  0.60200  0.24100  1.0000
  O   O3        1.0  0.60200  0.95400  0.24100  1.0000
  O   O4        1.0  0.39800  0.04580  0.75900  1.0000
  O   O5        1.0  0.04580  0.39800  0.75900  1.0000
  O   O6        1.0  0.75500  0.75500  0.76400  1.0000
