data_image0
_chemical_formula_structural       LiMn2O6
_chemical_formula_sum              "Li1 Mn2 O6"
_cell_length_a       5.06203
_cell_length_b       5.06203
_cell_length_c       4.50973
_cell_angle_alpha    103.867
_cell_angle_beta     103.867
_cell_angle_gamma    120.31

_space_group_name_H-M_alt    "P 1"
_space_group_IT_number       1

loop_
  _space_group_symop_operation_xyz
  'x, y, z'

loop_
  _atom_site_type_symbol
  _atom_site_label
  _atom_site_symmetry_multiplicity
  _atom_site_fract_x
  _atom_site_fract_y
  _atom_site_fract_z
  _atom_site_occupancy
  Li  Li1       1.0  0.50000  0.50000  0.00000  1.0000
  Mn  Mn1       1.0  0.83500  0.16500  0.00000  1.0000
  Mn  Mn2       1.0  0.16500  0.83500  0.00000  1.0000
  O   O1        1.0  0.25100  0.25100  0.24200  1.0000
  O   O2        1.0  0.95700  0.60500  0.24400  1.0000
  O   O3        1.0  0.60500  0.95700  0.24400  1.0000
  O   O4        1.0  0.39500  0.04300  0.75600  1.0000
  O   O5        1.0  0.04300  0.39500  0.75600  1.0000
  O   O6        1.0  0.74900  0.74900  0.75800  1.0000
