data_image0
_chemical_formula_structural       Co2In5Zr4
_chemical_formula_sum              "Co2 In5 Zr4"
_cell_length_a       7.54451
_cell_length_b       3.30055
_cell_length_c       9.09691
_cell_angle_alpha    90
_cell_angle_beta     94.7571
_cell_angle_gamma    90

_space_group_name_H-M_alt    "P 1"
_space_group_IT_number       1

loop_
  _space_group_symop_operation_xyz
  'x, y, z'

loop_
  _atom_site_type_symbol
  _atom_site_label
  _atom_site_symmetry_multiplicity
  _atom_site_fract_x
  _atom_site_fract_y
  _atom_site_fract_z
  _atom_site_occupancy
  Co  Co1       1.0  0.92300  0.00000  0.36600  1.0000
  Co  Co2       1.0  0.07690  0.00000  0.63400  1.0000
  In  In1       1.0  0.50000  0.00000  0.00000  1.0000
  In  In2       1.0  0.15700  0.00000  0.14200  1.0000
  In  In3       1.0  0.54100  0.00000  0.33200  1.0000
  In  In4       1.0  0.45900  0.00000  0.66800  1.0000
  In  In5       1.0  0.84300  0.00000  0.85800  1.0000
  Zr  Zr1       1.0  0.81700  0.50000  0.15800  1.0000
  Zr  Zr2       1.0  0.20100  0.50000  0.44000  1.0000
  Zr  Zr3       1.0  0.79900  0.50000  0.56000  1.0000
  Zr  Zr4       1.0  0.18300  0.50000  0.84200  1.0000
