data_image0
_chemical_formula_structural       B16Fe4Yb4
_chemical_formula_sum              "B16 Fe4 Yb4"
_cell_length_a       5.88406
_cell_length_b       11.3896
_cell_length_c       3.32117
_cell_angle_alpha    90
_cell_angle_beta     90
_cell_angle_gamma    90

_space_group_name_H-M_alt    "P 1"
_space_group_IT_number       1

loop_
  _space_group_symop_operation_xyz
  'x, y, z'

loop_
  _atom_site_type_symbol
  _atom_site_label
  _atom_site_symmetry_multiplicity
  _atom_site_fract_x
  _atom_site_fract_y
  _atom_site_fract_z
  _atom_site_occupancy
  B   B1        1.0  0.86100  0.03220  0.50000  1.0000
  B   B2        1.0  0.38800  0.04650  0.50000  1.0000
  B   B3        1.0  0.77800  0.18200  0.50000  1.0000
  B   B4        1.0  0.47500  0.19000  0.50000  1.0000
  B   B5        1.0  0.97500  0.31000  0.50000  1.0000
  B   B6        1.0  0.27800  0.31800  0.50000  1.0000
  B   B7        1.0  0.88800  0.45400  0.50000  1.0000
  B   B8        1.0  0.36100  0.46800  0.50000  1.0000
  B   B9        1.0  0.63900  0.53200  0.50000  1.0000
  B   B10       1.0  0.11200  0.54600  0.50000  1.0000
  B   B11       1.0  0.72200  0.68200  0.50000  1.0000
  B   B12       1.0  0.02520  0.69000  0.50000  1.0000
  B   B13       1.0  0.52500  0.81000  0.50000  1.0000
  B   B14       1.0  0.22200  0.81800  0.50000  1.0000
  B   B15       1.0  0.61200  0.95400  0.50000  1.0000
  B   B16       1.0  0.13900  0.96800  0.50000  1.0000
  Fe  Fe1       1.0  0.62600  0.08260  0.00000  1.0000
  Fe  Fe2       1.0  0.12600  0.41700  0.00000  1.0000
  Fe  Fe3       1.0  0.87400  0.58300  0.00000  1.0000
  Fe  Fe4       1.0  0.37400  0.91700  0.00000  1.0000
  Yb  Yb1       1.0  0.12600  0.15100  0.00000  1.0000
  Yb  Yb2       1.0  0.62600  0.34900  0.00000  1.0000
  Yb  Yb3       1.0  0.37400  0.65100  0.00000  1.0000
  Yb  Yb4       1.0  0.87400  0.84900  0.00000  1.0000
