data_image0
_chemical_formula_structural       CoI12Sc7
_chemical_formula_sum              "Co1 I12 Sc7"
_cell_length_a       9.39505
_cell_length_b       9.39505
_cell_length_c       9.39505
_cell_angle_alpha    107.25
_cell_angle_beta     107.25
_cell_angle_gamma    107.25

_space_group_name_H-M_alt    "P 1"
_space_group_IT_number       1

loop_
  _space_group_symop_operation_xyz
  'x, y, z'

loop_
  _atom_site_type_symbol
  _atom_site_label
  _atom_site_symmetry_multiplicity
  _atom_site_fract_x
  _atom_site_fract_y
  _atom_site_fract_z
  _atom_site_occupancy
  Co  Co1       1.0  0.00000  0.00000  0.00000  1.0000
  I   I1        1.0  0.68600  0.22300  0.07220  1.0000
  I   I2        1.0  0.38400  0.45700  0.16000  1.0000
  I   I3        1.0  0.07220  0.68600  0.22300  1.0000
  I   I4        1.0  0.77700  0.92800  0.31400  1.0000
  I   I5        1.0  0.45700  0.16000  0.38400  1.0000
  I   I6        1.0  0.16000  0.38400  0.45700  1.0000
  I   I7        1.0  0.84000  0.61600  0.54300  1.0000
  I   I8        1.0  0.54300  0.84000  0.61600  1.0000
  I   I9        1.0  0.22300  0.07220  0.68600  1.0000
  I   I10       1.0  0.92800  0.31400  0.77700  1.0000
  I   I11       1.0  0.61600  0.54300  0.84000  1.0000
  I   I12       1.0  0.31400  0.77700  0.92800  1.0000
  Sc  Sc1       1.0  0.28000  0.08870  0.02280  1.0000
  Sc  Sc2       1.0  0.02280  0.28000  0.08870  1.0000
  Sc  Sc3       1.0  0.08870  0.02280  0.28000  1.0000
  Sc  Sc4       1.0  0.50000  0.50000  0.50000  1.0000
  Sc  Sc5       1.0  0.91100  0.97700  0.72000  1.0000
  Sc  Sc6       1.0  0.97700  0.72000  0.91100  1.0000
  Sc  Sc7       1.0  0.72000  0.91100  0.97700  1.0000
