data_image0
_chemical_formula_structural       B16Ni4Yb4
_chemical_formula_sum              "B16 Ni4 Yb4"
_cell_length_a       5.88634
_cell_length_b       11.4283
_cell_length_c       3.36712
_cell_angle_alpha    90
_cell_angle_beta     90
_cell_angle_gamma    90

_space_group_name_H-M_alt    "P 1"
_space_group_IT_number       1

loop_
  _space_group_symop_operation_xyz
  'x, y, z'

loop_
  _atom_site_type_symbol
  _atom_site_label
  _atom_site_symmetry_multiplicity
  _atom_site_fract_x
  _atom_site_fract_y
  _atom_site_fract_z
  _atom_site_occupancy
  B   B1        1.0  0.86000  0.03250  0.50000  1.0000
  B   B2        1.0  0.38800  0.04730  0.50000  1.0000
  B   B3        1.0  0.78200  0.18400  0.50000  1.0000
  B   B4        1.0  0.48000  0.19000  0.50000  1.0000
  B   B5        1.0  0.98000  0.31000  0.50000  1.0000
  B   B6        1.0  0.28200  0.31600  0.50000  1.0000
  B   B7        1.0  0.88800  0.45300  0.50000  1.0000
  B   B8        1.0  0.36000  0.46800  0.50000  1.0000
  B   B9        1.0  0.64000  0.53200  0.50000  1.0000
  B   B10       1.0  0.11200  0.54700  0.50000  1.0000
  B   B11       1.0  0.71800  0.68400  0.50000  1.0000
  B   B12       1.0  0.01990  0.69000  0.50000  1.0000
  B   B13       1.0  0.52000  0.81000  0.50000  1.0000
  B   B14       1.0  0.21800  0.81600  0.50000  1.0000
  B   B15       1.0  0.61200  0.95300  0.50000  1.0000
  B   B16       1.0  0.14000  0.96800  0.50000  1.0000
  Ni  Ni1       1.0  0.63600  0.08830  0.00000  1.0000
  Ni  Ni2       1.0  0.13600  0.41200  0.00000  1.0000
  Ni  Ni3       1.0  0.86400  0.58800  0.00000  1.0000
  Ni  Ni4       1.0  0.36400  0.91200  0.00000  1.0000
  Yb  Yb1       1.0  0.12800  0.15100  0.00000  1.0000
  Yb  Yb2       1.0  0.62800  0.34900  0.00000  1.0000
  Yb  Yb3       1.0  0.37200  0.65100  0.00000  1.0000
  Yb  Yb4       1.0  0.87200  0.84900  0.00000  1.0000
