data_image0
_chemical_formula_structural       B16Er4Rh4
_chemical_formula_sum              "B16 Er4 Rh4"
_cell_length_a       5.93455
_cell_length_b       11.5051
_cell_length_c       3.54388
_cell_angle_alpha    90
_cell_angle_beta     90
_cell_angle_gamma    90

_space_group_name_H-M_alt    "P 1"
_space_group_IT_number       1

loop_
  _space_group_symop_operation_xyz
  'x, y, z'

loop_
  _atom_site_type_symbol
  _atom_site_label
  _atom_site_symmetry_multiplicity
  _atom_site_fract_x
  _atom_site_fract_y
  _atom_site_fract_z
  _atom_site_occupancy
  B   B1        1.0  0.86500  0.03040  0.50000  1.0000
  B   B2        1.0  0.38700  0.04730  0.50000  1.0000
  B   B3        1.0  0.79200  0.18700  0.50000  1.0000
  B   B4        1.0  0.47800  0.19300  0.50000  1.0000
  B   B5        1.0  0.97800  0.30700  0.50000  1.0000
  B   B6        1.0  0.29200  0.31300  0.50000  1.0000
  B   B7        1.0  0.88700  0.45300  0.50000  1.0000
  B   B8        1.0  0.36500  0.47000  0.50000  1.0000
  B   B9        1.0  0.63500  0.53000  0.50000  1.0000
  B   B10       1.0  0.11300  0.54700  0.50000  1.0000
  B   B11       1.0  0.70800  0.68700  0.50000  1.0000
  B   B12       1.0  0.02190  0.69300  0.50000  1.0000
  B   B13       1.0  0.52200  0.80700  0.50000  1.0000
  B   B14       1.0  0.20800  0.81300  0.50000  1.0000
  B   B15       1.0  0.61300  0.95300  0.50000  1.0000
  B   B16       1.0  0.13500  0.97000  0.50000  1.0000
  Er  Er1       1.0  0.13200  0.14900  0.00000  1.0000
  Er  Er2       1.0  0.63200  0.35100  0.00000  1.0000
  Er  Er3       1.0  0.36800  0.64900  0.00000  1.0000
  Er  Er4       1.0  0.86800  0.85100  0.00000  1.0000
  Rh  Rh1       1.0  0.64300  0.09470  0.00000  1.0000
  Rh  Rh2       1.0  0.14300  0.40500  0.00000  1.0000
  Rh  Rh3       1.0  0.85700  0.59500  0.00000  1.0000
  Rh  Rh4       1.0  0.35700  0.90500  0.00000  1.0000
