data_image0
_chemical_formula_structural       LiO6Pt2
_chemical_formula_sum              "Li1 O6 Pt2"
_cell_length_a       5.26477
_cell_length_b       5.26477
_cell_length_c       4.7598
_cell_angle_alpha    100.878
_cell_angle_beta     100.878
_cell_angle_gamma    119.966

_space_group_name_H-M_alt    "P 1"
_space_group_IT_number       1

loop_
  _space_group_symop_operation_xyz
  'x, y, z'

loop_
  _atom_site_type_symbol
  _atom_site_label
  _atom_site_symmetry_multiplicity
  _atom_site_fract_x
  _atom_site_fract_y
  _atom_site_fract_z
  _atom_site_occupancy
  Li  Li1       1.0  0.50000  0.50000  0.00000  1.0000
  O   O1        1.0  0.93500  0.57900  0.23100  1.0000
  O   O2        1.0  0.57900  0.93500  0.23100  1.0000
  O   O3        1.0  0.22300  0.22300  0.23300  1.0000
  O   O4        1.0  0.77700  0.77700  0.76700  1.0000
  O   O5        1.0  0.42100  0.06530  0.76900  1.0000
  O   O6        1.0  0.06530  0.42100  0.76900  1.0000
  Pt  Pt1       1.0  0.83400  0.16600  0.00000  1.0000
  Pt  Pt2       1.0  0.16600  0.83400  0.00000  1.0000
