data_image0
_chemical_formula_structural       I6Na2O16
_chemical_formula_sum              "I6 Na2 O16"
_cell_length_a       7.87871
_cell_length_b       7.87871
_cell_length_c       5.62597
_cell_angle_alpha    90
_cell_angle_beta     90
_cell_angle_gamma    90

_space_group_name_H-M_alt    "P 1"
_space_group_IT_number       1

loop_
  _space_group_symop_operation_xyz
  'x, y, z'

loop_
  _atom_site_type_symbol
  _atom_site_label
  _atom_site_symmetry_multiplicity
  _atom_site_fract_x
  _atom_site_fract_y
  _atom_site_fract_z
  _atom_site_occupancy
  I   I1        1.0  0.73500  0.24700  0.09940  1.0000
  I   I2        1.0  0.26500  0.75300  0.09940  1.0000
  I   I3        1.0  0.00000  0.50000  0.42100  1.0000
  I   I4        1.0  0.50000  0.00000  0.57900  1.0000
  I   I5        1.0  0.24700  0.26500  0.90100  1.0000
  I   I6        1.0  0.75300  0.73500  0.90100  1.0000
  Na  Na1       1.0  0.00000  0.00000  0.50000  1.0000
  Na  Na2       1.0  0.50000  0.50000  0.50000  1.0000
  O   O1        1.0  0.50700  0.27100  0.14900  1.0000
  O   O2        1.0  0.49300  0.72900  0.14900  1.0000
  O   O3        1.0  0.05760  0.32500  0.21200  1.0000
  O   O4        1.0  0.94200  0.67500  0.21200  1.0000
  O   O5        1.0  0.76500  0.05290  0.27300  1.0000
  O   O6        1.0  0.23500  0.94700  0.27300  1.0000
  O   O7        1.0  0.76200  0.40200  0.37300  1.0000
  O   O8        1.0  0.23800  0.59800  0.37300  1.0000
  O   O9        1.0  0.40200  0.23800  0.62700  1.0000
  O   O10       1.0  0.59800  0.76200  0.62700  1.0000
  O   O11       1.0  0.05290  0.23500  0.72700  1.0000
  O   O12       1.0  0.94700  0.76500  0.72700  1.0000
  O   O13       1.0  0.67500  0.05760  0.78800  1.0000
  O   O14       1.0  0.32500  0.94200  0.78800  1.0000
  O   O15       1.0  0.27100  0.49300  0.85100  1.0000
  O   O16       1.0  0.72900  0.50700  0.85100  1.0000
