data_image0
_chemical_formula_structural       LiO6Ti2
_chemical_formula_sum              "Li1 O6 Ti2"
_cell_length_a       5.43546
_cell_length_b       5.43546
_cell_length_c       4.25236
_cell_angle_alpha    104.815
_cell_angle_beta     104.815
_cell_angle_gamma    118.266

_space_group_name_H-M_alt    "P 1"
_space_group_IT_number       1

loop_
  _space_group_symop_operation_xyz
  'x, y, z'

loop_
  _atom_site_type_symbol
  _atom_site_label
  _atom_site_symmetry_multiplicity
  _atom_site_fract_x
  _atom_site_fract_y
  _atom_site_fract_z
  _atom_site_occupancy
  Li  Li1       1.0  0.50000  0.50000  0.00000  1.0000
  O   O1        1.0  0.95200  0.58500  0.21900  1.0000
  O   O2        1.0  0.58500  0.95200  0.21900  1.0000
  O   O3        1.0  0.21900  0.21900  0.30600  1.0000
  O   O4        1.0  0.78100  0.78100  0.69400  1.0000
  O   O5        1.0  0.41500  0.04830  0.78100  1.0000
  O   O6        1.0  0.04830  0.41500  0.78100  1.0000
  Ti  Ti1       1.0  0.85000  0.15000  0.00000  1.0000
  Ti  Ti2       1.0  0.15000  0.85000  0.00000  1.0000
