data_image0
_chemical_formula_structural       Co8Mn4Pr
_chemical_formula_sum              "Co8 Mn4 Pr1"
_cell_length_a       4.52887
_cell_length_b       6.36836
_cell_length_c       6.36833
_cell_angle_alpha    97.2632
_cell_angle_beta     69.1721
_cell_angle_gamma    110.828

_space_group_name_H-M_alt    "P 1"
_space_group_IT_number       1

loop_
  _space_group_symop_operation_xyz
  'x, y, z'

loop_
  _atom_site_type_symbol
  _atom_site_label
  _atom_site_symmetry_multiplicity
  _atom_site_fract_x
  _atom_site_fract_y
  _atom_site_fract_z
  _atom_site_occupancy
  Co  Co1       1.0  0.26700  0.76700  0.23300  1.0000
  Co  Co2       1.0  0.50000  0.23300  0.23300  1.0000
  Co  Co3       1.0  0.00000  0.36100  0.36100  1.0000
  Co  Co4       1.0  0.63900  0.63900  0.36100  1.0000
  Co  Co5       1.0  0.36100  0.36100  0.63900  1.0000
  Co  Co6       1.0  0.00000  0.63900  0.63900  1.0000
  Co  Co7       1.0  0.50000  0.76700  0.76700  1.0000
  Co  Co8       1.0  0.73300  0.23300  0.76700  1.0000
  Mn  Mn1       1.0  0.50000  0.50000  0.00000  1.0000
  Mn  Mn2       1.0  0.00000  0.50000  0.00000  1.0000
  Mn  Mn3       1.0  0.50000  0.00000  0.50000  1.0000
  Mn  Mn4       1.0  0.00000  0.00000  0.50000  1.0000
  Pr  Pr1       1.0  0.00000  0.00000  0.00000  1.0000
