data_image0
_chemical_formula_structural       Ba8Mn4Te12
_chemical_formula_sum              "Ba8 Mn4 Te12"
_cell_length_a       9.7774
_cell_length_b       4.78658
_cell_length_c       19.032
_cell_angle_alpha    90
_cell_angle_beta     90
_cell_angle_gamma    90

_space_group_name_H-M_alt    "P 1"
_space_group_IT_number       1

loop_
  _space_group_symop_operation_xyz
  'x, y, z'

loop_
  _atom_site_type_symbol
  _atom_site_label
  _atom_site_symmetry_multiplicity
  _atom_site_fract_x
  _atom_site_fract_y
  _atom_site_fract_z
  _atom_site_occupancy
  Ba  Ba1       1.0  0.75000  0.25000  0.04130  1.0000
  Ba  Ba2       1.0  0.08620  0.75000  0.21300  1.0000
  Ba  Ba3       1.0  0.58600  0.75000  0.28700  1.0000
  Ba  Ba4       1.0  0.25000  0.25000  0.45900  1.0000
  Ba  Ba5       1.0  0.75000  0.75000  0.54100  1.0000
  Ba  Ba6       1.0  0.41400  0.25000  0.71300  1.0000
  Ba  Ba7       1.0  0.91400  0.25000  0.78700  1.0000
  Ba  Ba8       1.0  0.25000  0.75000  0.95900  1.0000
  Mn  Mn1       1.0  0.37000  0.25000  0.13500  1.0000
  Mn  Mn2       1.0  0.87000  0.25000  0.36500  1.0000
  Mn  Mn3       1.0  0.13000  0.75000  0.63500  1.0000
  Mn  Mn4       1.0  0.63000  0.75000  0.86500  1.0000
  Te  Te1       1.0  0.12200  0.25000  0.07200  1.0000
  Te  Te2       1.0  0.50000  0.75000  0.10100  1.0000
  Te  Te3       1.0  0.82100  0.25000  0.22500  1.0000
  Te  Te4       1.0  0.32100  0.25000  0.27500  1.0000
  Te  Te5       1.0  0.00000  0.75000  0.39900  1.0000
  Te  Te6       1.0  0.62200  0.25000  0.42800  1.0000
  Te  Te7       1.0  0.37800  0.75000  0.57200  1.0000
  Te  Te8       1.0  0.00037  0.25000  0.60100  1.0000
  Te  Te9       1.0  0.67900  0.75000  0.72500  1.0000
  Te  Te10      1.0  0.17900  0.75000  0.77500  1.0000
  Te  Te11      1.0  0.50000  0.25000  0.89900  1.0000
  Te  Te12      1.0  0.87800  0.75000  0.92800  1.0000
