data_image0
_chemical_formula_structural       Al2Fe2S14Y6
_chemical_formula_sum              "Al2 Fe2 S14 Y6"
_cell_length_a       9.63192
_cell_length_b       9.60977
_cell_length_c       6.13757
_cell_angle_alpha    90
_cell_angle_beta     90
_cell_angle_gamma    119.814

_space_group_name_H-M_alt    "P 1"
_space_group_IT_number       1

loop_
  _space_group_symop_operation_xyz
  'x, y, z'

loop_
  _atom_site_type_symbol
  _atom_site_label
  _atom_site_symmetry_multiplicity
  _atom_site_fract_x
  _atom_site_fract_y
  _atom_site_fract_z
  _atom_site_occupancy
  Al  Al1       1.0  0.66700  0.33300  0.15400  1.0000
  Al  Al2       1.0  0.33300  0.66700  0.65400  1.0000
  Fe  Fe1       1.0  0.00515  0.00237  0.05490  1.0000
  Fe  Fe2       1.0  0.99500  0.99800  0.55500  1.0000
  S   S1        1.0  0.33300  0.66700  0.01830  1.0000
  S   S2        1.0  0.86400  0.10300  0.31700  1.0000
  S   S3        1.0  0.89800  0.76200  0.31800  1.0000
  S   S4        1.0  0.23700  0.13600  0.31900  1.0000
  S   S5        1.0  0.48100  0.91000  0.49900  1.0000
  S   S6        1.0  0.09090  0.57100  0.49900  1.0000
  S   S7        1.0  0.43000  0.52000  0.49900  1.0000
  S   S8        1.0  0.66700  0.33300  0.51800  1.0000
  S   S9        1.0  0.13600  0.89700  0.81700  1.0000
  S   S10       1.0  0.10200  0.23800  0.81800  1.0000
  S   S11       1.0  0.76300  0.86400  0.81900  1.0000
  S   S12       1.0  0.51900  0.09020  0.99900  1.0000
  S   S13       1.0  0.90900  0.42900  0.99900  1.0000
  S   S14       1.0  0.57000  0.48000  0.99900  1.0000
  Y   Y1        1.0  0.62100  0.77500  0.22800  1.0000
  Y   Y2        1.0  0.22400  0.84800  0.23000  1.0000
  Y   Y3        1.0  0.15400  0.37700  0.23000  1.0000
  Y   Y4        1.0  0.37900  0.22500  0.72800  1.0000
  Y   Y5        1.0  0.77600  0.15200  0.73000  1.0000
  Y   Y6        1.0  0.84600  0.62300  0.73000  1.0000
