data_image0
_chemical_formula_structural       Al2Ni2Pr6S14
_chemical_formula_sum              "Al2 Ni2 Pr6 S14"
_cell_length_a       9.94852
_cell_length_b       9.94843
_cell_length_c       6.20447
_cell_angle_alpha    90
_cell_angle_beta     90
_cell_angle_gamma    120

_space_group_name_H-M_alt    "P 1"
_space_group_IT_number       1

loop_
  _space_group_symop_operation_xyz
  'x, y, z'

loop_
  _atom_site_type_symbol
  _atom_site_label
  _atom_site_symmetry_multiplicity
  _atom_site_fract_x
  _atom_site_fract_y
  _atom_site_fract_z
  _atom_site_occupancy
  Al  Al1       1.0  0.66700  0.33300  0.15500  1.0000
  Al  Al2       1.0  0.33300  0.66700  0.65500  1.0000
  Ni  Ni1       1.0  0.00000  0.00000  0.04540  1.0000
  Ni  Ni2       1.0  0.00000  0.00000  0.54500  1.0000
  Pr  Pr1       1.0  0.14900  0.37400  0.23100  1.0000
  Pr  Pr2       1.0  0.62600  0.77500  0.23100  1.0000
  Pr  Pr3       1.0  0.22500  0.85100  0.23100  1.0000
  Pr  Pr4       1.0  0.77500  0.14900  0.73100  1.0000
  Pr  Pr5       1.0  0.37400  0.22500  0.73100  1.0000
  Pr  Pr6       1.0  0.85100  0.62600  0.73100  1.0000
  S   S1        1.0  0.90500  0.42600  0.00960  1.0000
  S   S2        1.0  0.52100  0.09500  0.00961  1.0000
  S   S3        1.0  0.57400  0.47900  0.00961  1.0000
  S   S4        1.0  0.33300  0.66700  0.01500  1.0000
  S   S5        1.0  0.86700  0.09140  0.30900  1.0000
  S   S6        1.0  0.90900  0.77500  0.30900  1.0000
  S   S7        1.0  0.22500  0.13300  0.30900  1.0000
  S   S8        1.0  0.09500  0.57400  0.51000  1.0000
  S   S9        1.0  0.42600  0.52100  0.51000  1.0000
  S   S10       1.0  0.47900  0.90500  0.51000  1.0000
  S   S11       1.0  0.66700  0.33300  0.51500  1.0000
  S   S12       1.0  0.13300  0.90900  0.80900  1.0000
  S   S13       1.0  0.09140  0.22500  0.80900  1.0000
  S   S14       1.0  0.77500  0.86700  0.80900  1.0000
