data_image0
_chemical_formula_structural       B16Er4Re4
_chemical_formula_sum              "B16 Er4 Re4"
_cell_length_a       5.94046
_cell_length_b       11.4915
_cell_length_c       3.59413
_cell_angle_alpha    90
_cell_angle_beta     90
_cell_angle_gamma    90

_space_group_name_H-M_alt    "P 1"
_space_group_IT_number       1

loop_
  _space_group_symop_operation_xyz
  'x, y, z'

loop_
  _atom_site_type_symbol
  _atom_site_label
  _atom_site_symmetry_multiplicity
  _atom_site_fract_x
  _atom_site_fract_y
  _atom_site_fract_z
  _atom_site_occupancy
  B   B1        1.0  0.86500  0.03150  0.50000  1.0000
  B   B2        1.0  0.38500  0.04770  0.50000  1.0000
  B   B3        1.0  0.78800  0.18500  0.50000  1.0000
  B   B4        1.0  0.47700  0.19300  0.50000  1.0000
  B   B5        1.0  0.97700  0.30700  0.50000  1.0000
  B   B6        1.0  0.28800  0.31500  0.50000  1.0000
  B   B7        1.0  0.88500  0.45200  0.50000  1.0000
  B   B8        1.0  0.36500  0.46900  0.50000  1.0000
  B   B9        1.0  0.63500  0.53100  0.50000  1.0000
  B   B10       1.0  0.11500  0.54800  0.50000  1.0000
  B   B11       1.0  0.71200  0.68500  0.50000  1.0000
  B   B12       1.0  0.02310  0.69300  0.50000  1.0000
  B   B13       1.0  0.52300  0.80700  0.50000  1.0000
  B   B14       1.0  0.21200  0.81500  0.50000  1.0000
  B   B15       1.0  0.61500  0.95200  0.50000  1.0000
  B   B16       1.0  0.13500  0.96900  0.50000  1.0000
  Er  Er1       1.0  0.12600  0.15000  0.00000  1.0000
  Er  Er2       1.0  0.62600  0.35000  0.00000  1.0000
  Er  Er3       1.0  0.37400  0.65000  0.00000  1.0000
  Er  Er4       1.0  0.87400  0.85000  0.00000  1.0000
  Re  Re1       1.0  0.63400  0.08750  0.00000  1.0000
  Re  Re2       1.0  0.13400  0.41200  0.00000  1.0000
  Re  Re3       1.0  0.86600  0.58800  0.00000  1.0000
  Re  Re4       1.0  0.36600  0.91200  0.00000  1.0000
