data_image0
_chemical_formula_structural       Al2Nd6Ni2S14
_chemical_formula_sum              "Al2 Nd6 Ni2 S14"
_cell_length_a       10.0086
_cell_length_b       10.0086
_cell_length_c       5.92473
_cell_angle_alpha    90
_cell_angle_beta     90
_cell_angle_gamma    120

_space_group_name_H-M_alt    "P 1"
_space_group_IT_number       1

loop_
  _space_group_symop_operation_xyz
  'x, y, z'

loop_
  _atom_site_type_symbol
  _atom_site_label
  _atom_site_symmetry_multiplicity
  _atom_site_fract_x
  _atom_site_fract_y
  _atom_site_fract_z
  _atom_site_occupancy
  Al  Al1       1.0  0.66700  0.33300  0.15100  1.0000
  Al  Al2       1.0  0.33300  0.66700  0.65100  1.0000
  Nd  Nd1       1.0  0.13800  0.37000  0.23100  1.0000
  Nd  Nd2       1.0  0.63000  0.76800  0.23100  1.0000
  Nd  Nd3       1.0  0.23200  0.86200  0.23100  1.0000
  Nd  Nd4       1.0  0.86200  0.63000  0.73100  1.0000
  Nd  Nd5       1.0  0.76800  0.13800  0.73100  1.0000
  Nd  Nd6       1.0  0.37000  0.23200  0.73100  1.0000
  Ni  Ni1       1.0  0.00000  0.00000  0.01200  1.0000
  Ni  Ni2       1.0  0.00000  0.00000  0.51200  1.0000
  S   S1        1.0  0.51500  0.09700  0.00333  1.0000
  S   S2        1.0  0.58200  0.48500  0.00333  1.0000
  S   S3        1.0  0.90300  0.41800  0.00334  1.0000
  S   S4        1.0  0.33300  0.66700  0.02360  1.0000
  S   S5        1.0  0.85900  0.08480  0.26500  1.0000
  S   S6        1.0  0.22600  0.14100  0.26500  1.0000
  S   S7        1.0  0.91500  0.77400  0.26500  1.0000
  S   S8        1.0  0.48500  0.90300  0.50300  1.0000
  S   S9        1.0  0.41800  0.51500  0.50300  1.0000
  S   S10       1.0  0.09710  0.58200  0.50300  1.0000
  S   S11       1.0  0.66700  0.33300  0.52400  1.0000
  S   S12       1.0  0.77400  0.85900  0.76500  1.0000
  S   S13       1.0  0.14100  0.91500  0.76500  1.0000
  S   S14       1.0  0.08480  0.22600  0.76500  1.0000
