data_image0
_chemical_formula_structural       B16Cr4Er4
_chemical_formula_sum              "B16 Cr4 Er4"
_cell_length_a       5.88972
_cell_length_b       11.3785
_cell_length_c       3.41765
_cell_angle_alpha    90
_cell_angle_beta     90
_cell_angle_gamma    90

_space_group_name_H-M_alt    "P 1"
_space_group_IT_number       1

loop_
  _space_group_symop_operation_xyz
  'x, y, z'

loop_
  _atom_site_type_symbol
  _atom_site_label
  _atom_site_symmetry_multiplicity
  _atom_site_fract_x
  _atom_site_fract_y
  _atom_site_fract_z
  _atom_site_occupancy
  B   B1        1.0  0.86400  0.03250  0.50000  1.0000
  B   B2        1.0  0.38700  0.04710  0.50000  1.0000
  B   B3        1.0  0.78200  0.18400  0.50000  1.0000
  B   B4        1.0  0.47600  0.19200  0.50000  1.0000
  B   B5        1.0  0.97600  0.30800  0.50000  1.0000
  B   B6        1.0  0.28200  0.31600  0.50000  1.0000
  B   B7        1.0  0.88700  0.45300  0.50000  1.0000
  B   B8        1.0  0.36400  0.46800  0.50000  1.0000
  B   B9        1.0  0.63600  0.53200  0.50000  1.0000
  B   B10       1.0  0.11300  0.54700  0.50000  1.0000
  B   B11       1.0  0.71800  0.68400  0.50000  1.0000
  B   B12       1.0  0.02450  0.69200  0.50000  1.0000
  B   B13       1.0  0.52400  0.80800  0.50000  1.0000
  B   B14       1.0  0.21800  0.81600  0.50000  1.0000
  B   B15       1.0  0.61300  0.95300  0.50000  1.0000
  B   B16       1.0  0.13600  0.96800  0.50000  1.0000
  Cr  Cr1       1.0  0.62200  0.07930  0.00000  1.0000
  Cr  Cr2       1.0  0.12200  0.42100  0.00000  1.0000
  Cr  Cr3       1.0  0.87800  0.57900  0.00000  1.0000
  Cr  Cr4       1.0  0.37800  0.92100  0.00000  1.0000
  Er  Er1       1.0  0.12500  0.15100  0.00000  1.0000
  Er  Er2       1.0  0.62500  0.34900  0.00000  1.0000
  Er  Er3       1.0  0.37500  0.65100  0.00000  1.0000
  Er  Er4       1.0  0.87500  0.84900  0.00000  1.0000
