data_image0
_chemical_formula_structural       Bi2K2O16W4
_chemical_formula_sum              "Bi2 K2 O16 W4"
_cell_length_a       7.55643
_cell_length_b       7.55643
_cell_length_c       7.60132
_cell_angle_alpha    117.892
_cell_angle_beta     62.1079
_cell_angle_gamma    91.3373

_space_group_name_H-M_alt    "P 1"
_space_group_IT_number       1

loop_
  _space_group_symop_operation_xyz
  'x, y, z'

loop_
  _atom_site_type_symbol
  _atom_site_label
  _atom_site_symmetry_multiplicity
  _atom_site_fract_x
  _atom_site_fract_y
  _atom_site_fract_z
  _atom_site_occupancy
  Bi  Bi1       1.0  0.27600  0.27600  0.25000  1.0000
  Bi  Bi2       1.0  0.72400  0.72400  0.75000  1.0000
  K   K1        1.0  0.70400  0.70400  0.25000  1.0000
  K   K2        1.0  0.29600  0.29600  0.75000  1.0000
  O   O1        1.0  0.13000  0.08550  0.02350  1.0000
  O   O2        1.0  0.12100  0.73700  0.05280  1.0000
  O   O3        1.0  0.43200  0.88600  0.13500  1.0000
  O   O4        1.0  0.29600  0.54500  0.18000  1.0000
  O   O5        1.0  0.54500  0.29600  0.32000  1.0000
  O   O6        1.0  0.88600  0.43200  0.36500  1.0000
  O   O7        1.0  0.73700  0.12100  0.44700  1.0000
  O   O8        1.0  0.08550  0.13000  0.47600  1.0000
  O   O9        1.0  0.91400  0.87000  0.52400  1.0000
  O   O10       1.0  0.26300  0.87900  0.55300  1.0000
  O   O11       1.0  0.11400  0.56800  0.63500  1.0000
  O   O12       1.0  0.45500  0.70400  0.68000  1.0000
  O   O13       1.0  0.70400  0.45500  0.82000  1.0000
  O   O14       1.0  0.56800  0.11400  0.86500  1.0000
  O   O15       1.0  0.87900  0.26300  0.94700  1.0000
  O   O16       1.0  0.87000  0.91400  0.97600  1.0000
  W   W1        1.0  0.80500  0.19600  0.23500  1.0000
  W   W2        1.0  0.19600  0.80500  0.26500  1.0000
  W   W3        1.0  0.80400  0.19500  0.73500  1.0000
  W   W4        1.0  0.19500  0.80400  0.76500  1.0000
