data_image0
_chemical_formula_structural       Ag2Pr6Se14Si2
_chemical_formula_sum              "Ag2 Pr6 Se14 Si2"
_cell_length_a       10.7873
_cell_length_b       10.7875
_cell_length_c       6.10473
_cell_angle_alpha    90
_cell_angle_beta     90
_cell_angle_gamma    120

_space_group_name_H-M_alt    "P 1"
_space_group_IT_number       1

loop_
  _space_group_symop_operation_xyz
  'x, y, z'

loop_
  _atom_site_type_symbol
  _atom_site_label
  _atom_site_symmetry_multiplicity
  _atom_site_fract_x
  _atom_site_fract_y
  _atom_site_fract_z
  _atom_site_occupancy
  Ag  Ag1       1.0  0.00000  0.00000  0.30700  1.0000
  Ag  Ag2       1.0  0.00000  0.00000  0.80700  1.0000
  Pr  Pr1       1.0  0.64200  0.76900  0.25400  1.0000
  Pr  Pr2       1.0  0.12700  0.35800  0.25400  1.0000
  Pr  Pr3       1.0  0.23100  0.87300  0.25400  1.0000
  Pr  Pr4       1.0  0.35800  0.23100  0.75400  1.0000
  Pr  Pr5       1.0  0.76900  0.12700  0.75400  1.0000
  Pr  Pr6       1.0  0.87300  0.64200  0.75400  1.0000
  Se  Se1       1.0  0.89100  0.41400  0.01490  1.0000
  Se  Se2       1.0  0.52200  0.10900  0.01490  1.0000
  Se  Se3       1.0  0.58600  0.47800  0.01490  1.0000
  Se  Se4       1.0  0.33300  0.66700  0.03760  1.0000
  Se  Se5       1.0  0.90400  0.72900  0.27200  1.0000
  Se  Se6       1.0  0.82500  0.09600  0.27200  1.0000
  Se  Se7       1.0  0.27100  0.17500  0.27200  1.0000
  Se  Se8       1.0  0.10900  0.58600  0.51500  1.0000
  Se  Se9       1.0  0.47800  0.89100  0.51500  1.0000
  Se  Se10      1.0  0.41400  0.52200  0.51500  1.0000
  Se  Se11      1.0  0.66700  0.33300  0.53800  1.0000
  Se  Se12      1.0  0.09600  0.27100  0.77200  1.0000
  Se  Se13      1.0  0.17500  0.90400  0.77200  1.0000
  Se  Se14      1.0  0.72900  0.82500  0.77200  1.0000
  Si  Si1       1.0  0.66700  0.33300  0.16500  1.0000
  Si  Si2       1.0  0.33300  0.66700  0.66500  1.0000
