data_image0
_chemical_formula_structural       F4Ho4O12Se4
_chemical_formula_sum              "F4 Ho4 O12 Se4"
_cell_length_a       6.54128
_cell_length_b       6.79082
_cell_length_c       7.08822
_cell_angle_alpha    90
_cell_angle_beta     99.5687
_cell_angle_gamma    90

_space_group_name_H-M_alt    "P 1"
_space_group_IT_number       1

loop_
  _space_group_symop_operation_xyz
  'x, y, z'

loop_
  _atom_site_type_symbol
  _atom_site_label
  _atom_site_symmetry_multiplicity
  _atom_site_fract_x
  _atom_site_fract_y
  _atom_site_fract_z
  _atom_site_occupancy
  F   F1        1.0  0.17300  0.39300  0.02280  1.0000
  F   F2        1.0  0.82800  0.89300  0.47700  1.0000
  F   F3        1.0  0.17300  0.10700  0.52300  1.0000
  F   F4        1.0  0.82800  0.60700  0.97700  1.0000
  Ho  Ho1       1.0  0.86300  0.85900  0.17600  1.0000
  Ho  Ho2       1.0  0.13700  0.35900  0.32400  1.0000
  Ho  Ho3       1.0  0.86300  0.64100  0.67600  1.0000
  Ho  Ho4       1.0  0.13700  0.14100  0.82400  1.0000
  O   O1        1.0  0.51400  0.81000  0.13500  1.0000
  O   O2        1.0  0.17600  0.03750  0.14800  1.0000
  O   O3        1.0  0.82300  0.19500  0.21400  1.0000
  O   O4        1.0  0.17700  0.69500  0.28600  1.0000
  O   O5        1.0  0.82400  0.53700  0.35200  1.0000
  O   O6        1.0  0.48600  0.31000  0.36500  1.0000
  O   O7        1.0  0.51400  0.69000  0.63500  1.0000
  O   O8        1.0  0.17600  0.46300  0.64800  1.0000
  O   O9        1.0  0.82300  0.30500  0.71400  1.0000
  O   O10       1.0  0.17700  0.80500  0.78600  1.0000
  O   O11       1.0  0.82400  0.96300  0.85200  1.0000
  O   O12       1.0  0.48600  0.19000  0.86500  1.0000
  Se  Se1       1.0  0.64100  0.38400  0.20700  1.0000
  Se  Se2       1.0  0.35900  0.88400  0.29300  1.0000
  Se  Se3       1.0  0.64100  0.11600  0.70700  1.0000
  Se  Se4       1.0  0.35900  0.61600  0.79300  1.0000
