data_image0
_chemical_formula_structural       B16Ce4Cr4
_chemical_formula_sum              "B16 Ce4 Cr4"
_cell_length_a       6.08307
_cell_length_b       11.7717
_cell_length_c       3.59496
_cell_angle_alpha    90
_cell_angle_beta     90
_cell_angle_gamma    90

_space_group_name_H-M_alt    "P 1"
_space_group_IT_number       1

loop_
  _space_group_symop_operation_xyz
  'x, y, z'

loop_
  _atom_site_type_symbol
  _atom_site_label
  _atom_site_symmetry_multiplicity
  _atom_site_fract_x
  _atom_site_fract_y
  _atom_site_fract_z
  _atom_site_occupancy
  B   B1        1.0  0.85600  0.03310  0.50000  1.0000
  B   B2        1.0  0.38900  0.04510  0.50000  1.0000
  B   B3        1.0  0.77200  0.18000  0.50000  1.0000
  B   B4        1.0  0.47600  0.18700  0.50000  1.0000
  B   B5        1.0  0.97600  0.31300  0.50000  1.0000
  B   B6        1.0  0.27200  0.32000  0.50000  1.0000
  B   B7        1.0  0.88900  0.45500  0.50000  1.0000
  B   B8        1.0  0.35600  0.46700  0.50000  1.0000
  B   B9        1.0  0.64400  0.53300  0.50000  1.0000
  B   B10       1.0  0.11100  0.54500  0.50000  1.0000
  B   B11       1.0  0.72800  0.68000  0.50000  1.0000
  B   B12       1.0  0.02400  0.68700  0.50000  1.0000
  B   B13       1.0  0.52400  0.81300  0.50000  1.0000
  B   B14       1.0  0.22800  0.82000  0.50000  1.0000
  B   B15       1.0  0.61100  0.95500  0.50000  1.0000
  B   B16       1.0  0.14400  0.96700  0.50000  1.0000
  Ce  Ce1       1.0  0.12100  0.15200  0.00000  1.0000
  Ce  Ce2       1.0  0.62100  0.34800  0.00000  1.0000
  Ce  Ce3       1.0  0.37900  0.65200  0.00000  1.0000
  Ce  Ce4       1.0  0.87900  0.84800  0.00000  1.0000
  Cr  Cr1       1.0  0.61700  0.07640  0.00000  1.0000
  Cr  Cr2       1.0  0.11700  0.42400  0.00000  1.0000
  Cr  Cr3       1.0  0.88300  0.57600  0.00000  1.0000
  Cr  Cr4       1.0  0.38300  0.92400  0.00000  1.0000
