data_image0
_chemical_formula_structural       Al2Mn2S14Sm6
_chemical_formula_sum              "Al2 Mn2 S14 Sm6"
_cell_length_a       9.6811
_cell_length_b       9.68096
_cell_length_c       6.1882
_cell_angle_alpha    90
_cell_angle_beta     90
_cell_angle_gamma    119.998

_space_group_name_H-M_alt    "P 1"
_space_group_IT_number       1

loop_
  _space_group_symop_operation_xyz
  'x, y, z'

loop_
  _atom_site_type_symbol
  _atom_site_label
  _atom_site_symmetry_multiplicity
  _atom_site_fract_x
  _atom_site_fract_y
  _atom_site_fract_z
  _atom_site_occupancy
  Al  Al1       1.0  0.66700  0.33300  0.14900  1.0000
  Al  Al2       1.0  0.33300  0.66700  0.64900  1.0000
  Mn  Mn1       1.0  0.00000  0.00000  0.06610  1.0000
  Mn  Mn2       1.0  0.00000  0.00000  0.56600  1.0000
  S   S1        1.0  0.56600  0.47700  0.00294  1.0000
  S   S2        1.0  0.91100  0.43400  0.00298  1.0000
  S   S3        1.0  0.52300  0.08910  0.00300  1.0000
  S   S4        1.0  0.33300  0.66700  0.00885  1.0000
  S   S5        1.0  0.21700  0.12300  0.32000  1.0000
  S   S6        1.0  0.90600  0.78300  0.32000  1.0000
  S   S7        1.0  0.87700  0.09380  0.32000  1.0000
  S   S8        1.0  0.43400  0.52300  0.50300  1.0000
  S   S9        1.0  0.08910  0.56600  0.50300  1.0000
  S   S10       1.0  0.47700  0.91100  0.50300  1.0000
  S   S11       1.0  0.66700  0.33300  0.50900  1.0000
  S   S12       1.0  0.78300  0.87700  0.82000  1.0000
  S   S13       1.0  0.09380  0.21700  0.82000  1.0000
  S   S14       1.0  0.12300  0.90600  0.82000  1.0000
  Sm  Sm1       1.0  0.62500  0.78300  0.22300  1.0000
  Sm  Sm2       1.0  0.21700  0.84200  0.22300  1.0000
  Sm  Sm3       1.0  0.15800  0.37500  0.22300  1.0000
  Sm  Sm4       1.0  0.37500  0.21700  0.72300  1.0000
  Sm  Sm5       1.0  0.78300  0.15800  0.72300  1.0000
  Sm  Sm6       1.0  0.84200  0.62500  0.72300  1.0000
