data_image0
_chemical_formula_structural       Al2Cd2Ce6S14
_chemical_formula_sum              "Al2 Cd2 Ce6 S14"
_cell_length_a       10.2099
_cell_length_b       10.2097
_cell_length_c       6.2009
_cell_angle_alpha    90
_cell_angle_beta     90
_cell_angle_gamma    120

_space_group_name_H-M_alt    "P 1"
_space_group_IT_number       1

loop_
  _space_group_symop_operation_xyz
  'x, y, z'

loop_
  _atom_site_type_symbol
  _atom_site_label
  _atom_site_symmetry_multiplicity
  _atom_site_fract_x
  _atom_site_fract_y
  _atom_site_fract_z
  _atom_site_occupancy
  Al  Al1       1.0  0.66700  0.33300  0.14900  1.0000
  Al  Al2       1.0  0.33300  0.66700  0.64900  1.0000
  Cd  Cd1       1.0  0.00000  0.00000  0.00926  1.0000
  Cd  Cd2       1.0  0.00000  0.00000  0.50900  1.0000
  Ce  Ce1       1.0  0.14400  0.37800  0.22800  1.0000
  Ce  Ce2       1.0  0.23400  0.85600  0.22800  1.0000
  Ce  Ce3       1.0  0.62200  0.76600  0.22800  1.0000
  Ce  Ce4       1.0  0.85600  0.62200  0.72800  1.0000
  Ce  Ce5       1.0  0.76600  0.14400  0.72800  1.0000
  Ce  Ce6       1.0  0.37800  0.23400  0.72800  1.0000
  S   S1        1.0  0.58000  0.47900  0.00045  1.0000
  S   S2        1.0  0.89900  0.42000  0.00045  1.0000
  S   S3        1.0  0.52100  0.10100  0.00046  1.0000
  S   S4        1.0  0.33300  0.66700  0.01050  1.0000
  S   S5        1.0  0.25300  0.15400  0.27600  1.0000
  S   S6        1.0  0.84600  0.09860  0.27600  1.0000
  S   S7        1.0  0.90100  0.74700  0.27600  1.0000
  S   S8        1.0  0.42000  0.52100  0.50000  1.0000
  S   S9        1.0  0.10100  0.58000  0.50000  1.0000
  S   S10       1.0  0.47900  0.89900  0.50000  1.0000
  S   S11       1.0  0.66700  0.33300  0.51000  1.0000
  S   S12       1.0  0.74700  0.84600  0.77600  1.0000
  S   S13       1.0  0.09860  0.25300  0.77600  1.0000
  S   S14       1.0  0.15400  0.90100  0.77600  1.0000
