data_image0
_chemical_formula_structural       B16Co4Gd4
_chemical_formula_sum              "B16 Co4 Gd4"
_cell_length_a       5.91348
_cell_length_b       11.4584
_cell_length_c       3.40957
_cell_angle_alpha    90
_cell_angle_beta     90
_cell_angle_gamma    90

_space_group_name_H-M_alt    "P 1"
_space_group_IT_number       1

loop_
  _space_group_symop_operation_xyz
  'x, y, z'

loop_
  _atom_site_type_symbol
  _atom_site_label
  _atom_site_symmetry_multiplicity
  _atom_site_fract_x
  _atom_site_fract_y
  _atom_site_fract_z
  _atom_site_occupancy
  B   B1        1.0  0.86000  0.03270  0.50000  1.0000
  B   B2        1.0  0.38900  0.04570  0.50000  1.0000
  B   B3        1.0  0.78100  0.18400  0.50000  1.0000
  B   B4        1.0  0.47800  0.19000  0.50000  1.0000
  B   B5        1.0  0.97800  0.31000  0.50000  1.0000
  B   B6        1.0  0.28100  0.31600  0.50000  1.0000
  B   B7        1.0  0.88900  0.45400  0.50000  1.0000
  B   B8        1.0  0.36000  0.46700  0.50000  1.0000
  B   B9        1.0  0.64000  0.53300  0.50000  1.0000
  B   B10       1.0  0.11100  0.54600  0.50000  1.0000
  B   B11       1.0  0.71900  0.68400  0.50000  1.0000
  B   B12       1.0  0.02230  0.69000  0.50000  1.0000
  B   B13       1.0  0.52200  0.81000  0.50000  1.0000
  B   B14       1.0  0.21900  0.81600  0.50000  1.0000
  B   B15       1.0  0.61100  0.95400  0.50000  1.0000
  B   B16       1.0  0.14000  0.96700  0.50000  1.0000
  Co  Co1       1.0  0.63500  0.08900  0.00000  1.0000
  Co  Co2       1.0  0.13500  0.41100  0.00000  1.0000
  Co  Co3       1.0  0.86500  0.58900  0.00000  1.0000
  Co  Co4       1.0  0.36500  0.91100  0.00000  1.0000
  Gd  Gd1       1.0  0.12800  0.15000  0.00000  1.0000
  Gd  Gd2       1.0  0.62800  0.35000  0.00000  1.0000
  Gd  Gd3       1.0  0.37200  0.65000  0.00000  1.0000
  Gd  Gd4       1.0  0.87200  0.85000  0.00000  1.0000
