data_image0
_chemical_formula_structural       Al2Ce6S14V2
_chemical_formula_sum              "Al2 Ce6 S14 V2"
_cell_length_a       10.1113
_cell_length_b       10.1121
_cell_length_c       6.151
_cell_angle_alpha    90
_cell_angle_beta     90
_cell_angle_gamma    120

_space_group_name_H-M_alt    "P 1"
_space_group_IT_number       1

loop_
  _space_group_symop_operation_xyz
  'x, y, z'

loop_
  _atom_site_type_symbol
  _atom_site_label
  _atom_site_symmetry_multiplicity
  _atom_site_fract_x
  _atom_site_fract_y
  _atom_site_fract_z
  _atom_site_occupancy
  Al  Al1       1.0  0.66700  0.33300  0.15300  1.0000
  Al  Al2       1.0  0.33300  0.66700  0.65300  1.0000
  Ce  Ce1       1.0  0.14800  0.37600  0.23100  1.0000
  Ce  Ce2       1.0  0.62400  0.77200  0.23100  1.0000
  Ce  Ce3       1.0  0.22800  0.85200  0.23100  1.0000
  Ce  Ce4       1.0  0.77200  0.14800  0.73100  1.0000
  Ce  Ce5       1.0  0.37600  0.22800  0.73100  1.0000
  Ce  Ce6       1.0  0.85200  0.62400  0.73100  1.0000
  S   S1        1.0  0.57700  0.48000  0.01030  1.0000
  S   S2        1.0  0.52000  0.09780  0.01030  1.0000
  S   S3        1.0  0.90200  0.42300  0.01030  1.0000
  S   S4        1.0  0.33300  0.66700  0.01480  1.0000
  S   S5        1.0  0.91000  0.77600  0.30600  1.0000
  S   S6        1.0  0.86600  0.09040  0.30600  1.0000
  S   S7        1.0  0.22400  0.13400  0.30600  1.0000
  S   S8        1.0  0.42300  0.52000  0.51000  1.0000
  S   S9        1.0  0.48000  0.90200  0.51000  1.0000
  S   S10       1.0  0.09790  0.57700  0.51000  1.0000
  S   S11       1.0  0.66700  0.33300  0.51500  1.0000
  S   S12       1.0  0.09040  0.22400  0.80600  1.0000
  S   S13       1.0  0.13400  0.91000  0.80600  1.0000
  S   S14       1.0  0.77600  0.86600  0.80600  1.0000
  V   V1        1.0  0.00000  0.00000  0.05470  1.0000
  V   V2        1.0  0.00000  0.00000  0.55500  1.0000
