data_image0
_chemical_formula_structural       B16Cr4Lu4
_chemical_formula_sum              "B16 Cr4 Lu4"
_cell_length_a       5.85847
_cell_length_b       11.3164
_cell_length_c       3.38532
_cell_angle_alpha    90
_cell_angle_beta     90
_cell_angle_gamma    90

_space_group_name_H-M_alt    "P 1"
_space_group_IT_number       1

loop_
  _space_group_symop_operation_xyz
  'x, y, z'

loop_
  _atom_site_type_symbol
  _atom_site_label
  _atom_site_symmetry_multiplicity
  _atom_site_fract_x
  _atom_site_fract_y
  _atom_site_fract_z
  _atom_site_occupancy
  B   B1        1.0  0.86500  0.03240  0.50000  1.0000
  B   B2        1.0  0.38600  0.04750  0.50000  1.0000
  B   B3        1.0  0.78300  0.18500  0.50000  1.0000
  B   B4        1.0  0.47600  0.19300  0.50000  1.0000
  B   B5        1.0  0.97600  0.30700  0.50000  1.0000
  B   B6        1.0  0.28300  0.31500  0.50000  1.0000
  B   B7        1.0  0.88600  0.45300  0.50000  1.0000
  B   B8        1.0  0.36500  0.46800  0.50000  1.0000
  B   B9        1.0  0.63500  0.53200  0.50000  1.0000
  B   B10       1.0  0.11400  0.54700  0.50000  1.0000
  B   B11       1.0  0.71700  0.68500  0.50000  1.0000
  B   B12       1.0  0.02420  0.69300  0.50000  1.0000
  B   B13       1.0  0.52400  0.80700  0.50000  1.0000
  B   B14       1.0  0.21700  0.81500  0.50000  1.0000
  B   B15       1.0  0.61400  0.95300  0.50000  1.0000
  B   B16       1.0  0.13500  0.96800  0.50000  1.0000
  Cr  Cr1       1.0  0.62300  0.07980  0.00000  1.0000
  Cr  Cr2       1.0  0.12300  0.42000  0.00000  1.0000
  Cr  Cr3       1.0  0.87700  0.58000  0.00000  1.0000
  Cr  Cr4       1.0  0.37700  0.92000  0.00000  1.0000
  Lu  Lu1       1.0  0.12600  0.15100  0.00000  1.0000
  Lu  Lu2       1.0  0.62600  0.34900  0.00000  1.0000
  Lu  Lu3       1.0  0.37400  0.65100  0.00000  1.0000
  Lu  Lu4       1.0  0.87400  0.84900  0.00000  1.0000
