data_image0
_chemical_formula_structural       Al2Cd2La6S14
_chemical_formula_sum              "Al2 Cd2 La6 S14"
_cell_length_a       10.2797
_cell_length_b       10.2796
_cell_length_c       6.10145
_cell_angle_alpha    90
_cell_angle_beta     90
_cell_angle_gamma    120

_space_group_name_H-M_alt    "P 1"
_space_group_IT_number       1

loop_
  _space_group_symop_operation_xyz
  'x, y, z'

loop_
  _atom_site_type_symbol
  _atom_site_label
  _atom_site_symmetry_multiplicity
  _atom_site_fract_x
  _atom_site_fract_y
  _atom_site_fract_z
  _atom_site_occupancy
  Al  Al1       1.0  0.66700  0.33300  0.15400  1.0000
  Al  Al2       1.0  0.33300  0.66700  0.65400  1.0000
  Cd  Cd1       1.0  0.00000  0.00000  0.50000  1.0000
  Cd  Cd2       1.0  0.00000  0.00000  0.00000  1.0000
  La  La1       1.0  0.62400  0.75900  0.23500  1.0000
  La  La2       1.0  0.13500  0.37600  0.23500  1.0000
  La  La3       1.0  0.24100  0.86500  0.23500  1.0000
  La  La4       1.0  0.37600  0.24100  0.73500  1.0000
  La  La5       1.0  0.75900  0.13500  0.73500  1.0000
  La  La6       1.0  0.86500  0.62400  0.73500  1.0000
  S   S1        1.0  0.51800  0.10400  0.00420  1.0000
  S   S2        1.0  0.58600  0.48200  0.00421  1.0000
  S   S3        1.0  0.89600  0.41400  0.00421  1.0000
  S   S4        1.0  0.33300  0.66700  0.02070  1.0000
  S   S5        1.0  0.84000  0.09150  0.26400  1.0000
  S   S6        1.0  0.25100  0.16000  0.26400  1.0000
  S   S7        1.0  0.90900  0.74900  0.26400  1.0000
  S   S8        1.0  0.41400  0.51800  0.50400  1.0000
  S   S9        1.0  0.48200  0.89600  0.50400  1.0000
  S   S10       1.0  0.10400  0.58600  0.50400  1.0000
  S   S11       1.0  0.66700  0.33300  0.52100  1.0000
  S   S12       1.0  0.74900  0.84000  0.76400  1.0000
  S   S13       1.0  0.09150  0.25100  0.76400  1.0000
  S   S14       1.0  0.16000  0.90900  0.76400  1.0000
