data_image0
_chemical_formula_structural       Al4Au8Hf12
_chemical_formula_sum              "Al4 Au8 Hf12"
_cell_length_a       8.68238
_cell_length_b       8.68238
_cell_length_c       8.68238
_cell_angle_alpha    120
_cell_angle_beta     90
_cell_angle_gamma    120

_space_group_name_H-M_alt    "P 1"
_space_group_IT_number       1

loop_
  _space_group_symop_operation_xyz
  'x, y, z'

loop_
  _atom_site_type_symbol
  _atom_site_label
  _atom_site_symmetry_multiplicity
  _atom_site_fract_x
  _atom_site_fract_y
  _atom_site_fract_z
  _atom_site_occupancy
  Al  Al1       1.0  0.00000  0.00000  0.00000  1.0000
  Al  Al2       1.0  0.50000  0.00000  0.00000  1.0000
  Al  Al3       1.0  0.50000  0.50000  0.00000  1.0000
  Al  Al4       1.0  0.50000  0.50000  0.50000  1.0000
  Au  Au1       1.0  0.71400  0.92700  0.14100  1.0000
  Au  Au2       1.0  0.28600  0.07290  0.21400  1.0000
  Au  Au3       1.0  0.28600  0.42700  0.21400  1.0000
  Au  Au4       1.0  0.64100  0.42700  0.21400  1.0000
  Au  Au5       1.0  0.35900  0.57300  0.78600  1.0000
  Au  Au6       1.0  0.71400  0.57300  0.78600  1.0000
  Au  Au7       1.0  0.71400  0.92700  0.78600  1.0000
  Au  Au8       1.0  0.28600  0.07290  0.85900  1.0000
  Hf  Hf1       1.0  0.32000  0.75000  0.18000  1.0000
  Hf  Hf2       1.0  0.93000  0.36000  0.18000  1.0000
  Hf  Hf3       1.0  0.93000  0.75000  0.18000  1.0000
  Hf  Hf4       1.0  0.07020  0.25000  0.43000  1.0000
  Hf  Hf5       1.0  0.68000  0.25000  0.43000  1.0000
  Hf  Hf6       1.0  0.68000  0.86000  0.43000  1.0000
  Hf  Hf7       1.0  0.32000  0.14000  0.57000  1.0000
  Hf  Hf8       1.0  0.32000  0.75000  0.57000  1.0000
  Hf  Hf9       1.0  0.93000  0.75000  0.57000  1.0000
  Hf  Hf10      1.0  0.07020  0.25000  0.82000  1.0000
  Hf  Hf11      1.0  0.68000  0.25000  0.82000  1.0000
  Hf  Hf12      1.0  0.07020  0.64000  0.82000  1.0000
