data_image0
_chemical_formula_structural       Ag2S14Si2Sm6
_chemical_formula_sum              "Ag2 S14 Si2 Sm6"
_cell_length_a       10.205
_cell_length_b       10.2049
_cell_length_c       5.72704
_cell_angle_alpha    90
_cell_angle_beta     90
_cell_angle_gamma    120

_space_group_name_H-M_alt    "P 1"
_space_group_IT_number       1

loop_
  _space_group_symop_operation_xyz
  'x, y, z'

loop_
  _atom_site_type_symbol
  _atom_site_label
  _atom_site_symmetry_multiplicity
  _atom_site_fract_x
  _atom_site_fract_y
  _atom_site_fract_z
  _atom_site_occupancy
  Ag  Ag1       1.0  0.00000  0.00000  0.29900  1.0000
  Ag  Ag2       1.0  0.00000  0.00000  0.79900  1.0000
  S   S1        1.0  0.88700  0.40900  0.01230  1.0000
  S   S2        1.0  0.52300  0.11300  0.01230  1.0000
  S   S3        1.0  0.59100  0.47700  0.01230  1.0000
  S   S4        1.0  0.33300  0.66700  0.03040  1.0000
  S   S5        1.0  0.27100  0.17900  0.26600  1.0000
  S   S6        1.0  0.90800  0.72900  0.26600  1.0000
  S   S7        1.0  0.82100  0.09220  0.26600  1.0000
  S   S8        1.0  0.11300  0.59100  0.51200  1.0000
  S   S9        1.0  0.40900  0.52300  0.51200  1.0000
  S   S10       1.0  0.47700  0.88700  0.51200  1.0000
  S   S11       1.0  0.66700  0.33300  0.53000  1.0000
  S   S12       1.0  0.09210  0.27100  0.76600  1.0000
  S   S13       1.0  0.72900  0.82100  0.76600  1.0000
  S   S14       1.0  0.17900  0.90800  0.76600  1.0000
  Si  Si1       1.0  0.66700  0.33300  0.16200  1.0000
  Si  Si2       1.0  0.33300  0.66700  0.66200  1.0000
  Sm  Sm1       1.0  0.12300  0.36000  0.25000  1.0000
  Sm  Sm2       1.0  0.64000  0.76300  0.25000  1.0000
  Sm  Sm3       1.0  0.23700  0.87700  0.25000  1.0000
  Sm  Sm4       1.0  0.87700  0.64000  0.75000  1.0000
  Sm  Sm5       1.0  0.76300  0.12300  0.75000  1.0000
  Sm  Sm6       1.0  0.36000  0.23700  0.75000  1.0000
