data_image0
_chemical_formula_structural       Ce8Rh8Zn8
_chemical_formula_sum              "Ce8 Rh8 Zn8"
_cell_length_a       7.40621
_cell_length_b       4.06689
_cell_length_c       16.7252
_cell_angle_alpha    90
_cell_angle_beta     90
_cell_angle_gamma    90

_space_group_name_H-M_alt    "P 1"
_space_group_IT_number       1

loop_
  _space_group_symop_operation_xyz
  'x, y, z'

loop_
  _atom_site_type_symbol
  _atom_site_label
  _atom_site_symmetry_multiplicity
  _atom_site_fract_x
  _atom_site_fract_y
  _atom_site_fract_z
  _atom_site_occupancy
  Ce  Ce1       1.0  0.16900  0.25000  0.06060  1.0000
  Ce  Ce2       1.0  0.55100  0.25000  0.21700  1.0000
  Ce  Ce3       1.0  0.05050  0.25000  0.28300  1.0000
  Ce  Ce4       1.0  0.66900  0.25000  0.43900  1.0000
  Ce  Ce5       1.0  0.33100  0.75000  0.56100  1.0000
  Ce  Ce6       1.0  0.94900  0.75000  0.71700  1.0000
  Ce  Ce7       1.0  0.44900  0.75000  0.78300  1.0000
  Ce  Ce8       1.0  0.83100  0.75000  0.93900  1.0000
  Rh  Rh1       1.0  0.74200  0.25000  0.06520  1.0000
  Rh  Rh2       1.0  0.25600  0.75000  0.18600  1.0000
  Rh  Rh3       1.0  0.75600  0.75000  0.31400  1.0000
  Rh  Rh4       1.0  0.24200  0.25000  0.43500  1.0000
  Rh  Rh5       1.0  0.75800  0.75000  0.56500  1.0000
  Rh  Rh6       1.0  0.24400  0.25000  0.68600  1.0000
  Rh  Rh7       1.0  0.74400  0.25000  0.81400  1.0000
  Rh  Rh8       1.0  0.25800  0.75000  0.93500  1.0000
  Zn  Zn1       1.0  0.50200  0.75000  0.06010  1.0000
  Zn  Zn2       1.0  0.87700  0.75000  0.15000  1.0000
  Zn  Zn3       1.0  0.37700  0.75000  0.35000  1.0000
  Zn  Zn4       1.0  0.00237  0.75000  0.44000  1.0000
  Zn  Zn5       1.0  0.99800  0.25000  0.56000  1.0000
  Zn  Zn6       1.0  0.62300  0.25000  0.65000  1.0000
  Zn  Zn7       1.0  0.12300  0.25000  0.85000  1.0000
  Zn  Zn8       1.0  0.49800  0.25000  0.94000  1.0000
