data_image0
_chemical_formula_structural       Ag2Ce6S14Si2
_chemical_formula_sum              "Ag2 Ce6 S14 Si2"
_cell_length_a       10.4515
_cell_length_b       10.4514
_cell_length_c       5.82728
_cell_angle_alpha    90
_cell_angle_beta     90
_cell_angle_gamma    120

_space_group_name_H-M_alt    "P 1"
_space_group_IT_number       1

loop_
  _space_group_symop_operation_xyz
  'x, y, z'

loop_
  _atom_site_type_symbol
  _atom_site_label
  _atom_site_symmetry_multiplicity
  _atom_site_fract_x
  _atom_site_fract_y
  _atom_site_fract_z
  _atom_site_occupancy
  Ag  Ag1       1.0  0.00000  0.00000  0.29800  1.0000
  Ag  Ag2       1.0  0.00000  0.00000  0.79800  1.0000
  Ce  Ce1       1.0  0.12200  0.36000  0.24900  1.0000
  Ce  Ce2       1.0  0.64000  0.76200  0.24900  1.0000
  Ce  Ce3       1.0  0.23800  0.87800  0.24900  1.0000
  Ce  Ce4       1.0  0.87800  0.64000  0.74900  1.0000
  Ce  Ce5       1.0  0.76200  0.12200  0.74900  1.0000
  Ce  Ce6       1.0  0.36000  0.23800  0.74900  1.0000
  S   S1        1.0  0.52500  0.11800  0.01870  1.0000
  S   S2        1.0  0.59300  0.47500  0.01870  1.0000
  S   S3        1.0  0.88200  0.40700  0.01880  1.0000
  S   S4        1.0  0.33300  0.66700  0.02650  1.0000
  S   S5        1.0  0.82200  0.08870  0.26200  1.0000
  S   S6        1.0  0.26700  0.17800  0.26200  1.0000
  S   S7        1.0  0.91100  0.73300  0.26200  1.0000
  S   S8        1.0  0.47500  0.88200  0.51900  1.0000
  S   S9        1.0  0.40700  0.52500  0.51900  1.0000
  S   S10       1.0  0.11800  0.59300  0.51900  1.0000
  S   S11       1.0  0.66700  0.33300  0.52600  1.0000
  S   S12       1.0  0.08870  0.26700  0.76200  1.0000
  S   S13       1.0  0.73300  0.82200  0.76200  1.0000
  S   S14       1.0  0.17800  0.91100  0.76200  1.0000
  Si  Si1       1.0  0.66700  0.33300  0.16300  1.0000
  Si  Si2       1.0  0.33300  0.66700  0.66300  1.0000
