data_image0
_chemical_formula_structural       Al2La6S14V2
_chemical_formula_sum              "Al2 La6 S14 V2"
_cell_length_a       10.1439
_cell_length_b       10.1442
_cell_length_c       6.09264
_cell_angle_alpha    90
_cell_angle_beta     90
_cell_angle_gamma    120

_space_group_name_H-M_alt    "P 1"
_space_group_IT_number       1

loop_
  _space_group_symop_operation_xyz
  'x, y, z'

loop_
  _atom_site_type_symbol
  _atom_site_label
  _atom_site_symmetry_multiplicity
  _atom_site_fract_x
  _atom_site_fract_y
  _atom_site_fract_z
  _atom_site_occupancy
  Al  Al1       1.0  0.66700  0.33300  0.14100  1.0000
  Al  Al2       1.0  0.33300  0.66700  0.64100  1.0000
  La  La1       1.0  0.62500  0.77100  0.21800  1.0000
  La  La2       1.0  0.22900  0.85400  0.21800  1.0000
  La  La3       1.0  0.14600  0.37500  0.21800  1.0000
  La  La4       1.0  0.37500  0.22900  0.71800  1.0000
  La  La5       1.0  0.77100  0.14600  0.71800  1.0000
  La  La6       1.0  0.85400  0.62500  0.71800  1.0000
  S   S1        1.0  0.33300  0.66700  0.00625  1.0000
  S   S2        1.0  0.86500  0.08900  0.28500  1.0000
  S   S3        1.0  0.91100  0.77600  0.28500  1.0000
  S   S4        1.0  0.22400  0.13500  0.28500  1.0000
  S   S5        1.0  0.09860  0.57800  0.49800  1.0000
  S   S6        1.0  0.42100  0.52000  0.49800  1.0000
  S   S7        1.0  0.48000  0.90100  0.49800  1.0000
  S   S8        1.0  0.66700  0.33300  0.50600  1.0000
  S   S9        1.0  0.13500  0.91100  0.78500  1.0000
  S   S10       1.0  0.08900  0.22400  0.78500  1.0000
  S   S11       1.0  0.77600  0.86500  0.78500  1.0000
  S   S12       1.0  0.90100  0.42200  0.99800  1.0000
  S   S13       1.0  0.57900  0.48000  0.99800  1.0000
  S   S14       1.0  0.52000  0.09870  0.99800  1.0000
  V   V1        1.0  0.00000  0.00000  0.03350  1.0000
  V   V2        1.0  0.00000  0.00000  0.53300  1.0000
