data_image0
_chemical_formula_structural       B16Ce4Ni4
_chemical_formula_sum              "B16 Ce4 Ni4"
_cell_length_a       6.99532
_cell_length_b       6.99532
_cell_length_c       6.99532
_cell_angle_alpha    112.729
_cell_angle_beta     112.729
_cell_angle_gamma    103.136

_space_group_name_H-M_alt    "P 1"
_space_group_IT_number       1

loop_
  _space_group_symop_operation_xyz
  'x, y, z'

loop_
  _atom_site_type_symbol
  _atom_site_label
  _atom_site_symmetry_multiplicity
  _atom_site_fract_x
  _atom_site_fract_y
  _atom_site_fract_z
  _atom_site_occupancy
  B   B1        1.0  0.58500  0.11300  0.00000  1.0000
  B   B2        1.0  0.88700  0.41500  0.00000  1.0000
  B   B3        1.0  0.11300  0.58500  0.00000  1.0000
  B   B4        1.0  0.41500  0.88700  0.00000  1.0000
  B   B5        1.0  0.88700  0.27600  0.16300  1.0000
  B   B6        1.0  0.27600  0.88700  0.16300  1.0000
  B   B7        1.0  0.27600  0.11300  0.38900  1.0000
  B   B8        1.0  0.11300  0.27600  0.38900  1.0000
  B   B9        1.0  0.58500  0.58500  0.47200  1.0000
  B   B10       1.0  0.88700  0.88700  0.47200  1.0000
  B   B11       1.0  0.11300  0.11300  0.52800  1.0000
  B   B12       1.0  0.41500  0.41500  0.52800  1.0000
  B   B13       1.0  0.88700  0.72400  0.61100  1.0000
  B   B14       1.0  0.72400  0.88700  0.61100  1.0000
  B   B15       1.0  0.72400  0.11300  0.83700  1.0000
  B   B16       1.0  0.11300  0.72400  0.83700  1.0000
  Ce  Ce1       1.0  0.20600  0.20600  0.00000  1.0000
  Ce  Ce2       1.0  0.79400  0.79400  0.00000  1.0000
  Ce  Ce3       1.0  0.75000  0.25000  0.50000  1.0000
  Ce  Ce4       1.0  0.25000  0.75000  0.50000  1.0000
  Ni  Ni1       1.0  0.72800  0.50000  0.22800  1.0000
  Ni  Ni2       1.0  0.50000  0.72800  0.22800  1.0000
  Ni  Ni3       1.0  0.50000  0.27200  0.77200  1.0000
  Ni  Ni4       1.0  0.27200  0.50000  0.77200  1.0000
