data_image0
_chemical_formula_structural       Al8C4Nb12
_chemical_formula_sum              "Al8 C4 Nb12"
_cell_length_a       7.12418
_cell_length_b       7.12418
_cell_length_c       7.12418
_cell_angle_alpha    90
_cell_angle_beta     90
_cell_angle_gamma    90

_space_group_name_H-M_alt    "P 1"
_space_group_IT_number       1

loop_
  _space_group_symop_operation_xyz
  'x, y, z'

loop_
  _atom_site_type_symbol
  _atom_site_label
  _atom_site_symmetry_multiplicity
  _atom_site_fract_x
  _atom_site_fract_y
  _atom_site_fract_z
  _atom_site_occupancy
  Al  Al1       1.0  0.07020  0.07020  0.07020  1.0000
  Al  Al2       1.0  0.82000  0.32000  0.18000  1.0000
  Al  Al3       1.0  0.18000  0.82000  0.32000  1.0000
  Al  Al4       1.0  0.93000  0.57000  0.43000  1.0000
  Al  Al5       1.0  0.43000  0.93000  0.57000  1.0000
  Al  Al6       1.0  0.68000  0.68000  0.68000  1.0000
  Al  Al7       1.0  0.32000  0.18000  0.82000  1.0000
  Al  Al8       1.0  0.57000  0.43000  0.93000  1.0000
  C   C1        1.0  0.62500  0.87500  0.12500  1.0000
  C   C2        1.0  0.37500  0.37500  0.37500  1.0000
  C   C3        1.0  0.87500  0.12500  0.62500  1.0000
  C   C4        1.0  0.12500  0.62500  0.87500  1.0000
  Nb  Nb1       1.0  0.87500  0.70500  0.04470  1.0000
  Nb  Nb2       1.0  0.20500  0.45500  0.12500  1.0000
  Nb  Nb3       1.0  0.45500  0.12500  0.20500  1.0000
  Nb  Nb4       1.0  0.54500  0.62500  0.29500  1.0000
  Nb  Nb5       1.0  0.79500  0.95500  0.37500  1.0000
  Nb  Nb6       1.0  0.12500  0.20500  0.45500  1.0000
  Nb  Nb7       1.0  0.62500  0.29500  0.54500  1.0000
  Nb  Nb8       1.0  0.29500  0.54500  0.62500  1.0000
  Nb  Nb9       1.0  0.04470  0.87500  0.70500  1.0000
  Nb  Nb10      1.0  0.95500  0.37500  0.79500  1.0000
  Nb  Nb11      1.0  0.70500  0.04470  0.87500  1.0000
  Nb  Nb12      1.0  0.37500  0.79500  0.95500  1.0000
