data_image0
_chemical_formula_structural       Al2Ni2S14Sm6
_chemical_formula_sum              "Al2 Ni2 S14 Sm6"
_cell_length_a       9.72983
_cell_length_b       9.73233
_cell_length_c       6.20267
_cell_angle_alpha    90
_cell_angle_beta     90
_cell_angle_gamma    120.002

_space_group_name_H-M_alt    "P 1"
_space_group_IT_number       1

loop_
  _space_group_symop_operation_xyz
  'x, y, z'

loop_
  _atom_site_type_symbol
  _atom_site_label
  _atom_site_symmetry_multiplicity
  _atom_site_fract_x
  _atom_site_fract_y
  _atom_site_fract_z
  _atom_site_occupancy
  Al  Al1       1.0  0.66700  0.33300  0.15300  1.0000
  Al  Al2       1.0  0.33300  0.66700  0.65300  1.0000
  Ni  Ni1       1.0  0.00000  0.00000  0.05400  1.0000
  Ni  Ni2       1.0  0.00000  0.00000  0.55400  1.0000
  S   S1        1.0  0.52100  0.09130  0.00344  1.0000
  S   S2        1.0  0.57000  0.47900  0.00347  1.0000
  S   S3        1.0  0.90800  0.43000  0.00356  1.0000
  S   S4        1.0  0.33300  0.66700  0.01380  1.0000
  S   S5        1.0  0.90400  0.77200  0.31500  1.0000
  S   S6        1.0  0.86800  0.09550  0.31600  1.0000
  S   S7        1.0  0.22800  0.13200  0.31600  1.0000
  S   S8        1.0  0.47900  0.90900  0.50300  1.0000
  S   S9        1.0  0.43000  0.52100  0.50300  1.0000
  S   S10       1.0  0.09160  0.57000  0.50400  1.0000
  S   S11       1.0  0.66700  0.33300  0.51400  1.0000
  S   S12       1.0  0.09550  0.22800  0.81500  1.0000
  S   S13       1.0  0.13200  0.90400  0.81600  1.0000
  S   S14       1.0  0.77200  0.86800  0.81600  1.0000
  Sm  Sm1       1.0  0.62500  0.77800  0.22900  1.0000
  Sm  Sm2       1.0  0.22200  0.84700  0.22900  1.0000
  Sm  Sm3       1.0  0.15300  0.37500  0.22900  1.0000
  Sm  Sm4       1.0  0.37500  0.22200  0.72900  1.0000
  Sm  Sm5       1.0  0.77800  0.15300  0.72900  1.0000
  Sm  Sm6       1.0  0.84700  0.62500  0.72900  1.0000
