data_image0
_chemical_formula_structural       Al2Fe2Gd6S14
_chemical_formula_sum              "Al2 Fe2 Gd6 S14"
_cell_length_a       9.68318
_cell_length_b       9.72713
_cell_length_c       6.13028
_cell_angle_alpha    90
_cell_angle_beta     90
_cell_angle_gamma    119.992

_space_group_name_H-M_alt    "P 1"
_space_group_IT_number       1

loop_
  _space_group_symop_operation_xyz
  'x, y, z'

loop_
  _atom_site_type_symbol
  _atom_site_label
  _atom_site_symmetry_multiplicity
  _atom_site_fract_x
  _atom_site_fract_y
  _atom_site_fract_z
  _atom_site_occupancy
  Al  Al1       1.0  0.66500  0.33300  0.15500  1.0000
  Al  Al2       1.0  0.33500  0.66700  0.65500  1.0000
  Fe  Fe1       1.0  0.99800  0.99600  0.05190  1.0000
  Fe  Fe2       1.0  0.00191  0.00439  0.55200  1.0000
  Gd  Gd1       1.0  0.15200  0.37900  0.22900  1.0000
  Gd  Gd2       1.0  0.22500  0.84900  0.23100  1.0000
  Gd  Gd3       1.0  0.62500  0.77400  0.23200  1.0000
  Gd  Gd4       1.0  0.84800  0.62100  0.72900  1.0000
  Gd  Gd5       1.0  0.77500  0.15100  0.73100  1.0000
  Gd  Gd6       1.0  0.37500  0.22600  0.73200  1.0000
  S   S1        1.0  0.51800  0.09180  0.00038  1.0000
  S   S2        1.0  0.57200  0.48000  0.00093  1.0000
  S   S3        1.0  0.90800  0.42700  0.00124  1.0000
  S   S4        1.0  0.33400  0.66800  0.01940  1.0000
  S   S5        1.0  0.23700  0.13800  0.31400  1.0000
  S   S6        1.0  0.86300  0.09940  0.31400  1.0000
  S   S7        1.0  0.90200  0.76400  0.31500  1.0000
  S   S8        1.0  0.48200  0.90800  0.50000  1.0000
  S   S9        1.0  0.42800  0.52000  0.50100  1.0000
  S   S10       1.0  0.09200  0.57300  0.50100  1.0000
  S   S11       1.0  0.66600  0.33200  0.51900  1.0000
  S   S12       1.0  0.76300  0.86200  0.81400  1.0000
  S   S13       1.0  0.13700  0.90100  0.81400  1.0000
  S   S14       1.0  0.09830  0.23600  0.81500  1.0000
