data_image0
_chemical_formula_structural       B16Dy4V4
_chemical_formula_sum              "B16 Dy4 V4"
_cell_length_a       5.99918
_cell_length_b       11.6036
_cell_length_c       3.4418
_cell_angle_alpha    90
_cell_angle_beta     90
_cell_angle_gamma    90

_space_group_name_H-M_alt    "P 1"
_space_group_IT_number       1

loop_
  _space_group_symop_operation_xyz
  'x, y, z'

loop_
  _atom_site_type_symbol
  _atom_site_label
  _atom_site_symmetry_multiplicity
  _atom_site_fract_x
  _atom_site_fract_y
  _atom_site_fract_z
  _atom_site_occupancy
  B   B1        1.0  0.86400  0.03250  0.50000  1.0000
  B   B2        1.0  0.38600  0.04750  0.50000  1.0000
  B   B3        1.0  0.78600  0.18500  0.50000  1.0000
  B   B4        1.0  0.47800  0.19200  0.50000  1.0000
  B   B5        1.0  0.97800  0.30800  0.50000  1.0000
  B   B6        1.0  0.28600  0.31500  0.50000  1.0000
  B   B7        1.0  0.88600  0.45200  0.50000  1.0000
  B   B8        1.0  0.36400  0.46700  0.50000  1.0000
  B   B9        1.0  0.63600  0.53300  0.50000  1.0000
  B   B10       1.0  0.11400  0.54800  0.50000  1.0000
  B   B11       1.0  0.71400  0.68500  0.50000  1.0000
  B   B12       1.0  0.02240  0.69200  0.50000  1.0000
  B   B13       1.0  0.52200  0.80800  0.50000  1.0000
  B   B14       1.0  0.21400  0.81500  0.50000  1.0000
  B   B15       1.0  0.61400  0.95200  0.50000  1.0000
  B   B16       1.0  0.13600  0.96700  0.50000  1.0000
  Dy  Dy1       1.0  0.12400  0.15100  0.00000  1.0000
  Dy  Dy2       1.0  0.62400  0.34900  0.00000  1.0000
  Dy  Dy3       1.0  0.37600  0.65100  0.00000  1.0000
  Dy  Dy4       1.0  0.87600  0.84900  0.00000  1.0000
  V   V1        1.0  0.62700  0.08260  0.00000  1.0000
  V   V2        1.0  0.12700  0.41700  0.00000  1.0000
  V   V3        1.0  0.87300  0.58300  0.00000  1.0000
  V   V4        1.0  0.37300  0.91700  0.00000  1.0000
