data_image0
_chemical_formula_structural       B16Dy4Fe4
_chemical_formula_sum              "B16 Dy4 Fe4"
_cell_length_a       5.88097
_cell_length_b       11.3802
_cell_length_c       3.37416
_cell_angle_alpha    90
_cell_angle_beta     90
_cell_angle_gamma    90

_space_group_name_H-M_alt    "P 1"
_space_group_IT_number       1

loop_
  _space_group_symop_operation_xyz
  'x, y, z'

loop_
  _atom_site_type_symbol
  _atom_site_label
  _atom_site_symmetry_multiplicity
  _atom_site_fract_x
  _atom_site_fract_y
  _atom_site_fract_z
  _atom_site_occupancy
  B   B1        1.0  0.86100  0.03180  0.50000  1.0000
  B   B2        1.0  0.38900  0.04600  0.50000  1.0000
  B   B3        1.0  0.78300  0.18300  0.50000  1.0000
  B   B4        1.0  0.47600  0.19000  0.50000  1.0000
  B   B5        1.0  0.97600  0.31000  0.50000  1.0000
  B   B6        1.0  0.28300  0.31700  0.50000  1.0000
  B   B7        1.0  0.88900  0.45400  0.50000  1.0000
  B   B8        1.0  0.36100  0.46800  0.50000  1.0000
  B   B9        1.0  0.63900  0.53200  0.50000  1.0000
  B   B10       1.0  0.11100  0.54600  0.50000  1.0000
  B   B11       1.0  0.71700  0.68300  0.50000  1.0000
  B   B12       1.0  0.02380  0.69000  0.50000  1.0000
  B   B13       1.0  0.52400  0.81000  0.50000  1.0000
  B   B14       1.0  0.21700  0.81700  0.50000  1.0000
  B   B15       1.0  0.61100  0.95400  0.50000  1.0000
  B   B16       1.0  0.13900  0.96800  0.50000  1.0000
  Dy  Dy1       1.0  0.12700  0.15000  0.00000  1.0000
  Dy  Dy2       1.0  0.62700  0.35000  0.00000  1.0000
  Dy  Dy3       1.0  0.37300  0.65000  0.00000  1.0000
  Dy  Dy4       1.0  0.87300  0.85000  0.00000  1.0000
  Fe  Fe1       1.0  0.63300  0.08830  0.00000  1.0000
  Fe  Fe2       1.0  0.13300  0.41200  0.00000  1.0000
  Fe  Fe3       1.0  0.86700  0.58800  0.00000  1.0000
  Fe  Fe4       1.0  0.36700  0.91200  0.00000  1.0000
