data_image0
_chemical_formula_structural       Ag2Nd6S14Si2
_chemical_formula_sum              "Ag2 Nd6 S14 Si2"
_cell_length_a       10.3091
_cell_length_b       10.3089
_cell_length_c       5.76983
_cell_angle_alpha    90
_cell_angle_beta     90
_cell_angle_gamma    120

_space_group_name_H-M_alt    "P 1"
_space_group_IT_number       1

loop_
  _space_group_symop_operation_xyz
  'x, y, z'

loop_
  _atom_site_type_symbol
  _atom_site_label
  _atom_site_symmetry_multiplicity
  _atom_site_fract_x
  _atom_site_fract_y
  _atom_site_fract_z
  _atom_site_occupancy
  Ag  Ag1       1.0  0.00000  0.00000  0.29700  1.0000
  Ag  Ag2       1.0  0.00000  0.00000  0.79700  1.0000
  Nd  Nd1       1.0  0.12300  0.35900  0.25000  1.0000
  Nd  Nd2       1.0  0.64100  0.76300  0.25000  1.0000
  Nd  Nd3       1.0  0.23700  0.87700  0.25000  1.0000
  Nd  Nd4       1.0  0.76300  0.12300  0.75000  1.0000
  Nd  Nd5       1.0  0.35900  0.23700  0.75000  1.0000
  Nd  Nd6       1.0  0.87700  0.64100  0.75000  1.0000
  S   S1        1.0  0.88500  0.40800  0.01530  1.0000
  S   S2        1.0  0.52400  0.11500  0.01530  1.0000
  S   S3        1.0  0.59200  0.47600  0.01530  1.0000
  S   S4        1.0  0.33300  0.66700  0.02810  1.0000
  S   S5        1.0  0.90900  0.73100  0.26500  1.0000
  S   S6        1.0  0.82100  0.09060  0.26500  1.0000
  S   S7        1.0  0.26900  0.17900  0.26500  1.0000
  S   S8        1.0  0.11500  0.59200  0.51500  1.0000
  S   S9        1.0  0.40800  0.52400  0.51500  1.0000
  S   S10       1.0  0.47600  0.88500  0.51500  1.0000
  S   S11       1.0  0.66700  0.33300  0.52800  1.0000
  S   S12       1.0  0.09060  0.26900  0.76500  1.0000
  S   S13       1.0  0.73100  0.82100  0.76500  1.0000
  S   S14       1.0  0.17900  0.90900  0.76500  1.0000
  Si  Si1       1.0  0.66700  0.33300  0.16200  1.0000
  Si  Si2       1.0  0.33300  0.66700  0.66200  1.0000
