data_image0
_chemical_formula_structural       B16Er4Fe4
_chemical_formula_sum              "B16 Er4 Fe4"
_cell_length_a       5.85762
_cell_length_b       11.3316
_cell_length_c       3.34945
_cell_angle_alpha    90
_cell_angle_beta     90
_cell_angle_gamma    90

_space_group_name_H-M_alt    "P 1"
_space_group_IT_number       1

loop_
  _space_group_symop_operation_xyz
  'x, y, z'

loop_
  _atom_site_type_symbol
  _atom_site_label
  _atom_site_symmetry_multiplicity
  _atom_site_fract_x
  _atom_site_fract_y
  _atom_site_fract_z
  _atom_site_occupancy
  B   B1        1.0  0.86200  0.03170  0.50000  1.0000
  B   B2        1.0  0.38800  0.04620  0.50000  1.0000
  B   B3        1.0  0.78400  0.18400  0.50000  1.0000
  B   B4        1.0  0.47600  0.19100  0.50000  1.0000
  B   B5        1.0  0.97600  0.30900  0.50000  1.0000
  B   B6        1.0  0.28400  0.31600  0.50000  1.0000
  B   B7        1.0  0.88800  0.45400  0.50000  1.0000
  B   B8        1.0  0.36200  0.46800  0.50000  1.0000
  B   B9        1.0  0.63800  0.53200  0.50000  1.0000
  B   B10       1.0  0.11200  0.54600  0.50000  1.0000
  B   B11       1.0  0.71600  0.68400  0.50000  1.0000
  B   B12       1.0  0.02380  0.69100  0.50000  1.0000
  B   B13       1.0  0.52400  0.80900  0.50000  1.0000
  B   B14       1.0  0.21600  0.81600  0.50000  1.0000
  B   B15       1.0  0.61200  0.95400  0.50000  1.0000
  B   B16       1.0  0.13800  0.96800  0.50000  1.0000
  Er  Er1       1.0  0.12700  0.15000  0.00000  1.0000
  Er  Er2       1.0  0.62700  0.35000  0.00000  1.0000
  Er  Er3       1.0  0.37300  0.65000  0.00000  1.0000
  Er  Er4       1.0  0.87300  0.85000  0.00000  1.0000
  Fe  Fe1       1.0  0.63300  0.08850  0.00000  1.0000
  Fe  Fe2       1.0  0.13300  0.41100  0.00000  1.0000
  Fe  Fe3       1.0  0.86700  0.58900  0.00000  1.0000
  Fe  Fe4       1.0  0.36700  0.91100  0.00000  1.0000
