data_image0
_chemical_formula_structural       Al2Gd6Mn2S14
_chemical_formula_sum              "Al2 Gd6 Mn2 S14"
_cell_length_a       9.7368
_cell_length_b       9.73675
_cell_length_c       6.17455
_cell_angle_alpha    90
_cell_angle_beta     90
_cell_angle_gamma    120

_space_group_name_H-M_alt    "P 1"
_space_group_IT_number       1

loop_
  _space_group_symop_operation_xyz
  'x, y, z'

loop_
  _atom_site_type_symbol
  _atom_site_label
  _atom_site_symmetry_multiplicity
  _atom_site_fract_x
  _atom_site_fract_y
  _atom_site_fract_z
  _atom_site_occupancy
  Al  Al1       1.0  0.66700  0.33300  0.15500  1.0000
  Al  Al2       1.0  0.33300  0.66700  0.65500  1.0000
  Gd  Gd1       1.0  0.15200  0.37900  0.23200  1.0000
  Gd  Gd2       1.0  0.22700  0.84800  0.23200  1.0000
  Gd  Gd3       1.0  0.62100  0.77300  0.23200  1.0000
  Gd  Gd4       1.0  0.77300  0.15200  0.73200  1.0000
  Gd  Gd5       1.0  0.84800  0.62100  0.73200  1.0000
  Gd  Gd6       1.0  0.37900  0.22700  0.73200  1.0000
  Mn  Mn1       1.0  0.00000  0.00000  0.04380  1.0000
  Mn  Mn2       1.0  0.00000  0.00000  0.54400  1.0000
  S   S1        1.0  0.90800  0.42800  0.00084  1.0000
  S   S2        1.0  0.57200  0.48000  0.00084  1.0000
  S   S3        1.0  0.52000  0.09240  0.00084  1.0000
  S   S4        1.0  0.33300  0.66700  0.01880  1.0000
  S   S5        1.0  0.24300  0.14000  0.31500  1.0000
  S   S6        1.0  0.86000  0.10300  0.31500  1.0000
  S   S7        1.0  0.89700  0.75700  0.31500  1.0000
  S   S8        1.0  0.09240  0.57200  0.50100  1.0000
  S   S9        1.0  0.42800  0.52000  0.50100  1.0000
  S   S10       1.0  0.48000  0.90800  0.50100  1.0000
  S   S11       1.0  0.66700  0.33300  0.51900  1.0000
  S   S12       1.0  0.10300  0.24300  0.81500  1.0000
  S   S13       1.0  0.75700  0.86000  0.81500  1.0000
  S   S14       1.0  0.14000  0.89700  0.81500  1.0000
