data_image0
_chemical_formula_structural       B16Co4Sc4
_chemical_formula_sum              "B16 Co4 Sc4"
_cell_length_a       5.76747
_cell_length_b       11.1623
_cell_length_c       3.21576
_cell_angle_alpha    90
_cell_angle_beta     90
_cell_angle_gamma    90

_space_group_name_H-M_alt    "P 1"
_space_group_IT_number       1

loop_
  _space_group_symop_operation_xyz
  'x, y, z'

loop_
  _atom_site_type_symbol
  _atom_site_label
  _atom_site_symmetry_multiplicity
  _atom_site_fract_x
  _atom_site_fract_y
  _atom_site_fract_z
  _atom_site_occupancy
  B   B1        1.0  0.86500  0.03140  0.50000  1.0000
  B   B2        1.0  0.38700  0.04800  0.50000  1.0000
  B   B3        1.0  0.78900  0.18600  0.50000  1.0000
  B   B4        1.0  0.47900  0.19400  0.50000  1.0000
  B   B5        1.0  0.97900  0.30600  0.50000  1.0000
  B   B6        1.0  0.28900  0.31400  0.50000  1.0000
  B   B7        1.0  0.88700  0.45200  0.50000  1.0000
  B   B8        1.0  0.36500  0.46900  0.50000  1.0000
  B   B9        1.0  0.63500  0.53100  0.50000  1.0000
  B   B10       1.0  0.11300  0.54800  0.50000  1.0000
  B   B11       1.0  0.71100  0.68600  0.50000  1.0000
  B   B12       1.0  0.02130  0.69400  0.50000  1.0000
  B   B13       1.0  0.52100  0.80600  0.50000  1.0000
  B   B14       1.0  0.21100  0.81400  0.50000  1.0000
  B   B15       1.0  0.61300  0.95200  0.50000  1.0000
  B   B16       1.0  0.13500  0.96900  0.50000  1.0000
  Co  Co1       1.0  0.63600  0.09010  0.00000  1.0000
  Co  Co2       1.0  0.13600  0.41000  0.00000  1.0000
  Co  Co3       1.0  0.86400  0.59000  0.00000  1.0000
  Co  Co4       1.0  0.36400  0.91000  0.00000  1.0000
  Sc  Sc1       1.0  0.13000  0.15000  0.00000  1.0000
  Sc  Sc2       1.0  0.63000  0.35000  0.00000  1.0000
  Sc  Sc3       1.0  0.37000  0.65000  0.00000  1.0000
  Sc  Sc4       1.0  0.87000  0.85000  0.00000  1.0000
