data_image0
_chemical_formula_structural       Cr4F20
_chemical_formula_sum              "Cr4 F20"
_cell_length_a       7.11466
_cell_length_b       7.01432
_cell_length_c       5.23492
_cell_angle_alpha    90
_cell_angle_beta     90
_cell_angle_gamma    90

_space_group_name_H-M_alt    "P 1"
_space_group_IT_number       1

loop_
  _space_group_symop_operation_xyz
  'x, y, z'

loop_
  _atom_site_type_symbol
  _atom_site_label
  _atom_site_symmetry_multiplicity
  _atom_site_fract_x
  _atom_site_fract_y
  _atom_site_fract_z
  _atom_site_occupancy
  Cr  Cr1       1.0  0.74000  0.07640  0.25000  1.0000
  Cr  Cr2       1.0  0.26000  0.57600  0.25000  1.0000
  Cr  Cr3       1.0  0.74000  0.42400  0.75000  1.0000
  Cr  Cr4       1.0  0.26000  0.92400  0.75000  1.0000
  F   F1        1.0  0.64100  0.25000  0.00000  1.0000
  F   F2        1.0  0.35900  0.75000  0.00000  1.0000
  F   F3        1.0  0.18600  0.42900  0.00729  1.0000
  F   F4        1.0  0.81400  0.92900  0.00729  1.0000
  F   F5        1.0  0.50900  0.00558  0.25000  1.0000
  F   F6        1.0  0.92900  0.23000  0.25000  1.0000
  F   F7        1.0  0.49100  0.50600  0.25000  1.0000
  F   F8        1.0  0.07140  0.73000  0.25000  1.0000
  F   F9        1.0  0.18600  0.42900  0.49300  1.0000
  F   F10       1.0  0.81400  0.92900  0.49300  1.0000
  F   F11       1.0  0.64100  0.25000  0.50000  1.0000
  F   F12       1.0  0.35900  0.75000  0.50000  1.0000
  F   F13       1.0  0.18600  0.07070  0.50700  1.0000
  F   F14       1.0  0.81400  0.57100  0.50700  1.0000
  F   F15       1.0  0.92900  0.27000  0.75000  1.0000
  F   F16       1.0  0.50900  0.49400  0.75000  1.0000
  F   F17       1.0  0.07140  0.77000  0.75000  1.0000
  F   F18       1.0  0.49100  0.99400  0.75000  1.0000
  F   F19       1.0  0.18600  0.07070  0.99300  1.0000
  F   F20       1.0  0.81400  0.57100  0.99300  1.0000
