data_image0
_chemical_formula_structural       Al2Gd6S14V2
_chemical_formula_sum              "Al2 Gd6 S14 V2"
_cell_length_a       9.6914
_cell_length_b       9.69134
_cell_length_c       6.12156
_cell_angle_alpha    90
_cell_angle_beta     90
_cell_angle_gamma    120

_space_group_name_H-M_alt    "P 1"
_space_group_IT_number       1

loop_
  _space_group_symop_operation_xyz
  'x, y, z'

loop_
  _atom_site_type_symbol
  _atom_site_label
  _atom_site_symmetry_multiplicity
  _atom_site_fract_x
  _atom_site_fract_y
  _atom_site_fract_z
  _atom_site_occupancy
  Al  Al1       1.0  0.66700  0.33300  0.15100  1.0000
  Al  Al2       1.0  0.33300  0.66700  0.65100  1.0000
  Gd  Gd1       1.0  0.15300  0.37700  0.22800  1.0000
  Gd  Gd2       1.0  0.22400  0.84700  0.22800  1.0000
  Gd  Gd3       1.0  0.62300  0.77600  0.22800  1.0000
  Gd  Gd4       1.0  0.84700  0.62300  0.72800  1.0000
  Gd  Gd5       1.0  0.77600  0.15300  0.72800  1.0000
  Gd  Gd6       1.0  0.37700  0.22400  0.72800  1.0000
  S   S1        1.0  0.33300  0.66700  0.01590  1.0000
  S   S2        1.0  0.23200  0.13400  0.31600  1.0000
  S   S3        1.0  0.90100  0.76800  0.31600  1.0000
  S   S4        1.0  0.86600  0.09880  0.31600  1.0000
  S   S5        1.0  0.42900  0.52000  0.50000  1.0000
  S   S6        1.0  0.48000  0.90900  0.50000  1.0000
  S   S7        1.0  0.09090  0.57100  0.50000  1.0000
  S   S8        1.0  0.66700  0.33300  0.51600  1.0000
  S   S9        1.0  0.09880  0.23200  0.81600  1.0000
  S   S10       1.0  0.76800  0.86600  0.81600  1.0000
  S   S11       1.0  0.13400  0.90100  0.81600  1.0000
  S   S12       1.0  0.57100  0.48000  0.00000  1.0000
  S   S13       1.0  0.52000  0.09090  0.00000  1.0000
  S   S14       1.0  0.90900  0.42900  0.00000  1.0000
  V   V1        1.0  0.00000  0.00000  0.06420  1.0000
  V   V2        1.0  0.00000  0.00000  0.56400  1.0000
