data_image0
_chemical_formula_structural       B16Cr4Tb4
_chemical_formula_sum              "B16 Cr4 Tb4"
_cell_length_a       5.92806
_cell_length_b       11.458
_cell_length_c       3.4546
_cell_angle_alpha    90
_cell_angle_beta     90
_cell_angle_gamma    90

_space_group_name_H-M_alt    "P 1"
_space_group_IT_number       1

loop_
  _space_group_symop_operation_xyz
  'x, y, z'

loop_
  _atom_site_type_symbol
  _atom_site_label
  _atom_site_symmetry_multiplicity
  _atom_site_fract_x
  _atom_site_fract_y
  _atom_site_fract_z
  _atom_site_occupancy
  B   B1        1.0  0.86200  0.03260  0.50000  1.0000
  B   B2        1.0  0.38700  0.04680  0.50000  1.0000
  B   B3        1.0  0.77900  0.18400  0.50000  1.0000
  B   B4        1.0  0.47500  0.19100  0.50000  1.0000
  B   B5        1.0  0.97500  0.30900  0.50000  1.0000
  B   B6        1.0  0.27900  0.31600  0.50000  1.0000
  B   B7        1.0  0.88700  0.45300  0.50000  1.0000
  B   B8        1.0  0.36200  0.46700  0.50000  1.0000
  B   B9        1.0  0.63800  0.53300  0.50000  1.0000
  B   B10       1.0  0.11300  0.54700  0.50000  1.0000
  B   B11       1.0  0.72100  0.68400  0.50000  1.0000
  B   B12       1.0  0.02500  0.69100  0.50000  1.0000
  B   B13       1.0  0.52500  0.80900  0.50000  1.0000
  B   B14       1.0  0.22100  0.81600  0.50000  1.0000
  B   B15       1.0  0.61300  0.95300  0.50000  1.0000
  B   B16       1.0  0.13800  0.96700  0.50000  1.0000
  Cr  Cr1       1.0  0.62100  0.07880  0.00000  1.0000
  Cr  Cr2       1.0  0.12100  0.42100  0.00000  1.0000
  Cr  Cr3       1.0  0.87900  0.57900  0.00000  1.0000
  Cr  Cr4       1.0  0.37900  0.92100  0.00000  1.0000
  Tb  Tb1       1.0  0.12400  0.15100  0.00000  1.0000
  Tb  Tb2       1.0  0.62400  0.34900  0.00000  1.0000
  Tb  Tb3       1.0  0.37600  0.65100  0.00000  1.0000
  Tb  Tb4       1.0  0.87600  0.84900  0.00000  1.0000
