data_image0
_chemical_formula_structural       Ag2Ce6Ge2S14
_chemical_formula_sum              "Ag2 Ce6 Ge2 S14"
_cell_length_a       10.4631
_cell_length_b       10.4629
_cell_length_c       5.89812
_cell_angle_alpha    90
_cell_angle_beta     90
_cell_angle_gamma    120

_space_group_name_H-M_alt    "P 1"
_space_group_IT_number       1

loop_
  _space_group_symop_operation_xyz
  'x, y, z'

loop_
  _atom_site_type_symbol
  _atom_site_label
  _atom_site_symmetry_multiplicity
  _atom_site_fract_x
  _atom_site_fract_y
  _atom_site_fract_z
  _atom_site_occupancy
  Ag  Ag1       1.0  0.00000  0.00000  0.30400  1.0000
  Ag  Ag2       1.0  0.00000  0.00000  0.80400  1.0000
  Ce  Ce1       1.0  0.12500  0.35900  0.25700  1.0000
  Ce  Ce2       1.0  0.64100  0.76600  0.25700  1.0000
  Ce  Ce3       1.0  0.23400  0.87500  0.25700  1.0000
  Ce  Ce4       1.0  0.87500  0.64100  0.75700  1.0000
  Ce  Ce5       1.0  0.76600  0.12500  0.75700  1.0000
  Ce  Ce6       1.0  0.35900  0.23400  0.75700  1.0000
  Ge  Ge1       1.0  0.66700  0.33300  0.17500  1.0000
  Ge  Ge2       1.0  0.33300  0.66700  0.67500  1.0000
  S   S1        1.0  0.52100  0.10900  0.01940  1.0000
  S   S2        1.0  0.58800  0.47900  0.01940  1.0000
  S   S3        1.0  0.89100  0.41200  0.01950  1.0000
  S   S4        1.0  0.33300  0.66700  0.04860  1.0000
  S   S5        1.0  0.26700  0.17400  0.27200  1.0000
  S   S6        1.0  0.82600  0.09330  0.27200  1.0000
  S   S7        1.0  0.90700  0.73300  0.27200  1.0000
  S   S8        1.0  0.41200  0.52100  0.51900  1.0000
  S   S9        1.0  0.47900  0.89100  0.51900  1.0000
  S   S10       1.0  0.10900  0.58800  0.51900  1.0000
  S   S11       1.0  0.66700  0.33300  0.54900  1.0000
  S   S12       1.0  0.73300  0.82600  0.77200  1.0000
  S   S13       1.0  0.09330  0.26700  0.77200  1.0000
  S   S14       1.0  0.17400  0.90700  0.77200  1.0000
