data_image0
_chemical_formula_structural       Cl8Hg4K4O6S2
_chemical_formula_sum              "Cl8 Hg4 K4 O6 S2"
_cell_length_a       9.63455
_cell_length_b       5.98886
_cell_length_c       10.2733
_cell_angle_alpha    90
_cell_angle_beta     110.214
_cell_angle_gamma    90

_space_group_name_H-M_alt    "P 1"
_space_group_IT_number       1

loop_
  _space_group_symop_operation_xyz
  'x, y, z'

loop_
  _atom_site_type_symbol
  _atom_site_label
  _atom_site_symmetry_multiplicity
  _atom_site_fract_x
  _atom_site_fract_y
  _atom_site_fract_z
  _atom_site_occupancy
  Cl  Cl1       1.0  0.98000  0.75000  0.23100  1.0000
  Cl  Cl2       1.0  0.72100  0.25000  0.29000  1.0000
  Cl  Cl3       1.0  0.41700  0.75000  0.38900  1.0000
  Cl  Cl4       1.0  0.16200  0.25000  0.46700  1.0000
  Cl  Cl5       1.0  0.83800  0.75000  0.53300  1.0000
  Cl  Cl6       1.0  0.58300  0.25000  0.61100  1.0000
  Cl  Cl7       1.0  0.27900  0.75000  0.71000  1.0000
  Cl  Cl8       1.0  0.02040  0.25000  0.76900  1.0000
  Hg  Hg1       1.0  0.40800  0.25000  0.36900  1.0000
  Hg  Hg2       1.0  0.11600  0.75000  0.47200  1.0000
  Hg  Hg3       1.0  0.88400  0.25000  0.52800  1.0000
  Hg  Hg4       1.0  0.59200  0.75000  0.63100  1.0000
  K   K1        1.0  0.87100  0.25000  0.05600  1.0000
  K   K2        1.0  0.60100  0.75000  0.17700  1.0000
  K   K3        1.0  0.39900  0.25000  0.82300  1.0000
  K   K4        1.0  0.12900  0.75000  0.94400  1.0000
  O   O1        1.0  0.36100  0.04540  0.06730  1.0000
  O   O2        1.0  0.36100  0.45500  0.06730  1.0000
  O   O3        1.0  0.14600  0.25000  0.08030  1.0000
  O   O4        1.0  0.85400  0.75000  0.92000  1.0000
  O   O5        1.0  0.63900  0.54500  0.93300  1.0000
  O   O6        1.0  0.63900  0.95500  0.93300  1.0000
  S   S1        1.0  0.30800  0.25000  0.11800  1.0000
  S   S2        1.0  0.69200  0.75000  0.88200  1.0000
