data_image0
_chemical_formula_structural       Al2Ni16Pr6
_chemical_formula_sum              "Al2 Ni16 Pr6"
_cell_length_a       5.15084
_cell_length_b       5.15086
_cell_length_c       16.2853
_cell_angle_alpha    90
_cell_angle_beta     90
_cell_angle_gamma    120

_space_group_name_H-M_alt    "P 1"
_space_group_IT_number       1

loop_
  _space_group_symop_operation_xyz
  'x, y, z'

loop_
  _atom_site_type_symbol
  _atom_site_label
  _atom_site_symmetry_multiplicity
  _atom_site_fract_x
  _atom_site_fract_y
  _atom_site_fract_z
  _atom_site_occupancy
  Al  Al1       1.0  0.00000  0.00000  0.00000  1.0000
  Al  Al2       1.0  0.00000  0.00000  0.50000  1.0000
  Ni  Ni1       1.0  0.16800  0.33500  0.12700  1.0000
  Ni  Ni2       1.0  0.16800  0.83200  0.12700  1.0000
  Ni  Ni3       1.0  0.66500  0.83200  0.12700  1.0000
  Ni  Ni4       1.0  0.00000  0.00000  0.25000  1.0000
  Ni  Ni5       1.0  0.33300  0.66700  0.25000  1.0000
  Ni  Ni6       1.0  0.16800  0.83200  0.37300  1.0000
  Ni  Ni7       1.0  0.66500  0.83200  0.37300  1.0000
  Ni  Ni8       1.0  0.16800  0.33500  0.37300  1.0000
  Ni  Ni9       1.0  0.83200  0.66500  0.62700  1.0000
  Ni  Ni10      1.0  0.33500  0.16800  0.62700  1.0000
  Ni  Ni11      1.0  0.83200  0.16800  0.62700  1.0000
  Ni  Ni12      1.0  0.00000  0.00000  0.75000  1.0000
  Ni  Ni13      1.0  0.66700  0.33300  0.75000  1.0000
  Ni  Ni14      1.0  0.33500  0.16800  0.87300  1.0000
  Ni  Ni15      1.0  0.83200  0.16800  0.87300  1.0000
  Ni  Ni16      1.0  0.83200  0.66500  0.87300  1.0000
  Pr  Pr1       1.0  0.66700  0.33300  0.04590  1.0000
  Pr  Pr2       1.0  0.66700  0.33300  0.25000  1.0000
  Pr  Pr3       1.0  0.66700  0.33300  0.45400  1.0000
  Pr  Pr4       1.0  0.33300  0.66700  0.54600  1.0000
  Pr  Pr5       1.0  0.33300  0.66700  0.75000  1.0000
  Pr  Pr6       1.0  0.33300  0.66700  0.95400  1.0000
