data_image0
_chemical_formula_structural       Al2Gd6S14Zn2
_chemical_formula_sum              "Al2 Gd6 S14 Zn2"
_cell_length_a       9.71411
_cell_length_b       9.71406
_cell_length_c       6.20231
_cell_angle_alpha    90
_cell_angle_beta     90
_cell_angle_gamma    120

_space_group_name_H-M_alt    "P 1"
_space_group_IT_number       1

loop_
  _space_group_symop_operation_xyz
  'x, y, z'

loop_
  _atom_site_type_symbol
  _atom_site_label
  _atom_site_symmetry_multiplicity
  _atom_site_fract_x
  _atom_site_fract_y
  _atom_site_fract_z
  _atom_site_occupancy
  Al  Al1       1.0  0.66700  0.33300  0.16100  1.0000
  Al  Al2       1.0  0.33300  0.66700  0.66100  1.0000
  Gd  Gd1       1.0  0.15500  0.37800  0.23700  1.0000
  Gd  Gd2       1.0  0.22400  0.84500  0.23700  1.0000
  Gd  Gd3       1.0  0.62200  0.77600  0.23700  1.0000
  Gd  Gd4       1.0  0.77600  0.15500  0.73700  1.0000
  Gd  Gd5       1.0  0.84500  0.62200  0.73700  1.0000
  Gd  Gd6       1.0  0.37800  0.22400  0.73700  1.0000
  S   S1        1.0  0.57000  0.47800  0.00581  1.0000
  S   S2        1.0  0.52200  0.09210  0.00581  1.0000
  S   S3        1.0  0.90800  0.43000  0.00581  1.0000
  S   S4        1.0  0.33300  0.66700  0.02330  1.0000
  S   S5        1.0  0.24800  0.14100  0.32000  1.0000
  S   S6        1.0  0.85900  0.10700  0.32000  1.0000
  S   S7        1.0  0.89300  0.75200  0.32000  1.0000
  S   S8        1.0  0.43000  0.52200  0.50600  1.0000
  S   S9        1.0  0.47800  0.90800  0.50600  1.0000
  S   S10       1.0  0.09210  0.57000  0.50600  1.0000
  S   S11       1.0  0.66700  0.33300  0.52300  1.0000
  S   S12       1.0  0.75200  0.85900  0.82000  1.0000
  S   S13       1.0  0.10700  0.24800  0.82000  1.0000
  S   S14       1.0  0.14100  0.89300  0.82000  1.0000
  Zn  Zn1       1.0  0.00000  0.00000  0.49300  1.0000
  Zn  Zn2       1.0  0.00000  0.00000  0.99300  1.0000
