data_image0
_chemical_formula_structural       Al2Mn2S14Y6
_chemical_formula_sum              "Al2 Mn2 S14 Y6"
_cell_length_a       9.67422
_cell_length_b       9.67431
_cell_length_c       6.16327
_cell_angle_alpha    90
_cell_angle_beta     90
_cell_angle_gamma    120

_space_group_name_H-M_alt    "P 1"
_space_group_IT_number       1

loop_
  _space_group_symop_operation_xyz
  'x, y, z'

loop_
  _atom_site_type_symbol
  _atom_site_label
  _atom_site_symmetry_multiplicity
  _atom_site_fract_x
  _atom_site_fract_y
  _atom_site_fract_z
  _atom_site_occupancy
  Al  Al1       1.0  0.66700  0.33300  0.15600  1.0000
  Al  Al2       1.0  0.33300  0.66700  0.65600  1.0000
  Mn  Mn1       1.0  0.00000  0.00000  0.04560  1.0000
  Mn  Mn2       1.0  0.00000  0.00000  0.54600  1.0000
  S   S1        1.0  0.33300  0.66700  0.02050  1.0000
  S   S2        1.0  0.24400  0.14000  0.31700  1.0000
  S   S3        1.0  0.86000  0.10400  0.31700  1.0000
  S   S4        1.0  0.89600  0.75600  0.31700  1.0000
  S   S5        1.0  0.42700  0.51900  0.49900  1.0000
  S   S6        1.0  0.09240  0.57300  0.49900  1.0000
  S   S7        1.0  0.48100  0.90800  0.49900  1.0000
  S   S8        1.0  0.66700  0.33300  0.52100  1.0000
  S   S9        1.0  0.75600  0.86000  0.81700  1.0000
  S   S10       1.0  0.10400  0.24400  0.81700  1.0000
  S   S11       1.0  0.14000  0.89600  0.81700  1.0000
  S   S12       1.0  0.90800  0.42700  0.99900  1.0000
  S   S13       1.0  0.57300  0.48100  0.99900  1.0000
  S   S14       1.0  0.51900  0.09240  0.99900  1.0000
  Y   Y1        1.0  0.15100  0.37900  0.23100  1.0000
  Y   Y2        1.0  0.22800  0.84900  0.23100  1.0000
  Y   Y3        1.0  0.62100  0.77200  0.23100  1.0000
  Y   Y4        1.0  0.77200  0.15100  0.73100  1.0000
  Y   Y5        1.0  0.84900  0.62100  0.73100  1.0000
  Y   Y6        1.0  0.37900  0.22800  0.73100  1.0000
