data_image0
_chemical_formula_structural       B16Fe4Gd4
_chemical_formula_sum              "B16 Fe4 Gd4"
_cell_length_a       5.91412
_cell_length_b       11.4422
_cell_length_c       3.40359
_cell_angle_alpha    90
_cell_angle_beta     90
_cell_angle_gamma    90

_space_group_name_H-M_alt    "P 1"
_space_group_IT_number       1

loop_
  _space_group_symop_operation_xyz
  'x, y, z'

loop_
  _atom_site_type_symbol
  _atom_site_label
  _atom_site_symmetry_multiplicity
  _atom_site_fract_x
  _atom_site_fract_y
  _atom_site_fract_z
  _atom_site_occupancy
  B   B1        1.0  0.86000  0.03210  0.50000  1.0000
  B   B2        1.0  0.38900  0.04550  0.50000  1.0000
  B   B3        1.0  0.78100  0.18300  0.50000  1.0000
  B   B4        1.0  0.47600  0.18900  0.50000  1.0000
  B   B5        1.0  0.97600  0.31100  0.50000  1.0000
  B   B6        1.0  0.28100  0.31700  0.50000  1.0000
  B   B7        1.0  0.88900  0.45500  0.50000  1.0000
  B   B8        1.0  0.36000  0.46800  0.50000  1.0000
  B   B9        1.0  0.64000  0.53200  0.50000  1.0000
  B   B10       1.0  0.11100  0.54500  0.50000  1.0000
  B   B11       1.0  0.71900  0.68300  0.50000  1.0000
  B   B12       1.0  0.02400  0.68900  0.50000  1.0000
  B   B13       1.0  0.52400  0.81100  0.50000  1.0000
  B   B14       1.0  0.21900  0.81700  0.50000  1.0000
  B   B15       1.0  0.61100  0.95500  0.50000  1.0000
  B   B16       1.0  0.14000  0.96800  0.50000  1.0000
  Fe  Fe1       1.0  0.63200  0.08810  0.00000  1.0000
  Fe  Fe2       1.0  0.13200  0.41200  0.00000  1.0000
  Fe  Fe3       1.0  0.86800  0.58800  0.00000  1.0000
  Fe  Fe4       1.0  0.36800  0.91200  0.00000  1.0000
  Gd  Gd1       1.0  0.12600  0.15000  0.00000  1.0000
  Gd  Gd2       1.0  0.62600  0.35000  0.00000  1.0000
  Gd  Gd3       1.0  0.37400  0.65000  0.00000  1.0000
  Gd  Gd4       1.0  0.87400  0.85000  0.00000  1.0000
