data_image0
_chemical_formula_structural       B16Er4V4
_chemical_formula_sum              "B16 Er4 V4"
_cell_length_a       5.97583
_cell_length_b       11.5592
_cell_length_c       3.41418
_cell_angle_alpha    90
_cell_angle_beta     90
_cell_angle_gamma    90

_space_group_name_H-M_alt    "P 1"
_space_group_IT_number       1

loop_
  _space_group_symop_operation_xyz
  'x, y, z'

loop_
  _atom_site_type_symbol
  _atom_site_label
  _atom_site_symmetry_multiplicity
  _atom_site_fract_x
  _atom_site_fract_y
  _atom_site_fract_z
  _atom_site_occupancy
  B   B1        1.0  0.86500  0.03240  0.50000  1.0000
  B   B2        1.0  0.38500  0.04790  0.50000  1.0000
  B   B3        1.0  0.78700  0.18600  0.50000  1.0000
  B   B4        1.0  0.47700  0.19300  0.50000  1.0000
  B   B5        1.0  0.97700  0.30700  0.50000  1.0000
  B   B6        1.0  0.28700  0.31400  0.50000  1.0000
  B   B7        1.0  0.88500  0.45200  0.50000  1.0000
  B   B8        1.0  0.36500  0.46800  0.50000  1.0000
  B   B9        1.0  0.63500  0.53200  0.50000  1.0000
  B   B10       1.0  0.11500  0.54800  0.50000  1.0000
  B   B11       1.0  0.71300  0.68600  0.50000  1.0000
  B   B12       1.0  0.02260  0.69300  0.50000  1.0000
  B   B13       1.0  0.52300  0.80700  0.50000  1.0000
  B   B14       1.0  0.21300  0.81400  0.50000  1.0000
  B   B15       1.0  0.61500  0.95200  0.50000  1.0000
  B   B16       1.0  0.13500  0.96800  0.50000  1.0000
  Er  Er1       1.0  0.12400  0.15100  0.00000  1.0000
  Er  Er2       1.0  0.62400  0.34900  0.00000  1.0000
  Er  Er3       1.0  0.37600  0.65100  0.00000  1.0000
  Er  Er4       1.0  0.87600  0.84900  0.00000  1.0000
  V   V1        1.0  0.62700  0.08290  0.00000  1.0000
  V   V2        1.0  0.12700  0.41700  0.00000  1.0000
  V   V3        1.0  0.87300  0.58300  0.00000  1.0000
  V   V4        1.0  0.37300  0.91700  0.00000  1.0000
