data_image0
_chemical_formula_structural       Cr2Pr8S14
_chemical_formula_sum              "Cr2 Pr8 S14"
_cell_length_a       10.2424
_cell_length_b       10.2424
_cell_length_c       6.57993
_cell_angle_alpha    90
_cell_angle_beta     90
_cell_angle_gamma    120

_space_group_name_H-M_alt    "P 1"
_space_group_IT_number       1

loop_
  _space_group_symop_operation_xyz
  'x, y, z'

loop_
  _atom_site_type_symbol
  _atom_site_label
  _atom_site_symmetry_multiplicity
  _atom_site_fract_x
  _atom_site_fract_y
  _atom_site_fract_z
  _atom_site_occupancy
  Cr  Cr1       1.0  0.66700  0.33300  0.15000  1.0000
  Cr  Cr2       1.0  0.33300  0.66700  0.65000  1.0000
  Pr  Pr1       1.0  0.00000  0.00000  0.05390  1.0000
  Pr  Pr2       1.0  0.60100  0.75300  0.23000  1.0000
  Pr  Pr3       1.0  0.24700  0.84800  0.23000  1.0000
  Pr  Pr4       1.0  0.15200  0.39900  0.23000  1.0000
  Pr  Pr5       1.0  0.00000  0.00000  0.55400  1.0000
  Pr  Pr6       1.0  0.39900  0.24700  0.73000  1.0000
  Pr  Pr7       1.0  0.75300  0.15200  0.73000  1.0000
  Pr  Pr8       1.0  0.84800  0.60100  0.73000  1.0000
  S   S1        1.0  0.33300  0.66700  0.01080  1.0000
  S   S2        1.0  0.85000  0.10900  0.31000  1.0000
  S   S3        1.0  0.89100  0.74200  0.31000  1.0000
  S   S4        1.0  0.25800  0.15000  0.31000  1.0000
  S   S5        1.0  0.48300  0.90000  0.49200  1.0000
  S   S6        1.0  0.10000  0.58300  0.49200  1.0000
  S   S7        1.0  0.41700  0.51700  0.49200  1.0000
  S   S8        1.0  0.66700  0.33300  0.51100  1.0000
  S   S9        1.0  0.15000  0.89100  0.81000  1.0000
  S   S10       1.0  0.10900  0.25800  0.81000  1.0000
  S   S11       1.0  0.74200  0.85000  0.81000  1.0000
  S   S12       1.0  0.51700  0.10000  0.99200  1.0000
  S   S13       1.0  0.90000  0.41700  0.99200  1.0000
  S   S14       1.0  0.58300  0.48300  0.99200  1.0000
