data_image0
_chemical_formula_structural       Al2Ce6S14Ti2
_chemical_formula_sum              "Al2 Ce6 S14 Ti2"
_cell_length_a       10.0736
_cell_length_b       10.0738
_cell_length_c       6.29228
_cell_angle_alpha    90
_cell_angle_beta     90
_cell_angle_gamma    120

_space_group_name_H-M_alt    "P 1"
_space_group_IT_number       1

loop_
  _space_group_symop_operation_xyz
  'x, y, z'

loop_
  _atom_site_type_symbol
  _atom_site_label
  _atom_site_symmetry_multiplicity
  _atom_site_fract_x
  _atom_site_fract_y
  _atom_site_fract_z
  _atom_site_occupancy
  Al  Al1       1.0  0.66700  0.33300  0.15200  1.0000
  Al  Al2       1.0  0.33300  0.66700  0.65200  1.0000
  Ce  Ce1       1.0  0.22800  0.85000  0.22900  1.0000
  Ce  Ce2       1.0  0.15000  0.37800  0.22900  1.0000
  Ce  Ce3       1.0  0.62200  0.77200  0.22900  1.0000
  Ce  Ce4       1.0  0.77200  0.15000  0.72900  1.0000
  Ce  Ce5       1.0  0.85000  0.62200  0.72900  1.0000
  Ce  Ce6       1.0  0.37800  0.22800  0.72900  1.0000
  S   S1        1.0  0.33300  0.66700  0.00831  1.0000
  S   S2        1.0  0.52100  0.09740  0.00936  1.0000
  S   S3        1.0  0.57600  0.47900  0.00936  1.0000
  S   S4        1.0  0.90300  0.42400  0.00937  1.0000
  S   S5        1.0  0.22700  0.13400  0.31000  1.0000
  S   S6        1.0  0.90700  0.77300  0.31000  1.0000
  S   S7        1.0  0.86600  0.09260  0.31000  1.0000
  S   S8        1.0  0.66700  0.33300  0.50800  1.0000
  S   S9        1.0  0.47900  0.90300  0.50900  1.0000
  S   S10       1.0  0.42400  0.52100  0.50900  1.0000
  S   S11       1.0  0.09740  0.57600  0.50900  1.0000
  S   S12       1.0  0.09260  0.22700  0.81000  1.0000
  S   S13       1.0  0.77300  0.86600  0.81000  1.0000
  S   S14       1.0  0.13400  0.90700  0.81000  1.0000
  Ti  Ti1       1.0  0.00000  0.00000  0.05840  1.0000
  Ti  Ti2       1.0  0.00000  0.00000  0.55800  1.0000
