data_image0
_chemical_formula_structural       Nd8Rh8Zn8
_chemical_formula_sum              "Nd8 Rh8 Zn8"
_cell_length_a       7.30122
_cell_length_b       4.03473
_cell_length_c       16.5022
_cell_angle_alpha    90
_cell_angle_beta     90
_cell_angle_gamma    90

_space_group_name_H-M_alt    "P 1"
_space_group_IT_number       1

loop_
  _space_group_symop_operation_xyz
  'x, y, z'

loop_
  _atom_site_type_symbol
  _atom_site_label
  _atom_site_symmetry_multiplicity
  _atom_site_fract_x
  _atom_site_fract_y
  _atom_site_fract_z
  _atom_site_occupancy
  Nd  Nd1       1.0  0.16700  0.25000  0.06060  1.0000
  Nd  Nd2       1.0  0.54800  0.25000  0.21600  1.0000
  Nd  Nd3       1.0  0.04820  0.25000  0.28400  1.0000
  Nd  Nd4       1.0  0.66700  0.25000  0.43900  1.0000
  Nd  Nd5       1.0  0.33300  0.75000  0.56100  1.0000
  Nd  Nd6       1.0  0.95200  0.75000  0.71600  1.0000
  Nd  Nd7       1.0  0.45200  0.75000  0.78400  1.0000
  Nd  Nd8       1.0  0.83300  0.75000  0.93900  1.0000
  Rh  Rh1       1.0  0.74500  0.25000  0.06470  1.0000
  Rh  Rh2       1.0  0.25300  0.75000  0.18600  1.0000
  Rh  Rh3       1.0  0.75300  0.75000  0.31400  1.0000
  Rh  Rh4       1.0  0.24500  0.25000  0.43500  1.0000
  Rh  Rh5       1.0  0.75500  0.75000  0.56500  1.0000
  Rh  Rh6       1.0  0.24700  0.25000  0.68600  1.0000
  Rh  Rh7       1.0  0.74700  0.25000  0.81400  1.0000
  Rh  Rh8       1.0  0.25500  0.75000  0.93500  1.0000
  Zn  Zn1       1.0  0.50200  0.75000  0.06070  1.0000
  Zn  Zn2       1.0  0.87600  0.75000  0.15100  1.0000
  Zn  Zn3       1.0  0.37600  0.75000  0.34900  1.0000
  Zn  Zn4       1.0  0.00169  0.75000  0.43900  1.0000
  Zn  Zn5       1.0  0.99800  0.25000  0.56100  1.0000
  Zn  Zn6       1.0  0.62400  0.25000  0.65100  1.0000
  Zn  Zn7       1.0  0.12400  0.25000  0.84900  1.0000
  Zn  Zn8       1.0  0.49800  0.25000  0.93900  1.0000
