data_image0
_chemical_formula_structural       Al2Fe2S14Tb6
_chemical_formula_sum              "Al2 Fe2 S14 Tb6"
_cell_length_a       9.60398
_cell_length_b       9.65059
_cell_length_c       6.1472
_cell_angle_alpha    90
_cell_angle_beta     90
_cell_angle_gamma    119.997

_space_group_name_H-M_alt    "P 1"
_space_group_IT_number       1

loop_
  _space_group_symop_operation_xyz
  'x, y, z'

loop_
  _atom_site_type_symbol
  _atom_site_label
  _atom_site_symmetry_multiplicity
  _atom_site_fract_x
  _atom_site_fract_y
  _atom_site_fract_z
  _atom_site_occupancy
  Al  Al1       1.0  0.66600  0.33300  0.16800  1.0000
  Al  Al2       1.0  0.33400  0.66700  0.66800  1.0000
  Fe  Fe1       1.0  0.99800  0.99500  0.06740  1.0000
  Fe  Fe2       1.0  0.00225  0.00499  0.56700  1.0000
  S   S1        1.0  0.52100  0.08980  0.01360  1.0000
  S   S2        1.0  0.56800  0.47800  0.01400  1.0000
  S   S3        1.0  0.91000  0.43200  0.01400  1.0000
  S   S4        1.0  0.33400  0.66800  0.03180  1.0000
  S   S5        1.0  0.23800  0.13500  0.33100  1.0000
  S   S6        1.0  0.86500  0.10300  0.33200  1.0000
  S   S7        1.0  0.89800  0.76300  0.33300  1.0000
  S   S8        1.0  0.47900  0.91000  0.51400  1.0000
  S   S9        1.0  0.43200  0.52200  0.51400  1.0000
  S   S10       1.0  0.08990  0.56800  0.51400  1.0000
  S   S11       1.0  0.66600  0.33200  0.53200  1.0000
  S   S12       1.0  0.76200  0.86500  0.83100  1.0000
  S   S13       1.0  0.13500  0.89700  0.83200  1.0000
  S   S14       1.0  0.10200  0.23700  0.83300  1.0000
  Tb  Tb1       1.0  0.15700  0.38000  0.24200  1.0000
  Tb  Tb2       1.0  0.62400  0.77800  0.24400  1.0000
  Tb  Tb3       1.0  0.22100  0.84400  0.24500  1.0000
  Tb  Tb4       1.0  0.84300  0.62000  0.74200  1.0000
  Tb  Tb5       1.0  0.37600  0.22200  0.74400  1.0000
  Tb  Tb6       1.0  0.77900  0.15600  0.74500  1.0000
