data_image0
_chemical_formula_structural       B16Fe4Lu4
_chemical_formula_sum              "B16 Fe4 Lu4"
_cell_length_a       5.82613
_cell_length_b       11.266
_cell_length_c       3.31611
_cell_angle_alpha    90
_cell_angle_beta     90
_cell_angle_gamma    90

_space_group_name_H-M_alt    "P 1"
_space_group_IT_number       1

loop_
  _space_group_symop_operation_xyz
  'x, y, z'

loop_
  _atom_site_type_symbol
  _atom_site_label
  _atom_site_symmetry_multiplicity
  _atom_site_fract_x
  _atom_site_fract_y
  _atom_site_fract_z
  _atom_site_occupancy
  B   B1        1.0  0.86300  0.03150  0.50000  1.0000
  B   B2        1.0  0.38800  0.04660  0.50000  1.0000
  B   B3        1.0  0.78500  0.18400  0.50000  1.0000
  B   B4        1.0  0.47600  0.19200  0.50000  1.0000
  B   B5        1.0  0.97600  0.30800  0.50000  1.0000
  B   B6        1.0  0.28500  0.31600  0.50000  1.0000
  B   B7        1.0  0.88800  0.45300  0.50000  1.0000
  B   B8        1.0  0.36300  0.46800  0.50000  1.0000
  B   B9        1.0  0.63700  0.53200  0.50000  1.0000
  B   B10       1.0  0.11200  0.54700  0.50000  1.0000
  B   B11       1.0  0.71500  0.68400  0.50000  1.0000
  B   B12       1.0  0.02390  0.69200  0.50000  1.0000
  B   B13       1.0  0.52400  0.80800  0.50000  1.0000
  B   B14       1.0  0.21500  0.81600  0.50000  1.0000
  B   B15       1.0  0.61200  0.95300  0.50000  1.0000
  B   B16       1.0  0.13700  0.96800  0.50000  1.0000
  Fe  Fe1       1.0  0.63400  0.08900  0.00000  1.0000
  Fe  Fe2       1.0  0.13400  0.41100  0.00000  1.0000
  Fe  Fe3       1.0  0.86600  0.58900  0.00000  1.0000
  Fe  Fe4       1.0  0.36600  0.91100  0.00000  1.0000
  Lu  Lu1       1.0  0.12800  0.15000  0.00000  1.0000
  Lu  Lu2       1.0  0.62800  0.35000  0.00000  1.0000
  Lu  Lu3       1.0  0.37200  0.65000  0.00000  1.0000
  Lu  Lu4       1.0  0.87200  0.85000  0.00000  1.0000
