data_image0
_chemical_formula_structural       Al2Ce6Fe2S14
_chemical_formula_sum              "Al2 Ce6 Fe2 S14"
_cell_length_a       10.2306
_cell_length_b       10.2133
_cell_length_c       6.01577
_cell_angle_alpha    90
_cell_angle_beta     90
_cell_angle_gamma    120.353

_space_group_name_H-M_alt    "P 1"
_space_group_IT_number       1

loop_
  _space_group_symop_operation_xyz
  'x, y, z'

loop_
  _atom_site_type_symbol
  _atom_site_label
  _atom_site_symmetry_multiplicity
  _atom_site_fract_x
  _atom_site_fract_y
  _atom_site_fract_z
  _atom_site_occupancy
  Al  Al1       1.0  0.66700  0.33400  0.16500  1.0000
  Al  Al2       1.0  0.33300  0.66600  0.66500  1.0000
  Ce  Ce1       1.0  0.23400  0.85700  0.24300  1.0000
  Ce  Ce2       1.0  0.62700  0.76800  0.24400  1.0000
  Ce  Ce3       1.0  0.14000  0.37200  0.24400  1.0000
  Ce  Ce4       1.0  0.76600  0.14300  0.74300  1.0000
  Ce  Ce5       1.0  0.37300  0.23200  0.74400  1.0000
  Ce  Ce6       1.0  0.86000  0.62800  0.74400  1.0000
  Fe  Fe1       1.0  0.00000  0.00000  0.02220  1.0000
  Fe  Fe2       1.0  0.00047  0.00012  0.52200  1.0000
  S   S1        1.0  0.90100  0.42000  0.01900  1.0000
  S   S2        1.0  0.51800  0.10100  0.01900  1.0000
  S   S3        1.0  0.58200  0.48200  0.01910  1.0000
  S   S4        1.0  0.33400  0.66600  0.03360  1.0000
  S   S5        1.0  0.91300  0.77000  0.28400  1.0000
  S   S6        1.0  0.23100  0.14200  0.28500  1.0000
  S   S7        1.0  0.85500  0.08960  0.28500  1.0000
  S   S8        1.0  0.09940  0.58000  0.51900  1.0000
  S   S9        1.0  0.48200  0.89900  0.51900  1.0000
  S   S10       1.0  0.41800  0.51800  0.51900  1.0000
  S   S11       1.0  0.66600  0.33400  0.53400  1.0000
  S   S12       1.0  0.08720  0.23000  0.78400  1.0000
  S   S13       1.0  0.76900  0.85800  0.78500  1.0000
  S   S14       1.0  0.14500  0.91000  0.78500  1.0000
