data_image0
_chemical_formula_structural       Al2Cd2Gd6S14
_chemical_formula_sum              "Al2 Cd2 Gd6 S14"
_cell_length_a       9.77933
_cell_length_b       9.77925
_cell_length_c       6.2465
_cell_angle_alpha    90
_cell_angle_beta     90
_cell_angle_gamma    120

_space_group_name_H-M_alt    "P 1"
_space_group_IT_number       1

loop_
  _space_group_symop_operation_xyz
  'x, y, z'

loop_
  _atom_site_type_symbol
  _atom_site_label
  _atom_site_symmetry_multiplicity
  _atom_site_fract_x
  _atom_site_fract_y
  _atom_site_fract_z
  _atom_site_occupancy
  Al  Al1       1.0  0.66700  0.33300  0.14200  1.0000
  Al  Al2       1.0  0.33300  0.66700  0.64200  1.0000
  Cd  Cd1       1.0  0.00000  0.00000  0.02830  1.0000
  Cd  Cd2       1.0  0.00000  0.00000  0.52800  1.0000
  Gd  Gd1       1.0  0.15300  0.38100  0.21900  1.0000
  Gd  Gd2       1.0  0.22800  0.84700  0.21900  1.0000
  Gd  Gd3       1.0  0.61900  0.77200  0.21900  1.0000
  Gd  Gd4       1.0  0.84700  0.61900  0.71900  1.0000
  Gd  Gd5       1.0  0.77200  0.15300  0.71900  1.0000
  Gd  Gd6       1.0  0.38100  0.22800  0.71900  1.0000
  S   S1        1.0  0.33300  0.66700  0.00447  1.0000
  S   S2        1.0  0.25900  0.14800  0.29800  1.0000
  S   S3        1.0  0.85200  0.11100  0.29800  1.0000
  S   S4        1.0  0.88900  0.74100  0.29800  1.0000
  S   S5        1.0  0.09420  0.57300  0.48500  1.0000
  S   S6        1.0  0.42700  0.52200  0.48500  1.0000
  S   S7        1.0  0.47800  0.90600  0.48500  1.0000
  S   S8        1.0  0.66700  0.33300  0.50400  1.0000
  S   S9        1.0  0.74100  0.85200  0.79800  1.0000
  S   S10       1.0  0.11100  0.25900  0.79800  1.0000
  S   S11       1.0  0.14800  0.88900  0.79800  1.0000
  S   S12       1.0  0.90600  0.42700  0.98500  1.0000
  S   S13       1.0  0.57300  0.47800  0.98500  1.0000
  S   S14       1.0  0.52200  0.09420  0.98500  1.0000
