data_image0
_chemical_formula_structural       Ag2Ce6Se14Si2
_chemical_formula_sum              "Ag2 Ce6 Se14 Si2"
_cell_length_a       10.8699
_cell_length_b       10.87
_cell_length_c       6.12409
_cell_angle_alpha    90
_cell_angle_beta     90
_cell_angle_gamma    120

_space_group_name_H-M_alt    "P 1"
_space_group_IT_number       1

loop_
  _space_group_symop_operation_xyz
  'x, y, z'

loop_
  _atom_site_type_symbol
  _atom_site_label
  _atom_site_symmetry_multiplicity
  _atom_site_fract_x
  _atom_site_fract_y
  _atom_site_fract_z
  _atom_site_occupancy
  Ag  Ag1       1.0  0.00000  0.00000  0.29800  1.0000
  Ag  Ag2       1.0  0.00000  0.00000  0.79800  1.0000
  Ce  Ce1       1.0  0.64200  0.76800  0.25500  1.0000
  Ce  Ce2       1.0  0.23200  0.87400  0.25500  1.0000
  Ce  Ce3       1.0  0.12600  0.35800  0.25500  1.0000
  Ce  Ce4       1.0  0.35800  0.23200  0.75500  1.0000
  Ce  Ce5       1.0  0.76800  0.12600  0.75500  1.0000
  Ce  Ce6       1.0  0.87400  0.64200  0.75500  1.0000
  Se  Se1       1.0  0.52300  0.11000  0.01900  1.0000
  Se  Se2       1.0  0.89000  0.41300  0.01900  1.0000
  Se  Se3       1.0  0.58700  0.47700  0.01900  1.0000
  Se  Se4       1.0  0.33300  0.66700  0.03910  1.0000
  Se  Se5       1.0  0.26900  0.17600  0.26900  1.0000
  Se  Se6       1.0  0.82400  0.09370  0.26900  1.0000
  Se  Se7       1.0  0.90600  0.73100  0.26900  1.0000
  Se  Se8       1.0  0.47700  0.89000  0.51900  1.0000
  Se  Se9       1.0  0.11000  0.58700  0.51900  1.0000
  Se  Se10      1.0  0.41300  0.52300  0.51900  1.0000
  Se  Se11      1.0  0.66700  0.33300  0.53900  1.0000
  Se  Se12      1.0  0.73100  0.82400  0.76900  1.0000
  Se  Se13      1.0  0.17600  0.90600  0.76900  1.0000
  Se  Se14      1.0  0.09370  0.26900  0.76900  1.0000
  Si  Si1       1.0  0.66700  0.33300  0.16700  1.0000
  Si  Si2       1.0  0.33300  0.66700  0.66700  1.0000
