data_image0
_chemical_formula_structural       Al2Mn2Nd6S14
_chemical_formula_sum              "Al2 Mn2 Nd6 S14"
_cell_length_a       9.99429
_cell_length_b       9.99491
_cell_length_c       6.14853
_cell_angle_alpha    90
_cell_angle_beta     90
_cell_angle_gamma    120

_space_group_name_H-M_alt    "P 1"
_space_group_IT_number       1

loop_
  _space_group_symop_operation_xyz
  'x, y, z'

loop_
  _atom_site_type_symbol
  _atom_site_label
  _atom_site_symmetry_multiplicity
  _atom_site_fract_x
  _atom_site_fract_y
  _atom_site_fract_z
  _atom_site_occupancy
  Al  Al1       1.0  0.66700  0.33300  0.16000  1.0000
  Al  Al2       1.0  0.33300  0.66700  0.66000  1.0000
  Mn  Mn1       1.0  0.00000  0.00000  0.02810  1.0000
  Mn  Mn2       1.0  0.00000  0.00000  0.52800  1.0000
  Nd  Nd1       1.0  0.62300  0.76900  0.23800  1.0000
  Nd  Nd2       1.0  0.14600  0.37700  0.23800  1.0000
  Nd  Nd3       1.0  0.23100  0.85400  0.23800  1.0000
  Nd  Nd4       1.0  0.37700  0.23100  0.73800  1.0000
  Nd  Nd5       1.0  0.76900  0.14600  0.73800  1.0000
  Nd  Nd6       1.0  0.85400  0.62300  0.73800  1.0000
  S   S1        1.0  0.52000  0.09700  0.01070  1.0000
  S   S2        1.0  0.57700  0.48000  0.01070  1.0000
  S   S3        1.0  0.90300  0.42300  0.01070  1.0000
  S   S4        1.0  0.33300  0.66700  0.02300  1.0000
  S   S5        1.0  0.90500  0.76100  0.30200  1.0000
  S   S6        1.0  0.85600  0.09540  0.30200  1.0000
  S   S7        1.0  0.23900  0.14400  0.30200  1.0000
  S   S8        1.0  0.48000  0.90300  0.51100  1.0000
  S   S9        1.0  0.42300  0.52000  0.51100  1.0000
  S   S10       1.0  0.09700  0.57700  0.51100  1.0000
  S   S11       1.0  0.66700  0.33300  0.52300  1.0000
  S   S12       1.0  0.09540  0.23900  0.80200  1.0000
  S   S13       1.0  0.76100  0.85600  0.80200  1.0000
  S   S14       1.0  0.14400  0.90500  0.80200  1.0000
