data_image0
_chemical_formula_structural       Al2Ho6Ni16
_chemical_formula_sum              "Al2 Ho6 Ni16"
_cell_length_a       5.03256
_cell_length_b       5.03239
_cell_length_c       15.9828
_cell_angle_alpha    90
_cell_angle_beta     90
_cell_angle_gamma    120.001

_space_group_name_H-M_alt    "P 1"
_space_group_IT_number       1

loop_
  _space_group_symop_operation_xyz
  'x, y, z'

loop_
  _atom_site_type_symbol
  _atom_site_label
  _atom_site_symmetry_multiplicity
  _atom_site_fract_x
  _atom_site_fract_y
  _atom_site_fract_z
  _atom_site_occupancy
  Al  Al1       1.0  0.00000  0.00000  0.00000  1.0000
  Al  Al2       1.0  0.00000  0.00000  0.50000  1.0000
  Ho  Ho1       1.0  0.66700  0.33300  0.04520  1.0000
  Ho  Ho2       1.0  0.66700  0.33300  0.25000  1.0000
  Ho  Ho3       1.0  0.66700  0.33300  0.45500  1.0000
  Ho  Ho4       1.0  0.33300  0.66700  0.54500  1.0000
  Ho  Ho5       1.0  0.33300  0.66700  0.75000  1.0000
  Ho  Ho6       1.0  0.33300  0.66700  0.95500  1.0000
  Ni  Ni1       1.0  0.16900  0.33800  0.12500  1.0000
  Ni  Ni2       1.0  0.16900  0.83100  0.12500  1.0000
  Ni  Ni3       1.0  0.66200  0.83100  0.12500  1.0000
  Ni  Ni4       1.0  0.00000  0.00000  0.25000  1.0000
  Ni  Ni5       1.0  0.33300  0.66700  0.25000  1.0000
  Ni  Ni6       1.0  0.16900  0.83100  0.37500  1.0000
  Ni  Ni7       1.0  0.66200  0.83100  0.37500  1.0000
  Ni  Ni8       1.0  0.16900  0.33800  0.37500  1.0000
  Ni  Ni9       1.0  0.83100  0.66200  0.62500  1.0000
  Ni  Ni10      1.0  0.33800  0.16900  0.62500  1.0000
  Ni  Ni11      1.0  0.83100  0.16900  0.62500  1.0000
  Ni  Ni12      1.0  0.00000  0.00000  0.75000  1.0000
  Ni  Ni13      1.0  0.66700  0.33300  0.75000  1.0000
  Ni  Ni14      1.0  0.33800  0.16900  0.87500  1.0000
  Ni  Ni15      1.0  0.83100  0.16900  0.87500  1.0000
  Ni  Ni16      1.0  0.83100  0.66200  0.87500  1.0000
