data_image0
_chemical_formula_structural       Al2Mn2Pr6S14
_chemical_formula_sum              "Al2 Mn2 Pr6 S14"
_cell_length_a       10.0897
_cell_length_b       10.0899
_cell_length_c       6.12207
_cell_angle_alpha    90
_cell_angle_beta     90
_cell_angle_gamma    120

_space_group_name_H-M_alt    "P 1"
_space_group_IT_number       1

loop_
  _space_group_symop_operation_xyz
  'x, y, z'

loop_
  _atom_site_type_symbol
  _atom_site_label
  _atom_site_symmetry_multiplicity
  _atom_site_fract_x
  _atom_site_fract_y
  _atom_site_fract_z
  _atom_site_occupancy
  Al  Al1       1.0  0.66700  0.33300  0.16300  1.0000
  Al  Al2       1.0  0.33300  0.66700  0.66300  1.0000
  Mn  Mn1       1.0  0.00000  0.00000  0.02080  1.0000
  Mn  Mn2       1.0  0.00000  0.00000  0.52100  1.0000
  Pr  Pr1       1.0  0.62400  0.76600  0.24100  1.0000
  Pr  Pr2       1.0  0.23400  0.85800  0.24100  1.0000
  Pr  Pr3       1.0  0.14200  0.37600  0.24100  1.0000
  Pr  Pr4       1.0  0.37600  0.23400  0.74100  1.0000
  Pr  Pr5       1.0  0.76600  0.14200  0.74100  1.0000
  Pr  Pr6       1.0  0.85800  0.62400  0.74100  1.0000
  S   S1        1.0  0.90100  0.42000  0.01430  1.0000
  S   S2        1.0  0.51900  0.09910  0.01430  1.0000
  S   S3        1.0  0.58000  0.48100  0.01440  1.0000
  S   S4        1.0  0.33300  0.66700  0.02720  1.0000
  S   S5        1.0  0.85400  0.09190  0.29600  1.0000
  S   S6        1.0  0.23800  0.14600  0.29600  1.0000
  S   S7        1.0  0.90800  0.76200  0.29600  1.0000
  S   S8        1.0  0.09910  0.58000  0.51400  1.0000
  S   S9        1.0  0.48100  0.90100  0.51400  1.0000
  S   S10       1.0  0.42000  0.51900  0.51400  1.0000
  S   S11       1.0  0.66700  0.33300  0.52700  1.0000
  S   S12       1.0  0.14600  0.90800  0.79600  1.0000
  S   S13       1.0  0.09190  0.23800  0.79600  1.0000
  S   S14       1.0  0.76200  0.85400  0.79600  1.0000
