data_image0
_chemical_formula_structural       Ag2Pr6S14Si2
_chemical_formula_sum              "Ag2 Pr6 S14 Si2"
_cell_length_a       10.3724
_cell_length_b       10.3735
_cell_length_c       5.79822
_cell_angle_alpha    90
_cell_angle_beta     90
_cell_angle_gamma    120.001

_space_group_name_H-M_alt    "P 1"
_space_group_IT_number       1

loop_
  _space_group_symop_operation_xyz
  'x, y, z'

loop_
  _atom_site_type_symbol
  _atom_site_label
  _atom_site_symmetry_multiplicity
  _atom_site_fract_x
  _atom_site_fract_y
  _atom_site_fract_z
  _atom_site_occupancy
  Ag  Ag1       1.0  0.00000  0.00000  0.29800  1.0000
  Ag  Ag2       1.0  0.00000  0.00000  0.79800  1.0000
  Pr  Pr1       1.0  0.64000  0.76300  0.24900  1.0000
  Pr  Pr2       1.0  0.12200  0.36000  0.24900  1.0000
  Pr  Pr3       1.0  0.23700  0.87800  0.24900  1.0000
  Pr  Pr4       1.0  0.36000  0.23700  0.74900  1.0000
  Pr  Pr5       1.0  0.76300  0.12200  0.74900  1.0000
  Pr  Pr6       1.0  0.87800  0.64000  0.74900  1.0000
  S   S1        1.0  0.52400  0.11700  0.01700  1.0000
  S   S2        1.0  0.59200  0.47600  0.01710  1.0000
  S   S3        1.0  0.88300  0.40800  0.01710  1.0000
  S   S4        1.0  0.33300  0.66700  0.02800  1.0000
  S   S5        1.0  0.91100  0.73200  0.26300  1.0000
  S   S6        1.0  0.26800  0.17900  0.26300  1.0000
  S   S7        1.0  0.82100  0.08950  0.26300  1.0000
  S   S8        1.0  0.47600  0.88300  0.51700  1.0000
  S   S9        1.0  0.40800  0.52400  0.51700  1.0000
  S   S10       1.0  0.11700  0.59200  0.51700  1.0000
  S   S11       1.0  0.66700  0.33300  0.52800  1.0000
  S   S12       1.0  0.08950  0.26800  0.76300  1.0000
  S   S13       1.0  0.73200  0.82100  0.76300  1.0000
  S   S14       1.0  0.17900  0.91100  0.76300  1.0000
  Si  Si1       1.0  0.66700  0.33300  0.16300  1.0000
  Si  Si2       1.0  0.33300  0.66700  0.66300  1.0000
