data_image0
_chemical_formula_structural       Al2Ce6Mn2S14
_chemical_formula_sum              "Al2 Ce6 Mn2 S14"
_cell_length_a       10.1907
_cell_length_b       10.1909
_cell_length_c       6.12471
_cell_angle_alpha    90
_cell_angle_beta     90
_cell_angle_gamma    120

_space_group_name_H-M_alt    "P 1"
_space_group_IT_number       1

loop_
  _space_group_symop_operation_xyz
  'x, y, z'

loop_
  _atom_site_type_symbol
  _atom_site_label
  _atom_site_symmetry_multiplicity
  _atom_site_fract_x
  _atom_site_fract_y
  _atom_site_fract_z
  _atom_site_occupancy
  Al  Al1       1.0  0.66700  0.33300  0.16200  1.0000
  Al  Al2       1.0  0.33300  0.66700  0.66200  1.0000
  Ce  Ce1       1.0  0.62400  0.76600  0.24200  1.0000
  Ce  Ce2       1.0  0.14200  0.37600  0.24200  1.0000
  Ce  Ce3       1.0  0.23400  0.85800  0.24200  1.0000
  Ce  Ce4       1.0  0.37600  0.23400  0.74200  1.0000
  Ce  Ce5       1.0  0.76600  0.14200  0.74200  1.0000
  Ce  Ce6       1.0  0.85800  0.62400  0.74200  1.0000
  Mn  Mn1       1.0  0.00000  0.00000  0.01890  1.0000
  Mn  Mn2       1.0  0.00000  0.00000  0.51900  1.0000
  S   S1        1.0  0.89900  0.41800  0.01660  1.0000
  S   S2        1.0  0.51900  0.10100  0.01660  1.0000
  S   S3        1.0  0.58200  0.48100  0.01660  1.0000
  S   S4        1.0  0.33300  0.66700  0.02720  1.0000
  S   S5        1.0  0.85500  0.09030  0.29300  1.0000
  S   S6        1.0  0.91000  0.76400  0.29300  1.0000
  S   S7        1.0  0.23600  0.14500  0.29300  1.0000
  S   S8        1.0  0.10100  0.58200  0.51700  1.0000
  S   S9        1.0  0.48100  0.90000  0.51700  1.0000
  S   S10       1.0  0.41800  0.51900  0.51700  1.0000
  S   S11       1.0  0.66700  0.33300  0.52700  1.0000
  S   S12       1.0  0.14500  0.91000  0.79300  1.0000
  S   S13       1.0  0.09030  0.23600  0.79300  1.0000
  S   S14       1.0  0.76400  0.85500  0.79300  1.0000
