data_image0
_chemical_formula_structural       Cr2S14Sm8
_chemical_formula_sum              "Cr2 S14 Sm8"
_cell_length_a       10.0551
_cell_length_b       10.0552
_cell_length_c       6.53721
_cell_angle_alpha    90
_cell_angle_beta     90
_cell_angle_gamma    120

_space_group_name_H-M_alt    "P 1"
_space_group_IT_number       1

loop_
  _space_group_symop_operation_xyz
  'x, y, z'

loop_
  _atom_site_type_symbol
  _atom_site_label
  _atom_site_symmetry_multiplicity
  _atom_site_fract_x
  _atom_site_fract_y
  _atom_site_fract_z
  _atom_site_occupancy
  Cr  Cr1       1.0  0.66700  0.33300  0.14500  1.0000
  Cr  Cr2       1.0  0.33300  0.66700  0.64500  1.0000
  S   S1        1.0  0.33300  0.66700  0.00996  1.0000
  S   S2        1.0  0.85900  0.11400  0.31900  1.0000
  S   S3        1.0  0.25600  0.14100  0.31900  1.0000
  S   S4        1.0  0.88600  0.74400  0.31900  1.0000
  S   S5        1.0  0.48600  0.90300  0.48400  1.0000
  S   S6        1.0  0.41700  0.51400  0.48400  1.0000
  S   S7        1.0  0.09680  0.58300  0.48400  1.0000
  S   S8        1.0  0.66700  0.33300  0.51000  1.0000
  S   S9        1.0  0.74400  0.85900  0.81900  1.0000
  S   S10       1.0  0.11400  0.25600  0.81900  1.0000
  S   S11       1.0  0.14100  0.88600  0.81900  1.0000
  S   S12       1.0  0.51400  0.09680  0.98400  1.0000
  S   S13       1.0  0.58300  0.48600  0.98400  1.0000
  S   S14       1.0  0.90300  0.41700  0.98400  1.0000
  Sm  Sm1       1.0  0.00000  0.00000  0.06330  1.0000
  Sm  Sm2       1.0  0.59900  0.75200  0.22800  1.0000
  Sm  Sm3       1.0  0.24800  0.84700  0.22800  1.0000
  Sm  Sm4       1.0  0.15300  0.40100  0.22800  1.0000
  Sm  Sm5       1.0  0.00000  0.00000  0.56300  1.0000
  Sm  Sm6       1.0  0.40100  0.24800  0.72800  1.0000
  Sm  Sm7       1.0  0.75200  0.15300  0.72800  1.0000
  Sm  Sm8       1.0  0.84700  0.59900  0.72800  1.0000
