data_image0
_chemical_formula_structural       Al2Ce6Cr2S14
_chemical_formula_sum              "Al2 Ce6 Cr2 S14"
_cell_length_a       10.1921
_cell_length_b       10.1929
_cell_length_c       6.06895
_cell_angle_alpha    90
_cell_angle_beta     90
_cell_angle_gamma    120.001

_space_group_name_H-M_alt    "P 1"
_space_group_IT_number       1

loop_
  _space_group_symop_operation_xyz
  'x, y, z'

loop_
  _atom_site_type_symbol
  _atom_site_label
  _atom_site_symmetry_multiplicity
  _atom_site_fract_x
  _atom_site_fract_y
  _atom_site_fract_z
  _atom_site_occupancy
  Al  Al1       1.0  0.66700  0.33300  0.16300  1.0000
  Al  Al2       1.0  0.33300  0.66700  0.66300  1.0000
  Ce  Ce1       1.0  0.62600  0.76600  0.24300  1.0000
  Ce  Ce2       1.0  0.14000  0.37400  0.24300  1.0000
  Ce  Ce3       1.0  0.23400  0.86000  0.24300  1.0000
  Ce  Ce4       1.0  0.37400  0.23400  0.74300  1.0000
  Ce  Ce5       1.0  0.76600  0.14000  0.74300  1.0000
  Ce  Ce6       1.0  0.86000  0.62600  0.74300  1.0000
  Cr  Cr1       1.0  0.00000  0.00000  0.03390  1.0000
  Cr  Cr2       1.0  0.00000  0.00000  0.53400  1.0000
  S   S1        1.0  0.51800  0.10100  0.01750  1.0000
  S   S2        1.0  0.89900  0.41700  0.01750  1.0000
  S   S3        1.0  0.58300  0.48200  0.01750  1.0000
  S   S4        1.0  0.33300  0.66700  0.02950  1.0000
  S   S5        1.0  0.91400  0.77100  0.28600  1.0000
  S   S6        1.0  0.85700  0.08630  0.28600  1.0000
  S   S7        1.0  0.22900  0.14300  0.28600  1.0000
  S   S8        1.0  0.48200  0.89900  0.51800  1.0000
  S   S9        1.0  0.41700  0.51800  0.51800  1.0000
  S   S10       1.0  0.10100  0.58300  0.51800  1.0000
  S   S11       1.0  0.66700  0.33300  0.52900  1.0000
  S   S12       1.0  0.08630  0.22900  0.78600  1.0000
  S   S13       1.0  0.14300  0.91400  0.78600  1.0000
  S   S14       1.0  0.77100  0.85700  0.78600  1.0000
