data_image0
_chemical_formula_structural       Al2Gd6Ni2S14
_chemical_formula_sum              "Al2 Gd6 Ni2 S14"
_cell_length_a       9.61649
_cell_length_b       9.61641
_cell_length_c       6.19046
_cell_angle_alpha    90
_cell_angle_beta     90
_cell_angle_gamma    120

_space_group_name_H-M_alt    "P 1"
_space_group_IT_number       1

loop_
  _space_group_symop_operation_xyz
  'x, y, z'

loop_
  _atom_site_type_symbol
  _atom_site_label
  _atom_site_symmetry_multiplicity
  _atom_site_fract_x
  _atom_site_fract_y
  _atom_site_fract_z
  _atom_site_occupancy
  Al  Al1       1.0  0.66700  0.33300  0.15400  1.0000
  Al  Al2       1.0  0.33300  0.66700  0.65400  1.0000
  Gd  Gd1       1.0  0.15500  0.37600  0.22800  1.0000
  Gd  Gd2       1.0  0.62400  0.77900  0.22800  1.0000
  Gd  Gd3       1.0  0.22100  0.84500  0.22800  1.0000
  Gd  Gd4       1.0  0.77900  0.15500  0.72800  1.0000
  Gd  Gd5       1.0  0.37600  0.22100  0.72800  1.0000
  Gd  Gd6       1.0  0.84500  0.62400  0.72800  1.0000
  Ni  Ni1       1.0  0.00000  0.00000  0.05470  1.0000
  Ni  Ni2       1.0  0.00000  0.00000  0.55500  1.0000
  S   S1        1.0  0.56800  0.47800  0.00103  1.0000
  S   S2        1.0  0.52200  0.08960  0.00103  1.0000
  S   S3        1.0  0.91000  0.43200  0.00104  1.0000
  S   S4        1.0  0.33300  0.66700  0.01520  1.0000
  S   S5        1.0  0.86800  0.09840  0.31800  1.0000
  S   S6        1.0  0.23000  0.13200  0.31800  1.0000
  S   S7        1.0  0.90200  0.77000  0.31800  1.0000
  S   S8        1.0  0.43200  0.52200  0.50100  1.0000
  S   S9        1.0  0.47800  0.91000  0.50100  1.0000
  S   S10       1.0  0.08960  0.56800  0.50100  1.0000
  S   S11       1.0  0.66700  0.33300  0.51500  1.0000
  S   S12       1.0  0.09840  0.23000  0.81800  1.0000
  S   S13       1.0  0.77000  0.86800  0.81800  1.0000
  S   S14       1.0  0.13200  0.90200  0.81800  1.0000
