data_image0
_chemical_formula_structural       B16Cr4Sm4
_chemical_formula_sum              "B16 Cr4 Sm4"
_cell_length_a       5.98027
_cell_length_b       11.5635
_cell_length_c       3.50483
_cell_angle_alpha    90
_cell_angle_beta     90
_cell_angle_gamma    90

_space_group_name_H-M_alt    "P 1"
_space_group_IT_number       1

loop_
  _space_group_symop_operation_xyz
  'x, y, z'

loop_
  _atom_site_type_symbol
  _atom_site_label
  _atom_site_symmetry_multiplicity
  _atom_site_fract_x
  _atom_site_fract_y
  _atom_site_fract_z
  _atom_site_occupancy
  B   B1        1.0  0.86000  0.03290  0.50000  1.0000
  B   B2        1.0  0.38800  0.04610  0.50000  1.0000
  B   B3        1.0  0.77700  0.18300  0.50000  1.0000
  B   B4        1.0  0.47500  0.19000  0.50000  1.0000
  B   B5        1.0  0.97500  0.31000  0.50000  1.0000
  B   B6        1.0  0.27700  0.31700  0.50000  1.0000
  B   B7        1.0  0.88800  0.45400  0.50000  1.0000
  B   B8        1.0  0.36000  0.46700  0.50000  1.0000
  B   B9        1.0  0.64000  0.53300  0.50000  1.0000
  B   B10       1.0  0.11200  0.54600  0.50000  1.0000
  B   B11       1.0  0.72300  0.68300  0.50000  1.0000
  B   B12       1.0  0.02530  0.69000  0.50000  1.0000
  B   B13       1.0  0.52500  0.81000  0.50000  1.0000
  B   B14       1.0  0.22300  0.81700  0.50000  1.0000
  B   B15       1.0  0.61200  0.95400  0.50000  1.0000
  B   B16       1.0  0.14000  0.96700  0.50000  1.0000
  Cr  Cr1       1.0  0.62000  0.07800  0.00000  1.0000
  Cr  Cr2       1.0  0.12000  0.42200  0.00000  1.0000
  Cr  Cr3       1.0  0.88000  0.57800  0.00000  1.0000
  Cr  Cr4       1.0  0.38000  0.92200  0.00000  1.0000
  Sm  Sm1       1.0  0.12300  0.15100  0.00000  1.0000
  Sm  Sm2       1.0  0.62300  0.34900  0.00000  1.0000
  Sm  Sm3       1.0  0.37700  0.65100  0.00000  1.0000
  Sm  Sm4       1.0  0.87700  0.84900  0.00000  1.0000
