data_image0
_chemical_formula_structural       Al2Ce6Ni2S14
_chemical_formula_sum              "Al2 Ce6 Ni2 S14"
_cell_length_a       10.0244
_cell_length_b       10.0218
_cell_length_c       6.22974
_cell_angle_alpha    90
_cell_angle_beta     90
_cell_angle_gamma    119.997

_space_group_name_H-M_alt    "P 1"
_space_group_IT_number       1

loop_
  _space_group_symop_operation_xyz
  'x, y, z'

loop_
  _atom_site_type_symbol
  _atom_site_label
  _atom_site_symmetry_multiplicity
  _atom_site_fract_x
  _atom_site_fract_y
  _atom_site_fract_z
  _atom_site_occupancy
  Al  Al1       1.0  0.66700  0.33300  0.15400  1.0000
  Al  Al2       1.0  0.33300  0.66700  0.65400  1.0000
  Ce  Ce1       1.0  0.15100  0.37500  0.23100  1.0000
  Ce  Ce2       1.0  0.22400  0.84900  0.23100  1.0000
  Ce  Ce3       1.0  0.62500  0.77600  0.23100  1.0000
  Ce  Ce4       1.0  0.84900  0.62500  0.73100  1.0000
  Ce  Ce5       1.0  0.77600  0.15100  0.73100  1.0000
  Ce  Ce6       1.0  0.37500  0.22400  0.73100  1.0000
  Ni  Ni1       1.0  0.00000  0.00000  0.04590  1.0000
  Ni  Ni2       1.0  0.00000  0.00000  0.54600  1.0000
  S   S1        1.0  0.90400  0.42700  0.01130  1.0000
  S   S2        1.0  0.57300  0.47800  0.01140  1.0000
  S   S3        1.0  0.52200  0.09590  0.01140  1.0000
  S   S4        1.0  0.33300  0.66700  0.01250  1.0000
  S   S5        1.0  0.22300  0.13200  0.30800  1.0000
  S   S6        1.0  0.86800  0.09130  0.30800  1.0000
  S   S7        1.0  0.90900  0.77700  0.30800  1.0000
  S   S8        1.0  0.09590  0.57300  0.51100  1.0000
  S   S9        1.0  0.42700  0.52200  0.51100  1.0000
  S   S10       1.0  0.47800  0.90400  0.51100  1.0000
  S   S11       1.0  0.66700  0.33300  0.51200  1.0000
  S   S12       1.0  0.77700  0.86800  0.80800  1.0000
  S   S13       1.0  0.13200  0.90900  0.80800  1.0000
  S   S14       1.0  0.09130  0.22300  0.80800  1.0000
