data_image0
_chemical_formula_structural       Al4Au8Zr12
_chemical_formula_sum              "Al4 Au8 Zr12"
_cell_length_a       8.76898
_cell_length_b       8.76898
_cell_length_c       8.76898
_cell_angle_alpha    120
_cell_angle_beta     90
_cell_angle_gamma    120

_space_group_name_H-M_alt    "P 1"
_space_group_IT_number       1

loop_
  _space_group_symop_operation_xyz
  'x, y, z'

loop_
  _atom_site_type_symbol
  _atom_site_label
  _atom_site_symmetry_multiplicity
  _atom_site_fract_x
  _atom_site_fract_y
  _atom_site_fract_z
  _atom_site_occupancy
  Al  Al1       1.0  0.00000  0.00000  0.00000  1.0000
  Al  Al2       1.0  0.50000  0.00000  0.00000  1.0000
  Al  Al3       1.0  0.50000  0.50000  0.00000  1.0000
  Al  Al4       1.0  0.50000  0.50000  0.50000  1.0000
  Au  Au1       1.0  0.71200  0.92500  0.13700  1.0000
  Au  Au2       1.0  0.28800  0.07500  0.21200  1.0000
  Au  Au3       1.0  0.28800  0.42500  0.21200  1.0000
  Au  Au4       1.0  0.63700  0.42500  0.21200  1.0000
  Au  Au5       1.0  0.71200  0.57500  0.78800  1.0000
  Au  Au6       1.0  0.71200  0.92500  0.78800  1.0000
  Au  Au7       1.0  0.36300  0.57500  0.78800  1.0000
  Au  Au8       1.0  0.28800  0.07500  0.86300  1.0000
  Zr  Zr1       1.0  0.92800  0.35600  0.17800  1.0000
  Zr  Zr2       1.0  0.32200  0.75000  0.17800  1.0000
  Zr  Zr3       1.0  0.92800  0.75000  0.17800  1.0000
  Zr  Zr4       1.0  0.07210  0.25000  0.42800  1.0000
  Zr  Zr5       1.0  0.67800  0.85600  0.42800  1.0000
  Zr  Zr6       1.0  0.67800  0.25000  0.42800  1.0000
  Zr  Zr7       1.0  0.32200  0.14400  0.57200  1.0000
  Zr  Zr8       1.0  0.32200  0.75000  0.57200  1.0000
  Zr  Zr9       1.0  0.92800  0.75000  0.57200  1.0000
  Zr  Zr10      1.0  0.07210  0.64400  0.82200  1.0000
  Zr  Zr11      1.0  0.07210  0.25000  0.82200  1.0000
  Zr  Zr12      1.0  0.67800  0.25000  0.82200  1.0000
