data_image0
_chemical_formula_structural       Al4I16Tl4
_chemical_formula_sum              "Al4 I16 Tl4"
_cell_length_a       8.33369
_cell_length_b       8.02204
_cell_length_c       16.2626
_cell_angle_alpha    90
_cell_angle_beta     95.6638
_cell_angle_gamma    90

_space_group_name_H-M_alt    "P 1"
_space_group_IT_number       1

loop_
  _space_group_symop_operation_xyz
  'x, y, z'

loop_
  _atom_site_type_symbol
  _atom_site_label
  _atom_site_symmetry_multiplicity
  _atom_site_fract_x
  _atom_site_fract_y
  _atom_site_fract_z
  _atom_site_occupancy
  Al  Al1       1.0  0.24500  0.64300  0.14000  1.0000
  Al  Al2       1.0  0.75500  0.14300  0.36000  1.0000
  Al  Al3       1.0  0.24500  0.85700  0.64000  1.0000
  Al  Al4       1.0  0.75500  0.35700  0.86000  1.0000
  I   I1        1.0  0.42000  0.76200  0.03120  1.0000
  I   I2        1.0  0.13900  0.35600  0.08990  1.0000
  I   I3        1.0  0.01640  0.84900  0.16000  1.0000
  I   I4        1.0  0.57900  0.11100  0.22200  1.0000
  I   I5        1.0  0.42100  0.61100  0.27800  1.0000
  I   I6        1.0  0.98400  0.34900  0.34000  1.0000
  I   I7        1.0  0.86100  0.85600  0.41000  1.0000
  I   I8        1.0  0.58000  0.26200  0.46900  1.0000
  I   I9        1.0  0.42000  0.73800  0.53100  1.0000
  I   I10       1.0  0.13900  0.14400  0.59000  1.0000
  I   I11       1.0  0.01640  0.65100  0.66000  1.0000
  I   I12       1.0  0.57900  0.38900  0.72200  1.0000
  I   I13       1.0  0.42100  0.88900  0.77800  1.0000
  I   I14       1.0  0.98400  0.15100  0.84000  1.0000
  I   I15       1.0  0.86100  0.64400  0.91000  1.0000
  I   I16       1.0  0.58000  0.23800  0.96900  1.0000
  Tl  Tl1       1.0  0.74500  0.49800  0.13800  1.0000
  Tl  Tl2       1.0  0.25500  0.99800  0.36200  1.0000
  Tl  Tl3       1.0  0.74500  0.00172  0.63800  1.0000
  Tl  Tl4       1.0  0.25500  0.50200  0.86200  1.0000
