data_image0
_chemical_formula_structural       B16Cr4U4
_chemical_formula_sum              "B16 Cr4 U4"
_cell_length_a       5.84891
_cell_length_b       11.3422
_cell_length_c       3.48323
_cell_angle_alpha    90
_cell_angle_beta     90
_cell_angle_gamma    90

_space_group_name_H-M_alt    "P 1"
_space_group_IT_number       1

loop_
  _space_group_symop_operation_xyz
  'x, y, z'

loop_
  _atom_site_type_symbol
  _atom_site_label
  _atom_site_symmetry_multiplicity
  _atom_site_fract_x
  _atom_site_fract_y
  _atom_site_fract_z
  _atom_site_occupancy
  B   B1        1.0  0.86500  0.03290  0.50000  1.0000
  B   B2        1.0  0.38600  0.04650  0.50000  1.0000
  B   B3        1.0  0.78400  0.18700  0.50000  1.0000
  B   B4        1.0  0.47300  0.19200  0.50000  1.0000
  B   B5        1.0  0.97300  0.30800  0.50000  1.0000
  B   B6        1.0  0.28400  0.31300  0.50000  1.0000
  B   B7        1.0  0.88600  0.45400  0.50000  1.0000
  B   B8        1.0  0.36500  0.46700  0.50000  1.0000
  B   B9        1.0  0.63500  0.53300  0.50000  1.0000
  B   B10       1.0  0.11400  0.54600  0.50000  1.0000
  B   B11       1.0  0.71600  0.68700  0.50000  1.0000
  B   B12       1.0  0.02720  0.69200  0.50000  1.0000
  B   B13       1.0  0.52700  0.80800  0.50000  1.0000
  B   B14       1.0  0.21600  0.81300  0.50000  1.0000
  B   B15       1.0  0.61400  0.95400  0.50000  1.0000
  B   B16       1.0  0.13500  0.96700  0.50000  1.0000
  Cr  Cr1       1.0  0.63000  0.08820  0.00000  1.0000
  Cr  Cr2       1.0  0.13000  0.41200  0.00000  1.0000
  Cr  Cr3       1.0  0.87000  0.58800  0.00000  1.0000
  Cr  Cr4       1.0  0.37000  0.91200  0.00000  1.0000
  U   U1        1.0  0.12600  0.15100  0.00000  1.0000
  U   U2        1.0  0.62600  0.34900  0.00000  1.0000
  U   U3        1.0  0.37400  0.65100  0.00000  1.0000
  U   U4        1.0  0.87400  0.84900  0.00000  1.0000
