data_image0
_chemical_formula_structural       Be2La6S14Ti2
_chemical_formula_sum              "Be2 La6 S14 Ti2"
_cell_length_a       10.2958
_cell_length_b       10.296
_cell_length_c       5.78889
_cell_angle_alpha    90
_cell_angle_beta     90
_cell_angle_gamma    120

_space_group_name_H-M_alt    "P 1"
_space_group_IT_number       1

loop_
  _space_group_symop_operation_xyz
  'x, y, z'

loop_
  _atom_site_type_symbol
  _atom_site_label
  _atom_site_symmetry_multiplicity
  _atom_site_fract_x
  _atom_site_fract_y
  _atom_site_fract_z
  _atom_site_occupancy
  Be  Be1       1.0  0.66700  0.33300  0.15900  1.0000
  Be  Be2       1.0  0.33300  0.66700  0.65900  1.0000
  La  La1       1.0  0.13700  0.39100  0.24800  1.0000
  La  La2       1.0  0.25400  0.86300  0.24800  1.0000
  La  La3       1.0  0.60900  0.74600  0.24800  1.0000
  La  La4       1.0  0.86300  0.60900  0.74800  1.0000
  La  La5       1.0  0.74600  0.13700  0.74800  1.0000
  La  La6       1.0  0.39100  0.25400  0.74800  1.0000
  S   S1        1.0  0.33300  0.66700  0.01760  1.0000
  S   S2        1.0  0.51700  0.11400  0.03190  1.0000
  S   S3        1.0  0.59700  0.48300  0.03190  1.0000
  S   S4        1.0  0.88500  0.40300  0.03190  1.0000
  S   S5        1.0  0.22400  0.14700  0.26700  1.0000
  S   S6        1.0  0.85300  0.07700  0.26700  1.0000
  S   S7        1.0  0.92300  0.77600  0.26700  1.0000
  S   S8        1.0  0.66700  0.33300  0.51800  1.0000
  S   S9        1.0  0.48300  0.88600  0.53200  1.0000
  S   S10       1.0  0.40300  0.51700  0.53200  1.0000
  S   S11       1.0  0.11500  0.59700  0.53200  1.0000
  S   S12       1.0  0.77600  0.85300  0.76700  1.0000
  S   S13       1.0  0.07700  0.22400  0.76700  1.0000
  S   S14       1.0  0.14700  0.92300  0.76700  1.0000
  Ti  Ti1       1.0  0.00000  0.00000  0.01490  1.0000
  Ti  Ti2       1.0  0.00000  0.00000  0.51500  1.0000
