data_image0
_chemical_formula_structural       B16Fe4U4
_chemical_formula_sum              "B16 Fe4 U4"
_cell_length_a       5.86475
_cell_length_b       11.3682
_cell_length_c       3.37132
_cell_angle_alpha    90
_cell_angle_beta     90
_cell_angle_gamma    90

_space_group_name_H-M_alt    "P 1"
_space_group_IT_number       1

loop_
  _space_group_symop_operation_xyz
  'x, y, z'

loop_
  _atom_site_type_symbol
  _atom_site_label
  _atom_site_symmetry_multiplicity
  _atom_site_fract_x
  _atom_site_fract_y
  _atom_site_fract_z
  _atom_site_occupancy
  B   B1        1.0  0.86500  0.03400  0.50000  1.0000
  B   B2        1.0  0.38700  0.04590  0.50000  1.0000
  B   B3        1.0  0.78300  0.18700  0.50000  1.0000
  B   B4        1.0  0.47500  0.19200  0.50000  1.0000
  B   B5        1.0  0.97500  0.30800  0.50000  1.0000
  B   B6        1.0  0.28300  0.31300  0.50000  1.0000
  B   B7        1.0  0.88700  0.45400  0.50000  1.0000
  B   B8        1.0  0.36500  0.46600  0.50000  1.0000
  B   B9        1.0  0.63500  0.53400  0.50000  1.0000
  B   B10       1.0  0.11300  0.54600  0.50000  1.0000
  B   B11       1.0  0.71700  0.68700  0.50000  1.0000
  B   B12       1.0  0.02460  0.69200  0.50000  1.0000
  B   B13       1.0  0.52500  0.80800  0.50000  1.0000
  B   B14       1.0  0.21700  0.81300  0.50000  1.0000
  B   B15       1.0  0.61300  0.95400  0.50000  1.0000
  B   B16       1.0  0.13500  0.96600  0.50000  1.0000
  Fe  Fe1       1.0  0.63400  0.08880  0.00000  1.0000
  Fe  Fe2       1.0  0.13400  0.41100  0.00000  1.0000
  Fe  Fe3       1.0  0.86600  0.58900  0.00000  1.0000
  Fe  Fe4       1.0  0.36600  0.91100  0.00000  1.0000
  U   U1        1.0  0.12700  0.15000  0.00000  1.0000
  U   U2        1.0  0.62700  0.35000  0.00000  1.0000
  U   U3        1.0  0.37300  0.65000  0.00000  1.0000
  U   U4        1.0  0.87300  0.85000  0.00000  1.0000
