data_image0
_chemical_formula_structural       Ce6Ga2Mn2S14
_chemical_formula_sum              "Ce6 Ga2 Mn2 S14"
_cell_length_a       10.2019
_cell_length_b       10.2022
_cell_length_c       6.11591
_cell_angle_alpha    90
_cell_angle_beta     90
_cell_angle_gamma    120.002

_space_group_name_H-M_alt    "P 1"
_space_group_IT_number       1

loop_
  _space_group_symop_operation_xyz
  'x, y, z'

loop_
  _atom_site_type_symbol
  _atom_site_label
  _atom_site_symmetry_multiplicity
  _atom_site_fract_x
  _atom_site_fract_y
  _atom_site_fract_z
  _atom_site_occupancy
  Ce  Ce1       1.0  0.14200  0.37500  0.24200  1.0000
  Ce  Ce2       1.0  0.23300  0.85800  0.24200  1.0000
  Ce  Ce3       1.0  0.62500  0.76700  0.24200  1.0000
  Ce  Ce4       1.0  0.85800  0.62500  0.74200  1.0000
  Ce  Ce5       1.0  0.76700  0.14200  0.74200  1.0000
  Ce  Ce6       1.0  0.37500  0.23300  0.74200  1.0000
  Ga  Ga1       1.0  0.66700  0.33300  0.16300  1.0000
  Ga  Ga2       1.0  0.33300  0.66700  0.66300  1.0000
  Mn  Mn1       1.0  0.00000  0.00000  0.01640  1.0000
  Mn  Mn2       1.0  0.00000  0.00000  0.51600  1.0000
  S   S1        1.0  0.90300  0.42000  0.01280  1.0000
  S   S2        1.0  0.51700  0.09740  0.01280  1.0000
  S   S3        1.0  0.58000  0.48300  0.01280  1.0000
  S   S4        1.0  0.33300  0.66700  0.03090  1.0000
  S   S5        1.0  0.85400  0.09040  0.28800  1.0000
  S   S6        1.0  0.23600  0.14600  0.28800  1.0000
  S   S7        1.0  0.91000  0.76400  0.28800  1.0000
  S   S8        1.0  0.09740  0.58000  0.51300  1.0000
  S   S9        1.0  0.48300  0.90300  0.51300  1.0000
  S   S10       1.0  0.42000  0.51700  0.51300  1.0000
  S   S11       1.0  0.66700  0.33300  0.53100  1.0000
  S   S12       1.0  0.14600  0.91000  0.78800  1.0000
  S   S13       1.0  0.76400  0.85400  0.78800  1.0000
  S   S14       1.0  0.09040  0.23600  0.78800  1.0000
