data_image0
_chemical_formula_structural       B4Ni14Tb6
_chemical_formula_sum              "B4 Ni14 Tb6"
_cell_length_a       5.09364
_cell_length_b       5.09358
_cell_length_c       14.3171
_cell_angle_alpha    90
_cell_angle_beta     90
_cell_angle_gamma    120

_space_group_name_H-M_alt    "P 1"
_space_group_IT_number       1

loop_
  _space_group_symop_operation_xyz
  'x, y, z'

loop_
  _atom_site_type_symbol
  _atom_site_label
  _atom_site_symmetry_multiplicity
  _atom_site_fract_x
  _atom_site_fract_y
  _atom_site_fract_z
  _atom_site_occupancy
  B   B1        1.0  0.00000  0.00000  0.25000  1.0000
  B   B2        1.0  0.33300  0.66700  0.25000  1.0000
  B   B3        1.0  0.00000  0.00000  0.75000  1.0000
  B   B4        1.0  0.66700  0.33300  0.75000  1.0000
  Ni  Ni1       1.0  0.00000  0.00000  0.00000  1.0000
  Ni  Ni2       1.0  0.16500  0.33000  0.14900  1.0000
  Ni  Ni3       1.0  0.16500  0.83500  0.14900  1.0000
  Ni  Ni4       1.0  0.67000  0.83500  0.14900  1.0000
  Ni  Ni5       1.0  0.16500  0.83500  0.35100  1.0000
  Ni  Ni6       1.0  0.67000  0.83500  0.35100  1.0000
  Ni  Ni7       1.0  0.16500  0.33000  0.35100  1.0000
  Ni  Ni8       1.0  0.00000  0.00000  0.50000  1.0000
  Ni  Ni9       1.0  0.83500  0.67000  0.64900  1.0000
  Ni  Ni10      1.0  0.33000  0.16500  0.64900  1.0000
  Ni  Ni11      1.0  0.83500  0.16500  0.64900  1.0000
  Ni  Ni12      1.0  0.33000  0.16500  0.85100  1.0000
  Ni  Ni13      1.0  0.83500  0.16500  0.85100  1.0000
  Ni  Ni14      1.0  0.83500  0.67000  0.85100  1.0000
  Tb  Tb1       1.0  0.66700  0.33300  0.03010  1.0000
  Tb  Tb2       1.0  0.66700  0.33300  0.25000  1.0000
  Tb  Tb3       1.0  0.66700  0.33300  0.47000  1.0000
  Tb  Tb4       1.0  0.33300  0.66700  0.53000  1.0000
  Tb  Tb5       1.0  0.33300  0.66700  0.75000  1.0000
  Tb  Tb6       1.0  0.33300  0.66700  0.97000  1.0000
