data_image0
_chemical_formula_structural       B16Ni4U4
_chemical_formula_sum              "B16 Ni4 U4"
_cell_length_a       6.76663
_cell_length_b       6.76663
_cell_length_c       6.76663
_cell_angle_alpha    113.117
_cell_angle_beta     102.403
_cell_angle_gamma    113.117

_space_group_name_H-M_alt    "P 1"
_space_group_IT_number       1

loop_
  _space_group_symop_operation_xyz
  'x, y, z'

loop_
  _atom_site_type_symbol
  _atom_site_label
  _atom_site_symmetry_multiplicity
  _atom_site_fract_x
  _atom_site_fract_y
  _atom_site_fract_z
  _atom_site_occupancy
  B   B1        1.0  0.72500  0.83500  0.11000  1.0000
  B   B2        1.0  0.27500  0.38500  0.11000  1.0000
  B   B3        1.0  0.57700  0.00000  0.11300  1.0000
  B   B4        1.0  0.11300  0.53600  0.11300  1.0000
  B   B5        1.0  0.89000  0.16500  0.27500  1.0000
  B   B6        1.0  0.11000  0.38500  0.27500  1.0000
  B   B7        1.0  0.88700  0.00000  0.42300  1.0000
  B   B8        1.0  0.42300  0.53600  0.42300  1.0000
  B   B9        1.0  0.11300  0.00000  0.57700  1.0000
  B   B10       1.0  0.57700  0.46400  0.57700  1.0000
  B   B11       1.0  0.89000  0.61500  0.72500  1.0000
  B   B12       1.0  0.11000  0.83500  0.72500  1.0000
  B   B13       1.0  0.42300  0.00000  0.88700  1.0000
  B   B14       1.0  0.88700  0.46400  0.88700  1.0000
  B   B15       1.0  0.27500  0.16500  0.89000  1.0000
  B   B16       1.0  0.72500  0.61500  0.89000  1.0000
  Ni  Ni1       1.0  0.50000  0.77200  0.27200  1.0000
  Ni  Ni2       1.0  0.72800  0.22800  0.50000  1.0000
  Ni  Ni3       1.0  0.27200  0.77200  0.50000  1.0000
  Ni  Ni4       1.0  0.50000  0.22800  0.72800  1.0000
  U   U1        1.0  0.19500  0.00000  0.19500  1.0000
  U   U2        1.0  0.75000  0.50000  0.25000  1.0000
  U   U3        1.0  0.25000  0.50000  0.75000  1.0000
  U   U4        1.0  0.80500  0.00000  0.80500  1.0000
