data_image0
_chemical_formula_structural       Ag2Ge2Pr6S14
_chemical_formula_sum              "Ag2 Ge2 Pr6 S14"
_cell_length_a       10.3843
_cell_length_b       10.3843
_cell_length_c       5.86679
_cell_angle_alpha    90
_cell_angle_beta     90
_cell_angle_gamma    120

_space_group_name_H-M_alt    "P 1"
_space_group_IT_number       1

loop_
  _space_group_symop_operation_xyz
  'x, y, z'

loop_
  _atom_site_type_symbol
  _atom_site_label
  _atom_site_symmetry_multiplicity
  _atom_site_fract_x
  _atom_site_fract_y
  _atom_site_fract_z
  _atom_site_occupancy
  Ag  Ag1       1.0  0.00000  0.00000  0.30500  1.0000
  Ag  Ag2       1.0  0.00000  0.00000  0.80500  1.0000
  Ge  Ge1       1.0  0.66700  0.33300  0.17400  1.0000
  Ge  Ge2       1.0  0.33300  0.66700  0.67400  1.0000
  Pr  Pr1       1.0  0.12500  0.35900  0.25700  1.0000
  Pr  Pr2       1.0  0.64100  0.76600  0.25700  1.0000
  Pr  Pr3       1.0  0.23400  0.87500  0.25700  1.0000
  Pr  Pr4       1.0  0.35900  0.23400  0.75700  1.0000
  Pr  Pr5       1.0  0.76600  0.12500  0.75700  1.0000
  Pr  Pr6       1.0  0.87500  0.64100  0.75700  1.0000
  S   S1        1.0  0.52000  0.10800  0.01740  1.0000
  S   S2        1.0  0.58800  0.48000  0.01740  1.0000
  S   S3        1.0  0.89200  0.41200  0.01740  1.0000
  S   S4        1.0  0.33300  0.66700  0.04980  1.0000
  S   S5        1.0  0.90600  0.73100  0.27300  1.0000
  S   S6        1.0  0.82500  0.09420  0.27300  1.0000
  S   S7        1.0  0.26900  0.17500  0.27300  1.0000
  S   S8        1.0  0.48000  0.89200  0.51700  1.0000
  S   S9        1.0  0.41200  0.52000  0.51700  1.0000
  S   S10       1.0  0.10800  0.58800  0.51700  1.0000
  S   S11       1.0  0.66700  0.33300  0.55000  1.0000
  S   S12       1.0  0.09420  0.26900  0.77300  1.0000
  S   S13       1.0  0.73100  0.82500  0.77300  1.0000
  S   S14       1.0  0.17500  0.90600  0.77300  1.0000
