data_image0
_chemical_formula_structural       B16Lu4Ni4
_chemical_formula_sum              "B16 Lu4 Ni4"
_cell_length_a       5.84327
_cell_length_b       11.3406
_cell_length_c       3.36135
_cell_angle_alpha    90
_cell_angle_beta     90
_cell_angle_gamma    90

_space_group_name_H-M_alt    "P 1"
_space_group_IT_number       1

loop_
  _space_group_symop_operation_xyz
  'x, y, z'

loop_
  _atom_site_type_symbol
  _atom_site_label
  _atom_site_symmetry_multiplicity
  _atom_site_fract_x
  _atom_site_fract_y
  _atom_site_fract_z
  _atom_site_occupancy
  B   B1        1.0  0.86300  0.03270  0.50000  1.0000
  B   B2        1.0  0.38600  0.04780  0.50000  1.0000
  B   B3        1.0  0.78600  0.18500  0.50000  1.0000
  B   B4        1.0  0.47800  0.19200  0.50000  1.0000
  B   B5        1.0  0.97800  0.30800  0.50000  1.0000
  B   B6        1.0  0.28600  0.31500  0.50000  1.0000
  B   B7        1.0  0.88600  0.45200  0.50000  1.0000
  B   B8        1.0  0.36300  0.46700  0.50000  1.0000
  B   B9        1.0  0.63700  0.53300  0.50000  1.0000
  B   B10       1.0  0.11400  0.54800  0.50000  1.0000
  B   B11       1.0  0.71400  0.68500  0.50000  1.0000
  B   B12       1.0  0.02150  0.69200  0.50000  1.0000
  B   B13       1.0  0.52200  0.80800  0.50000  1.0000
  B   B14       1.0  0.21400  0.81500  0.50000  1.0000
  B   B15       1.0  0.61400  0.95200  0.50000  1.0000
  B   B16       1.0  0.13700  0.96700  0.50000  1.0000
  Lu  Lu1       1.0  0.12700  0.15000  0.00000  1.0000
  Lu  Lu2       1.0  0.62700  0.35000  0.00000  1.0000
  Lu  Lu3       1.0  0.37300  0.65000  0.00000  1.0000
  Lu  Lu4       1.0  0.87300  0.85000  0.00000  1.0000
  Ni  Ni1       1.0  0.63400  0.08860  0.00000  1.0000
  Ni  Ni2       1.0  0.13400  0.41100  0.00000  1.0000
  Ni  Ni3       1.0  0.86600  0.58900  0.00000  1.0000
  Ni  Ni4       1.0  0.36600  0.91100  0.00000  1.0000
