data_image0
_chemical_formula_structural       B16Pu4W4
_chemical_formula_sum              "B16 Pu4 W4"
_cell_length_a       6.02601
_cell_length_b       11.652
_cell_length_c       3.62474
_cell_angle_alpha    90
_cell_angle_beta     90
_cell_angle_gamma    90

_space_group_name_H-M_alt    "P 1"
_space_group_IT_number       1

loop_
  _space_group_symop_operation_xyz
  'x, y, z'

loop_
  _atom_site_type_symbol
  _atom_site_label
  _atom_site_symmetry_multiplicity
  _atom_site_fract_x
  _atom_site_fract_y
  _atom_site_fract_z
  _atom_site_occupancy
  B   B1        1.0  0.86600  0.03220  0.50000  1.0000
  B   B2        1.0  0.38400  0.04760  0.50000  1.0000
  B   B3        1.0  0.78800  0.18700  0.50000  1.0000
  B   B4        1.0  0.47500  0.19300  0.50000  1.0000
  B   B5        1.0  0.97500  0.30700  0.50000  1.0000
  B   B6        1.0  0.28800  0.31300  0.50000  1.0000
  B   B7        1.0  0.88400  0.45200  0.50000  1.0000
  B   B8        1.0  0.36600  0.46800  0.50000  1.0000
  B   B9        1.0  0.63400  0.53200  0.50000  1.0000
  B   B10       1.0  0.11600  0.54800  0.50000  1.0000
  B   B11       1.0  0.71200  0.68700  0.50000  1.0000
  B   B12       1.0  0.02530  0.69300  0.50000  1.0000
  B   B13       1.0  0.52500  0.80700  0.50000  1.0000
  B   B14       1.0  0.21200  0.81300  0.50000  1.0000
  B   B15       1.0  0.61600  0.95200  0.50000  1.0000
  B   B16       1.0  0.13400  0.96800  0.50000  1.0000
  Pu  Pu1       1.0  0.12600  0.15100  0.00000  1.0000
  Pu  Pu2       1.0  0.62600  0.34900  0.00000  1.0000
  Pu  Pu3       1.0  0.37400  0.65100  0.00000  1.0000
  Pu  Pu4       1.0  0.87400  0.84900  0.00000  1.0000
  W   W1        1.0  0.63200  0.08670  0.00000  1.0000
  W   W2        1.0  0.13200  0.41300  0.00000  1.0000
  W   W3        1.0  0.86800  0.58700  0.00000  1.0000
  W   W4        1.0  0.36800  0.91300  0.00000  1.0000
