data_image0
_chemical_formula_structural       B16U4W4
_chemical_formula_sum              "B16 U4 W4"
_cell_length_a       5.96645
_cell_length_b       11.4815
_cell_length_c       3.65172
_cell_angle_alpha    90
_cell_angle_beta     90
_cell_angle_gamma    90

_space_group_name_H-M_alt    "P 1"
_space_group_IT_number       1

loop_
  _space_group_symop_operation_xyz
  'x, y, z'

loop_
  _atom_site_type_symbol
  _atom_site_label
  _atom_site_symmetry_multiplicity
  _atom_site_fract_x
  _atom_site_fract_y
  _atom_site_fract_z
  _atom_site_occupancy
  B   B1        1.0  0.86800  0.03240  0.50000  1.0000
  B   B2        1.0  0.38500  0.04750  0.50000  1.0000
  B   B3        1.0  0.79300  0.18800  0.50000  1.0000
  B   B4        1.0  0.47400  0.19300  0.50000  1.0000
  B   B5        1.0  0.97400  0.30700  0.50000  1.0000
  B   B6        1.0  0.29300  0.31200  0.50000  1.0000
  B   B7        1.0  0.88500  0.45300  0.50000  1.0000
  B   B8        1.0  0.36800  0.46800  0.50000  1.0000
  B   B9        1.0  0.63200  0.53200  0.50000  1.0000
  B   B10       1.0  0.11500  0.54700  0.50000  1.0000
  B   B11       1.0  0.70700  0.68800  0.50000  1.0000
  B   B12       1.0  0.02630  0.69300  0.50000  1.0000
  B   B13       1.0  0.52600  0.80700  0.50000  1.0000
  B   B14       1.0  0.20700  0.81200  0.50000  1.0000
  B   B15       1.0  0.61500  0.95300  0.50000  1.0000
  B   B16       1.0  0.13200  0.96800  0.50000  1.0000
  U   U1        1.0  0.12800  0.15000  0.00000  1.0000
  U   U2        1.0  0.62800  0.35000  0.00000  1.0000
  U   U3        1.0  0.37200  0.65000  0.00000  1.0000
  U   U4        1.0  0.87200  0.85000  0.00000  1.0000
  W   W1        1.0  0.63800  0.09180  0.00000  1.0000
  W   W2        1.0  0.13800  0.40800  0.00000  1.0000
  W   W3        1.0  0.86200  0.59200  0.00000  1.0000
  W   W4        1.0  0.36200  0.90800  0.00000  1.0000
