data_image0
_chemical_formula_structural       B16Lu4Os4
_chemical_formula_sum              "B16 Lu4 Os4"
_cell_length_a       5.90785
_cell_length_b       11.4267
_cell_length_c       3.52992
_cell_angle_alpha    90
_cell_angle_beta     90
_cell_angle_gamma    90

_space_group_name_H-M_alt    "P 1"
_space_group_IT_number       1

loop_
  _space_group_symop_operation_xyz
  'x, y, z'

loop_
  _atom_site_type_symbol
  _atom_site_label
  _atom_site_symmetry_multiplicity
  _atom_site_fract_x
  _atom_site_fract_y
  _atom_site_fract_z
  _atom_site_occupancy
  B   B1        1.0  0.86500  0.02980  0.50000  1.0000
  B   B2        1.0  0.38600  0.04760  0.50000  1.0000
  B   B3        1.0  0.79200  0.18600  0.50000  1.0000
  B   B4        1.0  0.47500  0.19300  0.50000  1.0000
  B   B5        1.0  0.97500  0.30700  0.50000  1.0000
  B   B6        1.0  0.29200  0.31400  0.50000  1.0000
  B   B7        1.0  0.88600  0.45200  0.50000  1.0000
  B   B8        1.0  0.36500  0.47000  0.50000  1.0000
  B   B9        1.0  0.63500  0.53000  0.50000  1.0000
  B   B10       1.0  0.11400  0.54800  0.50000  1.0000
  B   B11       1.0  0.70800  0.68600  0.50000  1.0000
  B   B12       1.0  0.02460  0.69300  0.50000  1.0000
  B   B13       1.0  0.52500  0.80700  0.50000  1.0000
  B   B14       1.0  0.20800  0.81400  0.50000  1.0000
  B   B15       1.0  0.61400  0.95200  0.50000  1.0000
  B   B16       1.0  0.13500  0.97000  0.50000  1.0000
  Lu  Lu1       1.0  0.12900  0.15000  0.00000  1.0000
  Lu  Lu2       1.0  0.62900  0.35000  0.00000  1.0000
  Lu  Lu3       1.0  0.37100  0.65000  0.00000  1.0000
  Lu  Lu4       1.0  0.87100  0.85000  0.00000  1.0000
  Os  Os1       1.0  0.64200  0.09420  0.00000  1.0000
  Os  Os2       1.0  0.14200  0.40600  0.00000  1.0000
  Os  Os3       1.0  0.85800  0.59400  0.00000  1.0000
  Os  Os4       1.0  0.35800  0.90600  0.00000  1.0000
