data_image0
_chemical_formula_structural       Be2In2La6S14
_chemical_formula_sum              "Be2 In2 La6 S14"
_cell_length_a       10.2634
_cell_length_b       10.2634
_cell_length_c       6.08576
_cell_angle_alpha    90
_cell_angle_beta     90
_cell_angle_gamma    119.999

_space_group_name_H-M_alt    "P 1"
_space_group_IT_number       1

loop_
  _space_group_symop_operation_xyz
  'x, y, z'

loop_
  _atom_site_type_symbol
  _atom_site_label
  _atom_site_symmetry_multiplicity
  _atom_site_fract_x
  _atom_site_fract_y
  _atom_site_fract_z
  _atom_site_occupancy
  Be  Be1       1.0  0.66700  0.33300  0.16300  1.0000
  Be  Be2       1.0  0.33300  0.66700  0.66300  1.0000
  In  In1       1.0  0.00000  0.00000  0.01710  1.0000
  In  In2       1.0  0.00000  0.00000  0.51700  1.0000
  La  La1       1.0  0.25700  0.86400  0.24900  1.0000
  La  La2       1.0  0.60800  0.74300  0.24900  1.0000
  La  La3       1.0  0.13500  0.39200  0.24900  1.0000
  La  La4       1.0  0.74300  0.13600  0.74900  1.0000
  La  La5       1.0  0.39200  0.25700  0.74900  1.0000
  La  La6       1.0  0.86500  0.60800  0.74900  1.0000
  S   S1        1.0  0.33300  0.66700  0.01020  1.0000
  S   S2        1.0  0.59600  0.48100  0.02870  1.0000
  S   S3        1.0  0.51900  0.11400  0.02870  1.0000
  S   S4        1.0  0.88600  0.40400  0.02880  1.0000
  S   S5        1.0  0.84200  0.08170  0.27000  1.0000
  S   S6        1.0  0.23900  0.15800  0.27000  1.0000
  S   S7        1.0  0.91800  0.76100  0.27000  1.0000
  S   S8        1.0  0.66700  0.33300  0.51000  1.0000
  S   S9        1.0  0.40400  0.51900  0.52900  1.0000
  S   S10       1.0  0.48100  0.88600  0.52900  1.0000
  S   S11       1.0  0.11400  0.59600  0.52900  1.0000
  S   S12       1.0  0.15800  0.91800  0.77000  1.0000
  S   S13       1.0  0.76100  0.84200  0.77000  1.0000
  S   S14       1.0  0.08170  0.23900  0.77000  1.0000
