data_image0
_chemical_formula_structural       B16Mn4Nd4
_chemical_formula_sum              "B16 Mn4 Nd4"
_cell_length_a       6.01545
_cell_length_b       11.6364
_cell_length_c       3.50521
_cell_angle_alpha    90
_cell_angle_beta     90
_cell_angle_gamma    90

_space_group_name_H-M_alt    "P 1"
_space_group_IT_number       1

loop_
  _space_group_symop_operation_xyz
  'x, y, z'

loop_
  _atom_site_type_symbol
  _atom_site_label
  _atom_site_symmetry_multiplicity
  _atom_site_fract_x
  _atom_site_fract_y
  _atom_site_fract_z
  _atom_site_occupancy
  B   B1        1.0  0.85800  0.03260  0.50000  1.0000
  B   B2        1.0  0.38900  0.04530  0.50000  1.0000
  B   B3        1.0  0.77600  0.18100  0.50000  1.0000
  B   B4        1.0  0.47600  0.18800  0.50000  1.0000
  B   B5        1.0  0.97600  0.31200  0.50000  1.0000
  B   B6        1.0  0.27600  0.31900  0.50000  1.0000
  B   B7        1.0  0.88900  0.45500  0.50000  1.0000
  B   B8        1.0  0.35800  0.46700  0.50000  1.0000
  B   B9        1.0  0.64200  0.53300  0.50000  1.0000
  B   B10       1.0  0.11100  0.54500  0.50000  1.0000
  B   B11       1.0  0.72400  0.68100  0.50000  1.0000
  B   B12       1.0  0.02410  0.68800  0.50000  1.0000
  B   B13       1.0  0.52400  0.81200  0.50000  1.0000
  B   B14       1.0  0.22400  0.81900  0.50000  1.0000
  B   B15       1.0  0.61100  0.95500  0.50000  1.0000
  B   B16       1.0  0.14200  0.96700  0.50000  1.0000
  Mn  Mn1       1.0  0.62500  0.08240  0.00000  1.0000
  Mn  Mn2       1.0  0.12500  0.41800  0.00000  1.0000
  Mn  Mn3       1.0  0.87500  0.58200  0.00000  1.0000
  Mn  Mn4       1.0  0.37500  0.91800  0.00000  1.0000
  Nd  Nd1       1.0  0.12400  0.15100  0.00000  1.0000
  Nd  Nd2       1.0  0.62400  0.34900  0.00000  1.0000
  Nd  Nd3       1.0  0.37600  0.65100  0.00000  1.0000
  Nd  Nd4       1.0  0.87600  0.84900  0.00000  1.0000
