data_image0
_chemical_formula_structural       Be2Ce6Cr2S14
_chemical_formula_sum              "Be2 Ce6 Cr2 S14"
_cell_length_a       10.061
_cell_length_b       10.061
_cell_length_c       6.07144
_cell_angle_alpha    90
_cell_angle_beta     90
_cell_angle_gamma    120

_space_group_name_H-M_alt    "P 1"
_space_group_IT_number       1

loop_
  _space_group_symop_operation_xyz
  'x, y, z'

loop_
  _atom_site_type_symbol
  _atom_site_label
  _atom_site_symmetry_multiplicity
  _atom_site_fract_x
  _atom_site_fract_y
  _atom_site_fract_z
  _atom_site_occupancy
  Be  Be1       1.0  0.66700  0.33300  0.14600  1.0000
  Be  Be2       1.0  0.33300  0.66700  0.64600  1.0000
  Ce  Ce1       1.0  0.14900  0.39100  0.23200  1.0000
  Ce  Ce2       1.0  0.24200  0.85100  0.23200  1.0000
  Ce  Ce3       1.0  0.60900  0.75800  0.23200  1.0000
  Ce  Ce4       1.0  0.75800  0.14900  0.73200  1.0000
  Ce  Ce5       1.0  0.85100  0.60900  0.73200  1.0000
  Ce  Ce6       1.0  0.39100  0.24200  0.73200  1.0000
  Cr  Cr1       1.0  0.00000  0.00000  0.04230  1.0000
  Cr  Cr2       1.0  0.00000  0.00000  0.54200  1.0000
  S   S1        1.0  0.52300  0.10800  0.02130  1.0000
  S   S2        1.0  0.58600  0.47700  0.02130  1.0000
  S   S3        1.0  0.89200  0.41400  0.02130  1.0000
  S   S4        1.0  0.86700  0.08330  0.29700  1.0000
  S   S5        1.0  0.21700  0.13300  0.29700  1.0000
  S   S6        1.0  0.91700  0.78300  0.29700  1.0000
  S   S7        1.0  0.66700  0.33300  0.49200  1.0000
  S   S8        1.0  0.41500  0.52300  0.52100  1.0000
  S   S9        1.0  0.47700  0.89200  0.52100  1.0000
  S   S10       1.0  0.10800  0.58600  0.52100  1.0000
  S   S11       1.0  0.08330  0.21700  0.79700  1.0000
  S   S12       1.0  0.78300  0.86700  0.79700  1.0000
  S   S13       1.0  0.13300  0.91700  0.79700  1.0000
  S   S14       1.0  0.33300  0.66700  0.99200  1.0000
