data_image0
_chemical_formula_structural       Cr2Nd8S14
_chemical_formula_sum              "Cr2 Nd8 S14"
_cell_length_a       10.178
_cell_length_b       10.1781
_cell_length_c       6.5714
_cell_angle_alpha    90
_cell_angle_beta     90
_cell_angle_gamma    120.002

_space_group_name_H-M_alt    "P 1"
_space_group_IT_number       1

loop_
  _space_group_symop_operation_xyz
  'x, y, z'

loop_
  _atom_site_type_symbol
  _atom_site_label
  _atom_site_symmetry_multiplicity
  _atom_site_fract_x
  _atom_site_fract_y
  _atom_site_fract_z
  _atom_site_occupancy
  Cr  Cr1       1.0  0.66700  0.33300  0.14700  1.0000
  Cr  Cr2       1.0  0.33300  0.66700  0.64700  1.0000
  Nd  Nd1       1.0  0.00000  0.00000  0.05810  1.0000
  Nd  Nd2       1.0  0.60100  0.75300  0.22900  1.0000
  Nd  Nd3       1.0  0.24700  0.84800  0.22900  1.0000
  Nd  Nd4       1.0  0.15200  0.39900  0.22900  1.0000
  Nd  Nd5       1.0  0.00000  0.00000  0.55800  1.0000
  Nd  Nd6       1.0  0.39900  0.24700  0.72900  1.0000
  Nd  Nd7       1.0  0.75300  0.15200  0.72900  1.0000
  Nd  Nd8       1.0  0.84800  0.60100  0.72900  1.0000
  S   S1        1.0  0.33300  0.66700  0.01120  1.0000
  S   S2        1.0  0.25800  0.14700  0.31400  1.0000
  S   S3        1.0  0.85300  0.11000  0.31400  1.0000
  S   S4        1.0  0.89000  0.74200  0.31400  1.0000
  S   S5        1.0  0.48300  0.90100  0.48900  1.0000
  S   S6        1.0  0.41800  0.51700  0.48900  1.0000
  S   S7        1.0  0.09920  0.58200  0.48900  1.0000
  S   S8        1.0  0.66700  0.33300  0.51100  1.0000
  S   S9        1.0  0.11000  0.25800  0.81400  1.0000
  S   S10       1.0  0.74200  0.85300  0.81400  1.0000
  S   S11       1.0  0.14700  0.89000  0.81400  1.0000
  S   S12       1.0  0.51700  0.09920  0.98900  1.0000
  S   S13       1.0  0.90100  0.41800  0.98900  1.0000
  S   S14       1.0  0.58200  0.48300  0.98900  1.0000
