data_image0
_chemical_formula_structural       B16Ni4Pr4
_chemical_formula_sum              "B16 Ni4 Pr4"
_cell_length_a       6.96404
_cell_length_b       6.96404
_cell_length_c       6.96404
_cell_angle_alpha    103.057
_cell_angle_beta     112.771
_cell_angle_gamma    112.771

_space_group_name_H-M_alt    "P 1"
_space_group_IT_number       1

loop_
  _space_group_symop_operation_xyz
  'x, y, z'

loop_
  _atom_site_type_symbol
  _atom_site_label
  _atom_site_symmetry_multiplicity
  _atom_site_fract_x
  _atom_site_fract_y
  _atom_site_fract_z
  _atom_site_occupancy
  B   B1        1.0  0.83700  0.72400  0.11300  1.0000
  B   B2        1.0  0.38900  0.27600  0.11300  1.0000
  B   B3        1.0  0.00000  0.58400  0.11300  1.0000
  B   B4        1.0  0.52900  0.11300  0.11300  1.0000
  B   B5        1.0  0.16300  0.88700  0.27600  1.0000
  B   B6        1.0  0.38900  0.11300  0.27600  1.0000
  B   B7        1.0  0.52900  0.41600  0.41600  1.0000
  B   B8        1.0  0.00000  0.88700  0.41600  1.0000
  B   B9        1.0  0.00000  0.11300  0.58400  1.0000
  B   B10       1.0  0.47100  0.58400  0.58400  1.0000
  B   B11       1.0  0.61100  0.88700  0.72400  1.0000
  B   B12       1.0  0.83700  0.11300  0.72400  1.0000
  B   B13       1.0  0.00000  0.41600  0.88700  1.0000
  B   B14       1.0  0.47100  0.88700  0.88700  1.0000
  B   B15       1.0  0.16300  0.27600  0.88700  1.0000
  B   B16       1.0  0.61100  0.72400  0.88700  1.0000
  Ni  Ni1       1.0  0.77200  0.50000  0.27200  1.0000
  Ni  Ni2       1.0  0.22800  0.72800  0.50000  1.0000
  Ni  Ni3       1.0  0.77200  0.27200  0.50000  1.0000
  Ni  Ni4       1.0  0.22800  0.50000  0.72800  1.0000
  Pr  Pr1       1.0  0.00000  0.20500  0.20500  1.0000
  Pr  Pr2       1.0  0.50000  0.75000  0.25000  1.0000
  Pr  Pr3       1.0  0.50000  0.25000  0.75000  1.0000
  Pr  Pr4       1.0  0.00000  0.79500  0.79500  1.0000
