data_image0
_chemical_formula_structural       B6Co14Tm4
_chemical_formula_sum              "B6 Co14 Tm4"
_cell_length_a       4.97577
_cell_length_b       4.97577
_cell_length_c       12.7831
_cell_angle_alpha    90.0001
_cell_angle_beta     90.0001
_cell_angle_gamma    119.992

_space_group_name_H-M_alt    "P 1"
_space_group_IT_number       1

loop_
  _space_group_symop_operation_xyz
  'x, y, z'

loop_
  _atom_site_type_symbol
  _atom_site_label
  _atom_site_symmetry_multiplicity
  _atom_site_fract_x
  _atom_site_fract_y
  _atom_site_fract_z
  _atom_site_occupancy
  B   B1        1.0  0.33300  0.66700  0.26800  1.0000
  B   B2        1.0  0.66700  0.33300  0.26800  1.0000
  B   B3        1.0  0.66700  0.33300  0.50000  1.0000
  B   B4        1.0  0.33300  0.66700  0.50000  1.0000
  B   B5        1.0  0.33300  0.66700  0.73200  1.0000
  B   B6        1.0  0.66700  0.33300  0.73200  1.0000
  Co  Co1       1.0  0.66700  0.33300  0.00000  1.0000
  Co  Co2       1.0  0.33300  0.66700  0.00000  1.0000
  Co  Co3       1.0  0.50000  0.00000  0.15400  1.0000
  Co  Co4       1.0  0.00000  0.50000  0.15400  1.0000
  Co  Co5       1.0  0.50000  0.50000  0.15400  1.0000
  Co  Co6       1.0  0.50000  0.00000  0.38400  1.0000
  Co  Co7       1.0  0.00000  0.50000  0.38400  1.0000
  Co  Co8       1.0  0.50000  0.50000  0.38400  1.0000
  Co  Co9       1.0  0.50000  0.00000  0.61600  1.0000
  Co  Co10      1.0  0.00000  0.50000  0.61600  1.0000
  Co  Co11      1.0  0.50000  0.50000  0.61600  1.0000
  Co  Co12      1.0  0.00000  0.50000  0.84600  1.0000
  Co  Co13      1.0  0.50000  0.00000  0.84600  1.0000
  Co  Co14      1.0  0.50000  0.50000  0.84600  1.0000
  Tm  Tm1       1.0  0.00000  0.00000  0.00000  1.0000
  Tm  Tm2       1.0  0.00000  0.00000  0.26100  1.0000
  Tm  Tm3       1.0  0.00000  0.00000  0.50000  1.0000
  Tm  Tm4       1.0  0.00000  0.00000  0.73900  1.0000
