data_image0
_chemical_formula_structural       Al4Cu18Nd2
_chemical_formula_sum              "Al4 Cu18 Nd2"
_cell_length_a       6.60389
_cell_length_b       7.89933
_cell_length_c       7.89933
_cell_angle_alpha    100.063
_cell_angle_beta     65.2914
_cell_angle_gamma    114.709

_space_group_name_H-M_alt    "P 1"
_space_group_IT_number       1

loop_
  _space_group_symop_operation_xyz
  'x, y, z'

loop_
  _atom_site_type_symbol
  _atom_site_label
  _atom_site_symmetry_multiplicity
  _atom_site_fract_x
  _atom_site_fract_y
  _atom_site_fract_z
  _atom_site_occupancy
  Al  Al1       1.0  0.00000  0.00000  0.00000  1.0000
  Al  Al2       1.0  0.50000  0.50000  0.00000  1.0000
  Al  Al3       1.0  0.50000  0.00000  0.50000  1.0000
  Al  Al4       1.0  0.50000  0.50000  0.50000  1.0000
  Cu  Cu1       1.0  0.05870  0.33500  0.08050  1.0000
  Cu  Cu2       1.0  0.36100  0.16500  0.08050  1.0000
  Cu  Cu3       1.0  0.63900  0.08050  0.16500  1.0000
  Cu  Cu4       1.0  0.69600  0.41900  0.16500  1.0000
  Cu  Cu5       1.0  0.62500  0.75000  0.25000  1.0000
  Cu  Cu6       1.0  0.94100  0.08050  0.33500  1.0000
  Cu  Cu7       1.0  0.22400  0.41900  0.33500  1.0000
  Cu  Cu8       1.0  0.30400  0.16500  0.41900  1.0000
  Cu  Cu9       1.0  0.77600  0.33500  0.41900  1.0000
  Cu  Cu10      1.0  0.22400  0.66500  0.58100  1.0000
  Cu  Cu11      1.0  0.69600  0.83500  0.58100  1.0000
  Cu  Cu12      1.0  0.05870  0.91900  0.66500  1.0000
  Cu  Cu13      1.0  0.77600  0.58100  0.66500  1.0000
  Cu  Cu14      1.0  0.37500  0.25000  0.75000  1.0000
  Cu  Cu15      1.0  0.36100  0.91900  0.83500  1.0000
  Cu  Cu16      1.0  0.30400  0.58100  0.83500  1.0000
  Cu  Cu17      1.0  0.94100  0.66500  0.91900  1.0000
  Cu  Cu18      1.0  0.63900  0.83500  0.91900  1.0000
  Nd  Nd1       1.0  0.12500  0.75000  0.25000  1.0000
  Nd  Nd2       1.0  0.87500  0.25000  0.75000  1.0000
