data_image0
_chemical_formula_structural       Be2La6S14Sc2
_chemical_formula_sum              "Be2 La6 S14 Sc2"
_cell_length_a       10.2423
_cell_length_b       10.2423
_cell_length_c       6.0374
_cell_angle_alpha    90
_cell_angle_beta     90
_cell_angle_gamma    120

_space_group_name_H-M_alt    "P 1"
_space_group_IT_number       1

loop_
  _space_group_symop_operation_xyz
  'x, y, z'

loop_
  _atom_site_type_symbol
  _atom_site_label
  _atom_site_symmetry_multiplicity
  _atom_site_fract_x
  _atom_site_fract_y
  _atom_site_fract_z
  _atom_site_occupancy
  Be  Be1       1.0  0.66700  0.33300  0.15900  1.0000
  Be  Be2       1.0  0.33300  0.66700  0.65900  1.0000
  La  La1       1.0  0.13800  0.39300  0.24700  1.0000
  La  La2       1.0  0.25500  0.86200  0.24700  1.0000
  La  La3       1.0  0.60700  0.74500  0.24700  1.0000
  La  La4       1.0  0.86200  0.60700  0.74700  1.0000
  La  La5       1.0  0.74500  0.13800  0.74700  1.0000
  La  La6       1.0  0.39300  0.25500  0.74700  1.0000
  S   S1        1.0  0.33300  0.66700  0.00987  1.0000
  S   S2        1.0  0.51900  0.11400  0.02890  1.0000
  S   S3        1.0  0.88600  0.40500  0.02890  1.0000
  S   S4        1.0  0.59500  0.48100  0.02890  1.0000
  S   S5        1.0  0.23100  0.15200  0.27200  1.0000
  S   S6        1.0  0.84800  0.07910  0.27200  1.0000
  S   S7        1.0  0.92100  0.76900  0.27200  1.0000
  S   S8        1.0  0.66700  0.33300  0.51000  1.0000
  S   S9        1.0  0.48100  0.88600  0.52900  1.0000
  S   S10       1.0  0.40500  0.51900  0.52900  1.0000
  S   S11       1.0  0.11400  0.59500  0.52900  1.0000
  S   S12       1.0  0.76900  0.84800  0.77200  1.0000
  S   S13       1.0  0.15200  0.92100  0.77200  1.0000
  S   S14       1.0  0.07910  0.23100  0.77200  1.0000
  Sc  Sc1       1.0  0.00000  0.00000  0.01940  1.0000
  Sc  Sc2       1.0  0.00000  0.00000  0.51900  1.0000
