data_image0
_chemical_formula_structural       Be2Cr2S14Sm6
_chemical_formula_sum              "Be2 Cr2 S14 Sm6"
_cell_length_a       9.73395
_cell_length_b       9.73396
_cell_length_c       6.05083
_cell_angle_alpha    90
_cell_angle_beta     90
_cell_angle_gamma    120

_space_group_name_H-M_alt    "P 1"
_space_group_IT_number       1

loop_
  _space_group_symop_operation_xyz
  'x, y, z'

loop_
  _atom_site_type_symbol
  _atom_site_label
  _atom_site_symmetry_multiplicity
  _atom_site_fract_x
  _atom_site_fract_y
  _atom_site_fract_z
  _atom_site_occupancy
  Be  Be1       1.0  0.66700  0.33300  0.14300  1.0000
  Be  Be2       1.0  0.33300  0.66700  0.64300  1.0000
  Cr  Cr1       1.0  0.00000  0.00000  0.04830  1.0000
  Cr  Cr2       1.0  0.00000  0.00000  0.54800  1.0000
  S   S1        1.0  0.89800  0.42200  0.01500  1.0000
  S   S2        1.0  0.57800  0.47600  0.01500  1.0000
  S   S3        1.0  0.52400  0.10200  0.01500  1.0000
  S   S4        1.0  0.90900  0.77700  0.30400  1.0000
  S   S5        1.0  0.86700  0.09070  0.30400  1.0000
  S   S6        1.0  0.22300  0.13300  0.30400  1.0000
  S   S7        1.0  0.66700  0.33300  0.49100  1.0000
  S   S8        1.0  0.10200  0.57800  0.51500  1.0000
  S   S9        1.0  0.42200  0.52400  0.51500  1.0000
  S   S10       1.0  0.47600  0.89800  0.51500  1.0000
  S   S11       1.0  0.09070  0.22300  0.80400  1.0000
  S   S12       1.0  0.77700  0.86700  0.80400  1.0000
  S   S13       1.0  0.13300  0.90900  0.80400  1.0000
  S   S14       1.0  0.33300  0.66700  0.99100  1.0000
  Sm  Sm1       1.0  0.60700  0.76300  0.23100  1.0000
  Sm  Sm2       1.0  0.23700  0.84500  0.23100  1.0000
  Sm  Sm3       1.0  0.15500  0.39300  0.23100  1.0000
  Sm  Sm4       1.0  0.39300  0.23700  0.73100  1.0000
  Sm  Sm5       1.0  0.76300  0.15500  0.73100  1.0000
  Sm  Sm6       1.0  0.84500  0.60700  0.73100  1.0000
