data_image0
_chemical_formula_structural       Ce6Cu2S14Sn2
_chemical_formula_sum              "Ce6 Cu2 S14 Sn2"
_cell_length_a       10.3518
_cell_length_b       10.3519
_cell_length_c       6.06087
_cell_angle_alpha    90
_cell_angle_beta     90
_cell_angle_gamma    120

_space_group_name_H-M_alt    "P 1"
_space_group_IT_number       1

loop_
  _space_group_symop_operation_xyz
  'x, y, z'

loop_
  _atom_site_type_symbol
  _atom_site_label
  _atom_site_symmetry_multiplicity
  _atom_site_fract_x
  _atom_site_fract_y
  _atom_site_fract_z
  _atom_site_occupancy
  Ce  Ce1       1.0  0.13000  0.35600  0.25500  1.0000
  Ce  Ce2       1.0  0.64400  0.77400  0.25500  1.0000
  Ce  Ce3       1.0  0.22600  0.87000  0.25500  1.0000
  Ce  Ce4       1.0  0.77400  0.13000  0.75500  1.0000
  Ce  Ce5       1.0  0.35600  0.22600  0.75500  1.0000
  Ce  Ce6       1.0  0.87000  0.64400  0.75500  1.0000
  Cu  Cu1       1.0  0.00000  0.00000  0.28800  1.0000
  Cu  Cu2       1.0  0.00000  0.00000  0.78800  1.0000
  S   S1        1.0  0.51400  0.09150  0.01000  1.0000
  S   S2        1.0  0.57800  0.48600  0.01000  1.0000
  S   S3        1.0  0.90900  0.42200  0.01000  1.0000
  S   S4        1.0  0.33300  0.66700  0.07030  1.0000
  S   S5        1.0  0.90700  0.74900  0.27900  1.0000
  S   S6        1.0  0.84200  0.09320  0.27900  1.0000
  S   S7        1.0  0.25100  0.15800  0.27900  1.0000
  S   S8        1.0  0.48600  0.90900  0.51000  1.0000
  S   S9        1.0  0.42200  0.51400  0.51000  1.0000
  S   S10       1.0  0.09150  0.57800  0.51000  1.0000
  S   S11       1.0  0.66700  0.33300  0.57000  1.0000
  S   S12       1.0  0.09320  0.25100  0.77900  1.0000
  S   S13       1.0  0.74900  0.84200  0.77900  1.0000
  S   S14       1.0  0.15800  0.90700  0.77900  1.0000
  Sn  Sn1       1.0  0.66700  0.33300  0.18000  1.0000
  Sn  Sn2       1.0  0.33300  0.66700  0.68000  1.0000
