data_image0
_chemical_formula_structural       B16Ru4Yb4
_chemical_formula_sum              "B16 Ru4 Yb4"
_cell_length_a       5.94072
_cell_length_b       11.5054
_cell_length_c       3.5261
_cell_angle_alpha    90
_cell_angle_beta     90
_cell_angle_gamma    90

_space_group_name_H-M_alt    "P 1"
_space_group_IT_number       1

loop_
  _space_group_symop_operation_xyz
  'x, y, z'

loop_
  _atom_site_type_symbol
  _atom_site_label
  _atom_site_symmetry_multiplicity
  _atom_site_fract_x
  _atom_site_fract_y
  _atom_site_fract_z
  _atom_site_occupancy
  B   B1        1.0  0.86500  0.03090  0.50000  1.0000
  B   B2        1.0  0.38700  0.04730  0.50000  1.0000
  B   B3        1.0  0.78700  0.18500  0.50000  1.0000
  B   B4        1.0  0.47600  0.19200  0.50000  1.0000
  B   B5        1.0  0.97600  0.30800  0.50000  1.0000
  B   B6        1.0  0.28700  0.31500  0.50000  1.0000
  B   B7        1.0  0.88700  0.45300  0.50000  1.0000
  B   B8        1.0  0.36500  0.46900  0.50000  1.0000
  B   B9        1.0  0.63500  0.53100  0.50000  1.0000
  B   B10       1.0  0.11300  0.54700  0.50000  1.0000
  B   B11       1.0  0.71300  0.68500  0.50000  1.0000
  B   B12       1.0  0.02420  0.69200  0.50000  1.0000
  B   B13       1.0  0.52400  0.80800  0.50000  1.0000
  B   B14       1.0  0.21300  0.81500  0.50000  1.0000
  B   B15       1.0  0.61300  0.95300  0.50000  1.0000
  B   B16       1.0  0.13500  0.96900  0.50000  1.0000
  Ru  Ru1       1.0  0.63500  0.08740  0.00000  1.0000
  Ru  Ru2       1.0  0.13500  0.41300  0.00000  1.0000
  Ru  Ru3       1.0  0.86500  0.58700  0.00000  1.0000
  Ru  Ru4       1.0  0.36500  0.91300  0.00000  1.0000
  Yb  Yb1       1.0  0.13000  0.15100  0.00000  1.0000
  Yb  Yb2       1.0  0.63000  0.34900  0.00000  1.0000
  Yb  Yb3       1.0  0.37000  0.65100  0.00000  1.0000
  Yb  Yb4       1.0  0.87000  0.84900  0.00000  1.0000
