data_image0
_chemical_formula_structural       Be2Cr2S14Y6
_chemical_formula_sum              "Be2 Cr2 S14 Y6"
_cell_length_a       9.56834
_cell_length_b       9.5683
_cell_length_c       6.0285
_cell_angle_alpha    90
_cell_angle_beta     90
_cell_angle_gamma    120

_space_group_name_H-M_alt    "P 1"
_space_group_IT_number       1

loop_
  _space_group_symop_operation_xyz
  'x, y, z'

loop_
  _atom_site_type_symbol
  _atom_site_label
  _atom_site_symmetry_multiplicity
  _atom_site_fract_x
  _atom_site_fract_y
  _atom_site_fract_z
  _atom_site_occupancy
  Be  Be1       1.0  0.66700  0.33300  0.14100  1.0000
  Be  Be2       1.0  0.33300  0.66700  0.64100  1.0000
  Cr  Cr1       1.0  0.00000  0.00000  0.05420  1.0000
  Cr  Cr2       1.0  0.00000  0.00000  0.55400  1.0000
  S   S1        1.0  0.57800  0.47800  0.00900  1.0000
  S   S2        1.0  0.52200  0.10100  0.00900  1.0000
  S   S3        1.0  0.89900  0.42200  0.00900  1.0000
  S   S4        1.0  0.22700  0.13200  0.31100  1.0000
  S   S5        1.0  0.90500  0.77300  0.31100  1.0000
  S   S6        1.0  0.86800  0.09460  0.31100  1.0000
  S   S7        1.0  0.66700  0.33300  0.49100  1.0000
  S   S8        1.0  0.42200  0.52200  0.50900  1.0000
  S   S9        1.0  0.10100  0.57800  0.50900  1.0000
  S   S10       1.0  0.47800  0.89900  0.50900  1.0000
  S   S11       1.0  0.09460  0.22700  0.81100  1.0000
  S   S12       1.0  0.77300  0.86800  0.81100  1.0000
  S   S13       1.0  0.13200  0.90500  0.81100  1.0000
  S   S14       1.0  0.33300  0.66700  0.99100  1.0000
  Y   Y1        1.0  0.15500  0.39400  0.22900  1.0000
  Y   Y2        1.0  0.23900  0.84500  0.22900  1.0000
  Y   Y3        1.0  0.60600  0.76100  0.22900  1.0000
  Y   Y4        1.0  0.76100  0.15500  0.72900  1.0000
  Y   Y5        1.0  0.84500  0.60600  0.72900  1.0000
  Y   Y6        1.0  0.39400  0.23900  0.72900  1.0000
