data_image0
_chemical_formula_structural       B16Gd4W4
_chemical_formula_sum              "B16 Gd4 W4"
_cell_length_a       6.05553
_cell_length_b       11.7085
_cell_length_c       3.64249
_cell_angle_alpha    90
_cell_angle_beta     90
_cell_angle_gamma    90

_space_group_name_H-M_alt    "P 1"
_space_group_IT_number       1

loop_
  _space_group_symop_operation_xyz
  'x, y, z'

loop_
  _atom_site_type_symbol
  _atom_site_label
  _atom_site_symmetry_multiplicity
  _atom_site_fract_x
  _atom_site_fract_y
  _atom_site_fract_z
  _atom_site_occupancy
  B   B1        1.0  0.86600  0.03220  0.50000  1.0000
  B   B2        1.0  0.38700  0.04700  0.50000  1.0000
  B   B3        1.0  0.78600  0.18600  0.50000  1.0000
  B   B4        1.0  0.47600  0.19300  0.50000  1.0000
  B   B5        1.0  0.97600  0.30700  0.50000  1.0000
  B   B6        1.0  0.28600  0.31400  0.50000  1.0000
  B   B7        1.0  0.88700  0.45300  0.50000  1.0000
  B   B8        1.0  0.36600  0.46800  0.50000  1.0000
  B   B9        1.0  0.63400  0.53200  0.50000  1.0000
  B   B10       1.0  0.11300  0.54700  0.50000  1.0000
  B   B11       1.0  0.71400  0.68600  0.50000  1.0000
  B   B12       1.0  0.02420  0.69300  0.50000  1.0000
  B   B13       1.0  0.52400  0.80700  0.50000  1.0000
  B   B14       1.0  0.21400  0.81400  0.50000  1.0000
  B   B15       1.0  0.61300  0.95300  0.50000  1.0000
  B   B16       1.0  0.13400  0.96800  0.50000  1.0000
  Gd  Gd1       1.0  0.12700  0.15000  0.00000  1.0000
  Gd  Gd2       1.0  0.62700  0.35000  0.00000  1.0000
  Gd  Gd3       1.0  0.37300  0.65000  0.00000  1.0000
  Gd  Gd4       1.0  0.87300  0.85000  0.00000  1.0000
  W   W1        1.0  0.63000  0.08420  0.00000  1.0000
  W   W2        1.0  0.13000  0.41600  0.00000  1.0000
  W   W3        1.0  0.87000  0.58400  0.00000  1.0000
  W   W4        1.0  0.37000  0.91600  0.00000  1.0000
