data_image0
_chemical_formula_structural       B16Pu4Ru4
_chemical_formula_sum              "B16 Pu4 Ru4"
_cell_length_a       5.97657
_cell_length_b       11.5872
_cell_length_c       3.53121
_cell_angle_alpha    90
_cell_angle_beta     90
_cell_angle_gamma    90

_space_group_name_H-M_alt    "P 1"
_space_group_IT_number       1

loop_
  _space_group_symop_operation_xyz
  'x, y, z'

loop_
  _atom_site_type_symbol
  _atom_site_label
  _atom_site_symmetry_multiplicity
  _atom_site_fract_x
  _atom_site_fract_y
  _atom_site_fract_z
  _atom_site_occupancy
  B   B1        1.0  0.86500  0.03150  0.50000  1.0000
  B   B2        1.0  0.38600  0.04690  0.50000  1.0000
  B   B3        1.0  0.78600  0.18700  0.50000  1.0000
  B   B4        1.0  0.47300  0.19200  0.50000  1.0000
  B   B5        1.0  0.97300  0.30800  0.50000  1.0000
  B   B6        1.0  0.28600  0.31300  0.50000  1.0000
  B   B7        1.0  0.88600  0.45300  0.50000  1.0000
  B   B8        1.0  0.36500  0.46800  0.50000  1.0000
  B   B9        1.0  0.63500  0.53200  0.50000  1.0000
  B   B10       1.0  0.11400  0.54700  0.50000  1.0000
  B   B11       1.0  0.71400  0.68700  0.50000  1.0000
  B   B12       1.0  0.02690  0.69200  0.50000  1.0000
  B   B13       1.0  0.52700  0.80800  0.50000  1.0000
  B   B14       1.0  0.21400  0.81300  0.50000  1.0000
  B   B15       1.0  0.61400  0.95300  0.50000  1.0000
  B   B16       1.0  0.13500  0.96800  0.50000  1.0000
  Pu  Pu1       1.0  0.12700  0.15000  0.00000  1.0000
  Pu  Pu2       1.0  0.62700  0.35000  0.00000  1.0000
  Pu  Pu3       1.0  0.37300  0.65000  0.00000  1.0000
  Pu  Pu4       1.0  0.87300  0.85000  0.00000  1.0000
  Ru  Ru1       1.0  0.63700  0.09160  0.00000  1.0000
  Ru  Ru2       1.0  0.13700  0.40800  0.00000  1.0000
  Ru  Ru3       1.0  0.86300  0.59200  0.00000  1.0000
  Ru  Ru4       1.0  0.36300  0.90800  0.00000  1.0000
