data_image0
_chemical_formula_structural       Be2Cr2Pr6S14
_chemical_formula_sum              "Be2 Cr2 Pr6 S14"
_cell_length_a       9.94054
_cell_length_b       9.94057
_cell_length_c       6.06475
_cell_angle_alpha    90
_cell_angle_beta     90
_cell_angle_gamma    120

_space_group_name_H-M_alt    "P 1"
_space_group_IT_number       1

loop_
  _space_group_symop_operation_xyz
  'x, y, z'

loop_
  _atom_site_type_symbol
  _atom_site_label
  _atom_site_symmetry_multiplicity
  _atom_site_fract_x
  _atom_site_fract_y
  _atom_site_fract_z
  _atom_site_occupancy
  Be  Be1       1.0  0.66700  0.33300  0.14500  1.0000
  Be  Be2       1.0  0.33300  0.66700  0.64500  1.0000
  Cr  Cr1       1.0  0.00000  0.00000  0.04190  1.0000
  Cr  Cr2       1.0  0.00000  0.00000  0.54200  1.0000
  Pr  Pr1       1.0  0.60800  0.76100  0.23200  1.0000
  Pr  Pr2       1.0  0.15300  0.39200  0.23200  1.0000
  Pr  Pr3       1.0  0.23900  0.84700  0.23200  1.0000
  Pr  Pr4       1.0  0.39200  0.23900  0.73200  1.0000
  Pr  Pr5       1.0  0.76100  0.15300  0.73200  1.0000
  Pr  Pr6       1.0  0.84700  0.60800  0.73200  1.0000
  S   S1        1.0  0.89400  0.41900  0.02100  1.0000
  S   S2        1.0  0.58100  0.47600  0.02100  1.0000
  S   S3        1.0  0.52400  0.10600  0.02100  1.0000
  S   S4        1.0  0.86800  0.08700  0.29800  1.0000
  S   S5        1.0  0.91300  0.78100  0.29800  1.0000
  S   S6        1.0  0.21900  0.13200  0.29800  1.0000
  S   S7        1.0  0.66700  0.33300  0.49100  1.0000
  S   S8        1.0  0.10600  0.58100  0.52100  1.0000
  S   S9        1.0  0.41900  0.52400  0.52100  1.0000
  S   S10       1.0  0.47600  0.89400  0.52100  1.0000
  S   S11       1.0  0.08700  0.21900  0.79800  1.0000
  S   S12       1.0  0.13200  0.91300  0.79800  1.0000
  S   S13       1.0  0.78100  0.86800  0.79800  1.0000
  S   S14       1.0  0.33300  0.66700  0.99100  1.0000
