data_image0
_chemical_formula_structural       Ce8P8S8
_chemical_formula_sum              "Ce8 P8 S8"
_cell_length_a       5.68014
_cell_length_b       5.59653
_cell_length_c       17.3997
_cell_angle_alpha    90
_cell_angle_beta     90
_cell_angle_gamma    90

_space_group_name_H-M_alt    "P 1"
_space_group_IT_number       1

loop_
  _space_group_symop_operation_xyz
  'x, y, z'

loop_
  _atom_site_type_symbol
  _atom_site_label
  _atom_site_symmetry_multiplicity
  _atom_site_fract_x
  _atom_site_fract_y
  _atom_site_fract_z
  _atom_site_occupancy
  Ce  Ce1       1.0  0.01660  0.75000  0.13800  1.0000
  Ce  Ce2       1.0  0.51700  0.25000  0.14800  1.0000
  Ce  Ce3       1.0  0.01700  0.25000  0.35200  1.0000
  Ce  Ce4       1.0  0.51700  0.75000  0.36200  1.0000
  Ce  Ce5       1.0  0.48300  0.25000  0.63800  1.0000
  Ce  Ce6       1.0  0.98300  0.75000  0.64800  1.0000
  Ce  Ce7       1.0  0.48300  0.75000  0.85200  1.0000
  Ce  Ce8       1.0  0.98300  0.25000  0.86200  1.0000
  P   P1        1.0  0.30800  0.04640  0.00257  1.0000
  P   P2        1.0  0.30800  0.45400  0.00257  1.0000
  P   P3        1.0  0.80800  0.04640  0.49700  1.0000
  P   P4        1.0  0.80800  0.45400  0.49700  1.0000
  P   P5        1.0  0.19200  0.54600  0.50300  1.0000
  P   P6        1.0  0.19200  0.95400  0.50300  1.0000
  P   P7        1.0  0.69200  0.54600  0.99700  1.0000
  P   P8        1.0  0.69200  0.95400  0.99700  1.0000
  S   S1        1.0  0.01260  0.25000  0.18200  1.0000
  S   S2        1.0  0.51500  0.75000  0.18900  1.0000
  S   S3        1.0  0.01480  0.75000  0.31100  1.0000
  S   S4        1.0  0.51300  0.25000  0.31800  1.0000
  S   S5        1.0  0.48700  0.75000  0.68200  1.0000
  S   S6        1.0  0.98500  0.25000  0.68900  1.0000
  S   S7        1.0  0.48500  0.25000  0.81100  1.0000
  S   S8        1.0  0.98700  0.75000  0.81800  1.0000
