data_image0
_chemical_formula_structural       Be2Cr2Er6S14
_chemical_formula_sum              "Be2 Cr2 Er6 S14"
_cell_length_a       9.46646
_cell_length_b       9.46649
_cell_length_c       6.01181
_cell_angle_alpha    90
_cell_angle_beta     90
_cell_angle_gamma    120

_space_group_name_H-M_alt    "P 1"
_space_group_IT_number       1

loop_
  _space_group_symop_operation_xyz
  'x, y, z'

loop_
  _atom_site_type_symbol
  _atom_site_label
  _atom_site_symmetry_multiplicity
  _atom_site_fract_x
  _atom_site_fract_y
  _atom_site_fract_z
  _atom_site_occupancy
  Be  Be1       1.0  0.66700  0.33300  0.14100  1.0000
  Be  Be2       1.0  0.33300  0.66700  0.64100  1.0000
  Cr  Cr1       1.0  0.00000  0.00000  0.05530  1.0000
  Cr  Cr2       1.0  0.00000  0.00000  0.55500  1.0000
  Er  Er1       1.0  0.15800  0.39500  0.22900  1.0000
  Er  Er2       1.0  0.23700  0.84200  0.22900  1.0000
  Er  Er3       1.0  0.60500  0.76300  0.22900  1.0000
  Er  Er4       1.0  0.76300  0.15800  0.72900  1.0000
  Er  Er5       1.0  0.84200  0.60500  0.72900  1.0000
  Er  Er6       1.0  0.39500  0.23700  0.72900  1.0000
  S   S1        1.0  0.90200  0.42500  0.00740  1.0000
  S   S2        1.0  0.57500  0.47700  0.00741  1.0000
  S   S3        1.0  0.52300  0.09820  0.00741  1.0000
  S   S4        1.0  0.86800  0.09770  0.31200  1.0000
  S   S5        1.0  0.23000  0.13200  0.31200  1.0000
  S   S6        1.0  0.90200  0.77000  0.31200  1.0000
  S   S7        1.0  0.66700  0.33300  0.49200  1.0000
  S   S8        1.0  0.09820  0.57500  0.50700  1.0000
  S   S9        1.0  0.42500  0.52300  0.50700  1.0000
  S   S10       1.0  0.47700  0.90200  0.50700  1.0000
  S   S11       1.0  0.13200  0.90200  0.81200  1.0000
  S   S12       1.0  0.09770  0.23000  0.81200  1.0000
  S   S13       1.0  0.77000  0.86800  0.81200  1.0000
  S   S14       1.0  0.33300  0.66700  0.99200  1.0000
