data_image0
_chemical_formula_structural       B16Pu4Tc4
_chemical_formula_sum              "B16 Pu4 Tc4"
_cell_length_a       5.97024
_cell_length_b       11.5558
_cell_length_c       3.57077
_cell_angle_alpha    90
_cell_angle_beta     90
_cell_angle_gamma    90

_space_group_name_H-M_alt    "P 1"
_space_group_IT_number       1

loop_
  _space_group_symop_operation_xyz
  'x, y, z'

loop_
  _atom_site_type_symbol
  _atom_site_label
  _atom_site_symmetry_multiplicity
  _atom_site_fract_x
  _atom_site_fract_y
  _atom_site_fract_z
  _atom_site_occupancy
  B   B1        1.0  0.86500  0.03170  0.50000  1.0000
  B   B2        1.0  0.38600  0.04700  0.50000  1.0000
  B   B3        1.0  0.78700  0.18700  0.50000  1.0000
  B   B4        1.0  0.47300  0.19200  0.50000  1.0000
  B   B5        1.0  0.97300  0.30800  0.50000  1.0000
  B   B6        1.0  0.28700  0.31300  0.50000  1.0000
  B   B7        1.0  0.88600  0.45300  0.50000  1.0000
  B   B8        1.0  0.36500  0.46800  0.50000  1.0000
  B   B9        1.0  0.63500  0.53200  0.50000  1.0000
  B   B10       1.0  0.11400  0.54700  0.50000  1.0000
  B   B11       1.0  0.71300  0.68700  0.50000  1.0000
  B   B12       1.0  0.02660  0.69200  0.50000  1.0000
  B   B13       1.0  0.52700  0.80800  0.50000  1.0000
  B   B14       1.0  0.21300  0.81300  0.50000  1.0000
  B   B15       1.0  0.61400  0.95300  0.50000  1.0000
  B   B16       1.0  0.13500  0.96800  0.50000  1.0000
  Pu  Pu1       1.0  0.12600  0.15000  0.00000  1.0000
  Pu  Pu2       1.0  0.62600  0.35000  0.00000  1.0000
  Pu  Pu3       1.0  0.37400  0.65000  0.00000  1.0000
  Pu  Pu4       1.0  0.87400  0.85000  0.00000  1.0000
  Tc  Tc1       1.0  0.63500  0.09020  0.00000  1.0000
  Tc  Tc2       1.0  0.13500  0.41000  0.00000  1.0000
  Tc  Tc3       1.0  0.86500  0.59000  0.00000  1.0000
  Tc  Tc4       1.0  0.36500  0.91000  0.00000  1.0000
