data_image0
_chemical_formula_structural       B16Re4U4
_chemical_formula_sum              "B16 Re4 U4"
_cell_length_a       5.93591
_cell_length_b       11.4253
_cell_length_c       3.60503
_cell_angle_alpha    90
_cell_angle_beta     90
_cell_angle_gamma    90

_space_group_name_H-M_alt    "P 1"
_space_group_IT_number       1

loop_
  _space_group_symop_operation_xyz
  'x, y, z'

loop_
  _atom_site_type_symbol
  _atom_site_label
  _atom_site_symmetry_multiplicity
  _atom_site_fract_x
  _atom_site_fract_y
  _atom_site_fract_z
  _atom_site_occupancy
  B   B1        1.0  0.86800  0.03260  0.50000  1.0000
  B   B2        1.0  0.38500  0.04680  0.50000  1.0000
  B   B3        1.0  0.79000  0.18900  0.50000  1.0000
  B   B4        1.0  0.47100  0.19300  0.50000  1.0000
  B   B5        1.0  0.97100  0.30700  0.50000  1.0000
  B   B6        1.0  0.29000  0.31100  0.50000  1.0000
  B   B7        1.0  0.88500  0.45300  0.50000  1.0000
  B   B8        1.0  0.36800  0.46700  0.50000  1.0000
  B   B9        1.0  0.63200  0.53300  0.50000  1.0000
  B   B10       1.0  0.11500  0.54700  0.50000  1.0000
  B   B11       1.0  0.71000  0.68900  0.50000  1.0000
  B   B12       1.0  0.02860  0.69300  0.50000  1.0000
  B   B13       1.0  0.52900  0.80700  0.50000  1.0000
  B   B14       1.0  0.21000  0.81100  0.50000  1.0000
  B   B15       1.0  0.61500  0.95300  0.50000  1.0000
  B   B16       1.0  0.13200  0.96700  0.50000  1.0000
  Re  Re1       1.0  0.64000  0.09390  0.00000  1.0000
  Re  Re2       1.0  0.14000  0.40600  0.00000  1.0000
  Re  Re3       1.0  0.86000  0.59400  0.00000  1.0000
  Re  Re4       1.0  0.36000  0.90600  0.00000  1.0000
  U   U1        1.0  0.12800  0.15000  0.00000  1.0000
  U   U2        1.0  0.62800  0.35000  0.00000  1.0000
  U   U3        1.0  0.37200  0.65000  0.00000  1.0000
  U   U4        1.0  0.87200  0.85000  0.00000  1.0000
