data_image0
_chemical_formula_structural       B16Gd4Ni4
_chemical_formula_sum              "B16 Gd4 Ni4"
_cell_length_a       6.8442
_cell_length_b       6.8442
_cell_length_c       6.8442
_cell_angle_alpha    102.789
_cell_angle_beta     112.912
_cell_angle_gamma    112.912

_space_group_name_H-M_alt    "P 1"
_space_group_IT_number       1

loop_
  _space_group_symop_operation_xyz
  'x, y, z'

loop_
  _atom_site_type_symbol
  _atom_site_label
  _atom_site_symmetry_multiplicity
  _atom_site_fract_x
  _atom_site_fract_y
  _atom_site_fract_z
  _atom_site_occupancy
  B   B1        1.0  0.83600  0.72400  0.11200  1.0000
  B   B2        1.0  0.38700  0.27600  0.11200  1.0000
  B   B3        1.0  0.53200  0.11300  0.11300  1.0000
  B   B4        1.0  0.00000  0.58200  0.11300  1.0000
  B   B5        1.0  0.38700  0.11200  0.27600  1.0000
  B   B6        1.0  0.16400  0.88800  0.27600  1.0000
  B   B7        1.0  0.53200  0.41800  0.41800  1.0000
  B   B8        1.0  0.00000  0.88700  0.41800  1.0000
  B   B9        1.0  0.00000  0.11300  0.58200  1.0000
  B   B10       1.0  0.46800  0.58200  0.58200  1.0000
  B   B11       1.0  0.61300  0.88800  0.72400  1.0000
  B   B12       1.0  0.83600  0.11200  0.72400  1.0000
  B   B13       1.0  0.00000  0.41800  0.88700  1.0000
  B   B14       1.0  0.46800  0.88700  0.88700  1.0000
  B   B15       1.0  0.16400  0.27600  0.88800  1.0000
  B   B16       1.0  0.61300  0.72400  0.88800  1.0000
  Gd  Gd1       1.0  0.00000  0.20300  0.20300  1.0000
  Gd  Gd2       1.0  0.50000  0.75000  0.25000  1.0000
  Gd  Gd3       1.0  0.50000  0.25000  0.75000  1.0000
  Gd  Gd4       1.0  0.00000  0.79700  0.79700  1.0000
  Ni  Ni1       1.0  0.77200  0.50000  0.27200  1.0000
  Ni  Ni2       1.0  0.22800  0.72800  0.50000  1.0000
  Ni  Ni3       1.0  0.77200  0.27200  0.50000  1.0000
  Ni  Ni4       1.0  0.22800  0.50000  0.72800  1.0000
