data_image0
_chemical_formula_structural       B16Mo4Pu4
_chemical_formula_sum              "B16 Mo4 Pu4"
_cell_length_a       6.01036
_cell_length_b       11.6499
_cell_length_c       3.62365
_cell_angle_alpha    90
_cell_angle_beta     90
_cell_angle_gamma    90

_space_group_name_H-M_alt    "P 1"
_space_group_IT_number       1

loop_
  _space_group_symop_operation_xyz
  'x, y, z'

loop_
  _atom_site_type_symbol
  _atom_site_label
  _atom_site_symmetry_multiplicity
  _atom_site_fract_x
  _atom_site_fract_y
  _atom_site_fract_z
  _atom_site_occupancy
  B   B1        1.0  0.86600  0.03220  0.50000  1.0000
  B   B2        1.0  0.38400  0.04740  0.50000  1.0000
  B   B3        1.0  0.78600  0.18700  0.50000  1.0000
  B   B4        1.0  0.47300  0.19300  0.50000  1.0000
  B   B5        1.0  0.97300  0.30700  0.50000  1.0000
  B   B6        1.0  0.28600  0.31300  0.50000  1.0000
  B   B7        1.0  0.88400  0.45300  0.50000  1.0000
  B   B8        1.0  0.36600  0.46800  0.50000  1.0000
  B   B9        1.0  0.63400  0.53200  0.50000  1.0000
  B   B10       1.0  0.11600  0.54700  0.50000  1.0000
  B   B11       1.0  0.71400  0.68700  0.50000  1.0000
  B   B12       1.0  0.02660  0.69300  0.50000  1.0000
  B   B13       1.0  0.52700  0.80700  0.50000  1.0000
  B   B14       1.0  0.21400  0.81300  0.50000  1.0000
  B   B15       1.0  0.61600  0.95300  0.50000  1.0000
  B   B16       1.0  0.13400  0.96800  0.50000  1.0000
  Mo  Mo1       1.0  0.63100  0.08580  0.00000  1.0000
  Mo  Mo2       1.0  0.13100  0.41400  0.00000  1.0000
  Mo  Mo3       1.0  0.86900  0.58600  0.00000  1.0000
  Mo  Mo4       1.0  0.36900  0.91400  0.00000  1.0000
  Pu  Pu1       1.0  0.12500  0.15000  0.00000  1.0000
  Pu  Pu2       1.0  0.62500  0.35000  0.00000  1.0000
  Pu  Pu3       1.0  0.37500  0.65000  0.00000  1.0000
  Pu  Pu4       1.0  0.87500  0.85000  0.00000  1.0000
