data_image0
_chemical_formula_structural       B16Fe4Sc4
_chemical_formula_sum              "B16 Fe4 Sc4"
_cell_length_a       5.76121
_cell_length_b       11.1248
_cell_length_c       3.22273
_cell_angle_alpha    90
_cell_angle_beta     90
_cell_angle_gamma    90

_space_group_name_H-M_alt    "P 1"
_space_group_IT_number       1

loop_
  _space_group_symop_operation_xyz
  'x, y, z'

loop_
  _atom_site_type_symbol
  _atom_site_label
  _atom_site_symmetry_multiplicity
  _atom_site_fract_x
  _atom_site_fract_y
  _atom_site_fract_z
  _atom_site_occupancy
  B   B1        1.0  0.86500  0.03100  0.50000  1.0000
  B   B2        1.0  0.38600  0.04800  0.50000  1.0000
  B   B3        1.0  0.78800  0.18500  0.50000  1.0000
  B   B4        1.0  0.47700  0.19400  0.50000  1.0000
  B   B5        1.0  0.97700  0.30600  0.50000  1.0000
  B   B6        1.0  0.28800  0.31500  0.50000  1.0000
  B   B7        1.0  0.88600  0.45200  0.50000  1.0000
  B   B8        1.0  0.36500  0.46900  0.50000  1.0000
  B   B9        1.0  0.63500  0.53100  0.50000  1.0000
  B   B10       1.0  0.11400  0.54800  0.50000  1.0000
  B   B11       1.0  0.71200  0.68500  0.50000  1.0000
  B   B12       1.0  0.02290  0.69400  0.50000  1.0000
  B   B13       1.0  0.52300  0.80600  0.50000  1.0000
  B   B14       1.0  0.21200  0.81500  0.50000  1.0000
  B   B15       1.0  0.61400  0.95200  0.50000  1.0000
  B   B16       1.0  0.13500  0.96900  0.50000  1.0000
  Fe  Fe1       1.0  0.63400  0.08900  0.00000  1.0000
  Fe  Fe2       1.0  0.13400  0.41100  0.00000  1.0000
  Fe  Fe3       1.0  0.86600  0.58900  0.00000  1.0000
  Fe  Fe4       1.0  0.36600  0.91100  0.00000  1.0000
  Sc  Sc1       1.0  0.12900  0.15000  0.00000  1.0000
  Sc  Sc2       1.0  0.62900  0.35000  0.00000  1.0000
  Sc  Sc3       1.0  0.37100  0.65000  0.00000  1.0000
  Sc  Sc4       1.0  0.87100  0.85000  0.00000  1.0000
