data_image0
_chemical_formula_structural       Be2Cr2Nd6S14
_chemical_formula_sum              "Be2 Cr2 Nd6 S14"
_cell_length_a       9.87402
_cell_length_b       9.87401
_cell_length_c       6.06277
_cell_angle_alpha    90
_cell_angle_beta     90
_cell_angle_gamma    120

_space_group_name_H-M_alt    "P 1"
_space_group_IT_number       1

loop_
  _space_group_symop_operation_xyz
  'x, y, z'

loop_
  _atom_site_type_symbol
  _atom_site_label
  _atom_site_symmetry_multiplicity
  _atom_site_fract_x
  _atom_site_fract_y
  _atom_site_fract_z
  _atom_site_occupancy
  Be  Be1       1.0  0.66700  0.33300  0.14300  1.0000
  Be  Be2       1.0  0.33300  0.66700  0.64300  1.0000
  Cr  Cr1       1.0  0.00000  0.00000  0.04710  1.0000
  Cr  Cr2       1.0  0.00000  0.00000  0.54700  1.0000
  Nd  Nd1       1.0  0.60700  0.76300  0.23100  1.0000
  Nd  Nd2       1.0  0.15500  0.39300  0.23100  1.0000
  Nd  Nd3       1.0  0.23700  0.84500  0.23100  1.0000
  Nd  Nd4       1.0  0.39300  0.23700  0.73100  1.0000
  Nd  Nd5       1.0  0.76300  0.15500  0.73100  1.0000
  Nd  Nd6       1.0  0.84500  0.60700  0.73100  1.0000
  S   S1        1.0  0.89600  0.42100  0.01700  1.0000
  S   S2        1.0  0.57900  0.47500  0.01700  1.0000
  S   S3        1.0  0.52500  0.10400  0.01700  1.0000
  S   S4        1.0  0.86800  0.08870  0.30300  1.0000
  S   S5        1.0  0.91100  0.77900  0.30300  1.0000
  S   S6        1.0  0.22100  0.13200  0.30300  1.0000
  S   S7        1.0  0.66700  0.33300  0.48900  1.0000
  S   S8        1.0  0.10400  0.57900  0.51700  1.0000
  S   S9        1.0  0.42100  0.52500  0.51700  1.0000
  S   S10       1.0  0.47500  0.89600  0.51700  1.0000
  S   S11       1.0  0.08870  0.22100  0.80300  1.0000
  S   S12       1.0  0.13200  0.91100  0.80300  1.0000
  S   S13       1.0  0.77900  0.86800  0.80300  1.0000
  S   S14       1.0  0.33300  0.66700  0.98900  1.0000
