data_image0
_chemical_formula_structural       B16Os4Yb4
_chemical_formula_sum              "B16 Os4 Yb4"
_cell_length_a       5.94283
_cell_length_b       11.5057
_cell_length_c       3.53209
_cell_angle_alpha    90
_cell_angle_beta     90
_cell_angle_gamma    90

_space_group_name_H-M_alt    "P 1"
_space_group_IT_number       1

loop_
  _space_group_symop_operation_xyz
  'x, y, z'

loop_
  _atom_site_type_symbol
  _atom_site_label
  _atom_site_symmetry_multiplicity
  _atom_site_fract_x
  _atom_site_fract_y
  _atom_site_fract_z
  _atom_site_occupancy
  B   B1        1.0  0.86400  0.03060  0.50000  1.0000
  B   B2        1.0  0.38600  0.04750  0.50000  1.0000
  B   B3        1.0  0.78600  0.18500  0.50000  1.0000
  B   B4        1.0  0.47500  0.19200  0.50000  1.0000
  B   B5        1.0  0.97500  0.30800  0.50000  1.0000
  B   B6        1.0  0.28600  0.31500  0.50000  1.0000
  B   B7        1.0  0.88600  0.45300  0.50000  1.0000
  B   B8        1.0  0.36400  0.46900  0.50000  1.0000
  B   B9        1.0  0.63600  0.53100  0.50000  1.0000
  B   B10       1.0  0.11400  0.54700  0.50000  1.0000
  B   B11       1.0  0.71400  0.68500  0.50000  1.0000
  B   B12       1.0  0.02500  0.69200  0.50000  1.0000
  B   B13       1.0  0.52500  0.80800  0.50000  1.0000
  B   B14       1.0  0.21400  0.81500  0.50000  1.0000
  B   B15       1.0  0.61400  0.95300  0.50000  1.0000
  B   B16       1.0  0.13600  0.96900  0.50000  1.0000
  Os  Os1       1.0  0.63600  0.08850  0.00000  1.0000
  Os  Os2       1.0  0.13600  0.41200  0.00000  1.0000
  Os  Os3       1.0  0.86400  0.58800  0.00000  1.0000
  Os  Os4       1.0  0.36400  0.91200  0.00000  1.0000
  Yb  Yb1       1.0  0.12900  0.15000  0.00000  1.0000
  Yb  Yb2       1.0  0.62900  0.35000  0.00000  1.0000
  Yb  Yb3       1.0  0.37100  0.65000  0.00000  1.0000
  Yb  Yb4       1.0  0.87100  0.85000  0.00000  1.0000
