data_image0
_chemical_formula_structural       Cu8Zn4Zr12
_chemical_formula_sum              "Cu8 Zn4 Zr12"
_cell_length_a       8.41566
_cell_length_b       8.41566
_cell_length_c       8.41566
_cell_angle_alpha    120
_cell_angle_beta     90
_cell_angle_gamma    120

_space_group_name_H-M_alt    "P 1"
_space_group_IT_number       1

loop_
  _space_group_symop_operation_xyz
  'x, y, z'

loop_
  _atom_site_type_symbol
  _atom_site_label
  _atom_site_symmetry_multiplicity
  _atom_site_fract_x
  _atom_site_fract_y
  _atom_site_fract_z
  _atom_site_occupancy
  Cu  Cu1       1.0  0.70500  0.91100  0.11600  1.0000
  Cu  Cu2       1.0  0.29500  0.08910  0.20500  1.0000
  Cu  Cu3       1.0  0.29500  0.41100  0.20500  1.0000
  Cu  Cu4       1.0  0.61600  0.41100  0.20500  1.0000
  Cu  Cu5       1.0  0.70500  0.58900  0.79500  1.0000
  Cu  Cu6       1.0  0.70500  0.91100  0.79500  1.0000
  Cu  Cu7       1.0  0.38400  0.58900  0.79500  1.0000
  Cu  Cu8       1.0  0.29500  0.08910  0.88400  1.0000
  Zn  Zn1       1.0  0.00000  0.00000  0.00000  1.0000
  Zn  Zn2       1.0  0.50000  0.00000  0.00000  1.0000
  Zn  Zn3       1.0  0.50000  0.50000  0.00000  1.0000
  Zn  Zn4       1.0  0.50000  0.50000  0.50000  1.0000
  Zr  Zr1       1.0  0.32200  0.75000  0.17800  1.0000
  Zr  Zr2       1.0  0.92800  0.35600  0.17800  1.0000
  Zr  Zr3       1.0  0.92800  0.75000  0.17800  1.0000
  Zr  Zr4       1.0  0.67800  0.85600  0.42800  1.0000
  Zr  Zr5       1.0  0.07180  0.25000  0.42800  1.0000
  Zr  Zr6       1.0  0.67800  0.25000  0.42800  1.0000
  Zr  Zr7       1.0  0.92800  0.75000  0.57200  1.0000
  Zr  Zr8       1.0  0.32200  0.14400  0.57200  1.0000
  Zr  Zr9       1.0  0.32200  0.75000  0.57200  1.0000
  Zr  Zr10      1.0  0.07180  0.25000  0.82200  1.0000
  Zr  Zr11      1.0  0.07180  0.64400  0.82200  1.0000
  Zr  Zr12      1.0  0.67800  0.25000  0.82200  1.0000
