data_image0
_chemical_formula_structural       Cu8Hf12Zn4
_chemical_formula_sum              "Cu8 Hf12 Zn4"
_cell_length_a       8.33899
_cell_length_b       8.33899
_cell_length_c       8.33899
_cell_angle_alpha    120
_cell_angle_beta     90
_cell_angle_gamma    120

_space_group_name_H-M_alt    "P 1"
_space_group_IT_number       1

loop_
  _space_group_symop_operation_xyz
  'x, y, z'

loop_
  _atom_site_type_symbol
  _atom_site_label
  _atom_site_symmetry_multiplicity
  _atom_site_fract_x
  _atom_site_fract_y
  _atom_site_fract_z
  _atom_site_occupancy
  Cu  Cu1       1.0  0.70800  0.91500  0.12300  1.0000
  Cu  Cu2       1.0  0.29200  0.08460  0.20800  1.0000
  Cu  Cu3       1.0  0.29200  0.41500  0.20800  1.0000
  Cu  Cu4       1.0  0.62300  0.41500  0.20800  1.0000
  Cu  Cu5       1.0  0.37700  0.58500  0.79200  1.0000
  Cu  Cu6       1.0  0.70800  0.58500  0.79200  1.0000
  Cu  Cu7       1.0  0.70800  0.91500  0.79200  1.0000
  Cu  Cu8       1.0  0.29200  0.08460  0.87700  1.0000
  Hf  Hf1       1.0  0.32100  0.75000  0.17900  1.0000
  Hf  Hf2       1.0  0.92900  0.35800  0.17900  1.0000
  Hf  Hf3       1.0  0.92900  0.75000  0.17900  1.0000
  Hf  Hf4       1.0  0.67900  0.25000  0.42900  1.0000
  Hf  Hf5       1.0  0.67900  0.85800  0.42900  1.0000
  Hf  Hf6       1.0  0.07080  0.25000  0.42900  1.0000
  Hf  Hf7       1.0  0.92900  0.75000  0.57100  1.0000
  Hf  Hf8       1.0  0.32100  0.14200  0.57100  1.0000
  Hf  Hf9       1.0  0.32100  0.75000  0.57100  1.0000
  Hf  Hf10      1.0  0.07080  0.25000  0.82100  1.0000
  Hf  Hf11      1.0  0.67900  0.25000  0.82100  1.0000
  Hf  Hf12      1.0  0.07080  0.64200  0.82100  1.0000
  Zn  Zn1       1.0  0.00000  0.00000  0.00000  1.0000
  Zn  Zn2       1.0  0.50000  0.00000  0.00000  1.0000
  Zn  Zn3       1.0  0.50000  0.50000  0.00000  1.0000
  Zn  Zn4       1.0  0.50000  0.50000  0.50000  1.0000
