data_image0
_chemical_formula_structural       Al2Dy6Mn2S14
_chemical_formula_sum              "Al2 Dy6 Mn2 S14"
_cell_length_a       9.66264
_cell_length_b       9.66194
_cell_length_c       6.15836
_cell_angle_alpha    90
_cell_angle_beta     90
_cell_angle_gamma    120

_space_group_name_H-M_alt    "P 1"
_space_group_IT_number       1

loop_
  _space_group_symop_operation_xyz
  'x, y, z'

loop_
  _atom_site_type_symbol
  _atom_site_label
  _atom_site_symmetry_multiplicity
  _atom_site_fract_x
  _atom_site_fract_y
  _atom_site_fract_z
  _atom_site_occupancy
  Al  Al1       1.0  0.66700  0.33300  0.15700  1.0000
  Al  Al2       1.0  0.33300  0.66700  0.65700  1.0000
  Dy  Dy1       1.0  0.15200  0.37900  0.23400  1.0000
  Dy  Dy2       1.0  0.22700  0.84800  0.23400  1.0000
  Dy  Dy3       1.0  0.62100  0.77300  0.23400  1.0000
  Dy  Dy4       1.0  0.84800  0.62100  0.73400  1.0000
  Dy  Dy5       1.0  0.77300  0.15200  0.73400  1.0000
  Dy  Dy6       1.0  0.37900  0.22700  0.73400  1.0000
  Mn  Mn1       1.0  0.00000  0.00000  0.04480  1.0000
  Mn  Mn2       1.0  0.00000  0.00000  0.54500  1.0000
  S   S1        1.0  0.57200  0.48100  0.00034  1.0000
  S   S2        1.0  0.51900  0.09160  0.00035  1.0000
  S   S3        1.0  0.90800  0.42800  0.00035  1.0000
  S   S4        1.0  0.33300  0.66700  0.02170  1.0000
  S   S5        1.0  0.24400  0.14000  0.31900  1.0000
  S   S6        1.0  0.89500  0.75600  0.31900  1.0000
  S   S7        1.0  0.86000  0.10500  0.31900  1.0000
  S   S8        1.0  0.42800  0.51900  0.50000  1.0000
  S   S9        1.0  0.48100  0.90800  0.50000  1.0000
  S   S10       1.0  0.09160  0.57200  0.50000  1.0000
  S   S11       1.0  0.66700  0.33300  0.52200  1.0000
  S   S12       1.0  0.75600  0.86000  0.81900  1.0000
  S   S13       1.0  0.10500  0.24400  0.81900  1.0000
  S   S14       1.0  0.14000  0.89500  0.81900  1.0000
