data_image0
_chemical_formula_structural       Li2O16W4Yb2
_chemical_formula_sum              "Li2 O16 W4 Yb2"
_cell_length_a       9.89086
_cell_length_b       5.77005
_cell_length_c       5.00092
_cell_angle_alpha    90
_cell_angle_beta     93.1513
_cell_angle_gamma    90

_space_group_name_H-M_alt    "P 1"
_space_group_IT_number       1

loop_
  _space_group_symop_operation_xyz
  'x, y, z'

loop_
  _atom_site_type_symbol
  _atom_site_label
  _atom_site_symmetry_multiplicity
  _atom_site_fract_x
  _atom_site_fract_y
  _atom_site_fract_z
  _atom_site_occupancy
  Li  Li1       1.0  0.75000  0.68200  0.25000  1.0000
  Li  Li2       1.0  0.25000  0.31800  0.75000  1.0000
  O   O1        1.0  0.89200  0.90900  0.04680  1.0000
  O   O2        1.0  0.40200  0.89400  0.05200  1.0000
  O   O3        1.0  0.36400  0.36700  0.09010  1.0000
  O   O4        1.0  0.88500  0.38900  0.11900  1.0000
  O   O5        1.0  0.61500  0.38900  0.38100  1.0000
  O   O6        1.0  0.13600  0.36700  0.41000  1.0000
  O   O7        1.0  0.09750  0.89400  0.44800  1.0000
  O   O8        1.0  0.60800  0.90900  0.45300  1.0000
  O   O9        1.0  0.39200  0.09080  0.54700  1.0000
  O   O10       1.0  0.90200  0.10600  0.55200  1.0000
  O   O11       1.0  0.86400  0.63300  0.59000  1.0000
  O   O12       1.0  0.38500  0.61100  0.61900  1.0000
  O   O13       1.0  0.11500  0.61100  0.88100  1.0000
  O   O14       1.0  0.63600  0.63300  0.91000  1.0000
  O   O15       1.0  0.59800  0.10600  0.94800  1.0000
  O   O16       1.0  0.10800  0.09080  0.95300  1.0000
  W   W1        1.0  0.49100  0.18600  0.24800  1.0000
  W   W2        1.0  0.00873  0.18600  0.25200  1.0000
  W   W3        1.0  0.99100  0.81400  0.74800  1.0000
  W   W4        1.0  0.50900  0.81400  0.75200  1.0000
  Yb  Yb1       1.0  0.25000  0.68300  0.25000  1.0000
  Yb  Yb2       1.0  0.75000  0.31700  0.75000  1.0000
