data_image0
_chemical_formula_structural       Yb2Zn22
_chemical_formula_sum              "Yb2 Zn22"
_cell_length_a       6.79133
_cell_length_b       8.22119
_cell_length_c       8.22119
_cell_angle_alpha    99.8227
_cell_angle_beta     65.6042
_cell_angle_gamma    114.396

_space_group_name_H-M_alt    "P 1"
_space_group_IT_number       1

loop_
  _space_group_symop_operation_xyz
  'x, y, z'

loop_
  _atom_site_type_symbol
  _atom_site_label
  _atom_site_symmetry_multiplicity
  _atom_site_fract_x
  _atom_site_fract_y
  _atom_site_fract_z
  _atom_site_occupancy
  Yb  Yb1       1.0  0.12500  0.75000  0.25000  1.0000
  Yb  Yb2       1.0  0.87500  0.25000  0.75000  1.0000
  Zn  Zn1       1.0  0.00000  0.00000  0.00000  1.0000
  Zn  Zn2       1.0  0.50000  0.50000  0.00000  1.0000
  Zn  Zn3       1.0  0.05630  0.33500  0.07670  1.0000
  Zn  Zn4       1.0  0.36700  0.16500  0.07670  1.0000
  Zn  Zn5       1.0  0.70200  0.42300  0.16500  1.0000
  Zn  Zn6       1.0  0.63300  0.07670  0.16500  1.0000
  Zn  Zn7       1.0  0.62500  0.75000  0.25000  1.0000
  Zn  Zn8       1.0  0.94400  0.07670  0.33500  1.0000
  Zn  Zn9       1.0  0.22100  0.42300  0.33500  1.0000
  Zn  Zn10      1.0  0.77900  0.33500  0.42300  1.0000
  Zn  Zn11      1.0  0.29800  0.16500  0.42300  1.0000
  Zn  Zn12      1.0  0.50000  0.00000  0.50000  1.0000
  Zn  Zn13      1.0  0.50000  0.50000  0.50000  1.0000
  Zn  Zn14      1.0  0.70200  0.83500  0.57700  1.0000
  Zn  Zn15      1.0  0.22100  0.66500  0.57700  1.0000
  Zn  Zn16      1.0  0.77900  0.57700  0.66500  1.0000
  Zn  Zn17      1.0  0.05630  0.92300  0.66500  1.0000
  Zn  Zn18      1.0  0.37500  0.25000  0.75000  1.0000
  Zn  Zn19      1.0  0.36700  0.92300  0.83500  1.0000
  Zn  Zn20      1.0  0.29800  0.57700  0.83500  1.0000
  Zn  Zn21      1.0  0.63300  0.83500  0.92300  1.0000
  Zn  Zn22      1.0  0.94400  0.66500  0.92300  1.0000
