data_image0
_chemical_formula_structural       H8O12Se4
_chemical_formula_sum              "H8 O12 Se4"
_cell_length_a       8.77403
_cell_length_b       5.73491
_cell_length_c       4.97113
_cell_angle_alpha    90
_cell_angle_beta     90
_cell_angle_gamma    90

_space_group_name_H-M_alt    "P 1"
_space_group_IT_number       1

loop_
  _space_group_symop_operation_xyz
  'x, y, z'

loop_
  _atom_site_type_symbol
  _atom_site_label
  _atom_site_symmetry_multiplicity
  _atom_site_fract_x
  _atom_site_fract_y
  _atom_site_fract_z
  _atom_site_occupancy
  H   H1        1.0  0.04150  0.92800  0.15800  1.0000
  H   H2        1.0  0.38600  0.69000  0.17700  1.0000
  H   H3        1.0  0.61400  0.19000  0.32300  1.0000
  H   H4        1.0  0.95800  0.42800  0.34200  1.0000
  H   H5        1.0  0.45800  0.07200  0.65800  1.0000
  H   H6        1.0  0.11400  0.31000  0.67700  1.0000
  H   H7        1.0  0.88600  0.81000  0.82300  1.0000
  H   H8        1.0  0.54200  0.57200  0.84200  1.0000
  O   O1        1.0  0.57500  0.17600  0.13100  1.0000
  O   O2        1.0  0.87500  0.88200  0.13400  1.0000
  O   O3        1.0  0.16000  0.94700  0.15100  1.0000
  O   O4        1.0  0.84000  0.44700  0.34900  1.0000
  O   O5        1.0  0.12500  0.38200  0.36600  1.0000
  O   O6        1.0  0.42500  0.67600  0.36900  1.0000
  O   O7        1.0  0.92500  0.82400  0.63100  1.0000
  O   O8        1.0  0.62500  0.11800  0.63400  1.0000
  O   O9        1.0  0.34000  0.05310  0.65100  1.0000
  O   O10       1.0  0.66000  0.55300  0.84900  1.0000
  O   O11       1.0  0.37500  0.61800  0.86600  1.0000
  O   O12       1.0  0.07490  0.32400  0.86900  1.0000
  Se  Se1       1.0  0.21400  0.24400  0.10900  1.0000
  Se  Se2       1.0  0.78600  0.74400  0.39100  1.0000
  Se  Se3       1.0  0.28600  0.75600  0.60900  1.0000
  Se  Se4       1.0  0.71400  0.25600  0.89100  1.0000
