data_image0
_chemical_formula_structural       Cu2Nd6Se14Si2
_chemical_formula_sum              "Cu2 Nd6 Se14 Si2"
_cell_length_a       10.6182
_cell_length_b       10.6192
_cell_length_c       6.08639
_cell_angle_alpha    90
_cell_angle_beta     90
_cell_angle_gamma    120.001

_space_group_name_H-M_alt    "P 1"
_space_group_IT_number       1

loop_
  _space_group_symop_operation_xyz
  'x, y, z'

loop_
  _atom_site_type_symbol
  _atom_site_label
  _atom_site_symmetry_multiplicity
  _atom_site_fract_x
  _atom_site_fract_y
  _atom_site_fract_z
  _atom_site_occupancy
  Cu  Cu1       1.0  0.00000  0.00000  0.28500  1.0000
  Cu  Cu2       1.0  0.00000  0.00000  0.78500  1.0000
  Nd  Nd1       1.0  0.64500  0.77300  0.25400  1.0000
  Nd  Nd2       1.0  0.12800  0.35500  0.25400  1.0000
  Nd  Nd3       1.0  0.22700  0.87200  0.25400  1.0000
  Nd  Nd4       1.0  0.35500  0.22700  0.75400  1.0000
  Nd  Nd5       1.0  0.87200  0.64500  0.75400  1.0000
  Nd  Nd6       1.0  0.77300  0.12800  0.75400  1.0000
  Se  Se1       1.0  0.52200  0.10500  0.01650  1.0000
  Se  Se2       1.0  0.58300  0.47800  0.01650  1.0000
  Se  Se3       1.0  0.89500  0.41700  0.01650  1.0000
  Se  Se4       1.0  0.33300  0.66700  0.03710  1.0000
  Se  Se5       1.0  0.90700  0.74300  0.27300  1.0000
  Se  Se6       1.0  0.25700  0.16400  0.27300  1.0000
  Se  Se7       1.0  0.83600  0.09280  0.27300  1.0000
  Se  Se8       1.0  0.47800  0.89500  0.51600  1.0000
  Se  Se9       1.0  0.41700  0.52200  0.51600  1.0000
  Se  Se10      1.0  0.10500  0.58300  0.51600  1.0000
  Se  Se11      1.0  0.66700  0.33300  0.53700  1.0000
  Se  Se12      1.0  0.09280  0.25700  0.77300  1.0000
  Se  Se13      1.0  0.74300  0.83600  0.77300  1.0000
  Se  Se14      1.0  0.16400  0.90700  0.77300  1.0000
  Si  Si1       1.0  0.66700  0.33300  0.16500  1.0000
  Si  Si2       1.0  0.33300  0.66700  0.66500  1.0000
