data_image0
_chemical_formula_structural       Dy8Rh4Si12
_chemical_formula_sum              "Dy8 Rh4 Si12"
_cell_length_a       8.17536
_cell_length_b       8.17393
_cell_length_c       7.87842
_cell_angle_alpha    90
_cell_angle_beta     90
_cell_angle_gamma    120.006

_space_group_name_H-M_alt    "P 1"
_space_group_IT_number       1

loop_
  _space_group_symop_operation_xyz
  'x, y, z'

loop_
  _atom_site_type_symbol
  _atom_site_label
  _atom_site_symmetry_multiplicity
  _atom_site_fract_x
  _atom_site_fract_y
  _atom_site_fract_z
  _atom_site_occupancy
  Dy  Dy1       1.0  0.00000  0.00000  0.25000  1.0000
  Dy  Dy2       1.0  0.50800  0.01670  0.25000  1.0000
  Dy  Dy3       1.0  0.50800  0.49200  0.25000  1.0000
  Dy  Dy4       1.0  0.98300  0.49200  0.25000  1.0000
  Dy  Dy5       1.0  0.00000  0.00000  0.75000  1.0000
  Dy  Dy6       1.0  0.01670  0.50800  0.75000  1.0000
  Dy  Dy7       1.0  0.49200  0.50800  0.75000  1.0000
  Dy  Dy8       1.0  0.49200  0.98300  0.75000  1.0000
  Rh  Rh1       1.0  0.33300  0.66700  0.03100  1.0000
  Rh  Rh2       1.0  0.33300  0.66700  0.46900  1.0000
  Rh  Rh3       1.0  0.66700  0.33300  0.53100  1.0000
  Rh  Rh4       1.0  0.66700  0.33300  0.96900  1.0000
  Si  Si1       1.0  0.16700  0.83300  0.00108  1.0000
  Si  Si2       1.0  0.66700  0.83300  0.00108  1.0000
  Si  Si3       1.0  0.16700  0.33300  0.00108  1.0000
  Si  Si4       1.0  0.16700  0.33300  0.49900  1.0000
  Si  Si5       1.0  0.16700  0.83300  0.49900  1.0000
  Si  Si6       1.0  0.66700  0.83300  0.49900  1.0000
  Si  Si7       1.0  0.33300  0.16700  0.50100  1.0000
  Si  Si8       1.0  0.83300  0.16700  0.50100  1.0000
  Si  Si9       1.0  0.83300  0.66700  0.50100  1.0000
  Si  Si10      1.0  0.83300  0.66700  0.99900  1.0000
  Si  Si11      1.0  0.33300  0.16700  0.99900  1.0000
  Si  Si12      1.0  0.83300  0.16700  0.99900  1.0000
