data_image0
_chemical_formula_structural       Cu2S14Si2Sm6
_chemical_formula_sum              "Cu2 S14 Si2 Sm6"
_cell_length_a       10.0775
_cell_length_b       10.0775
_cell_length_c       5.73133
_cell_angle_alpha    90
_cell_angle_beta     90
_cell_angle_gamma    120

_space_group_name_H-M_alt    "P 1"
_space_group_IT_number       1

loop_
  _space_group_symop_operation_xyz
  'x, y, z'

loop_
  _atom_site_type_symbol
  _atom_site_label
  _atom_site_symmetry_multiplicity
  _atom_site_fract_x
  _atom_site_fract_y
  _atom_site_fract_z
  _atom_site_occupancy
  Cu  Cu1       1.0  0.00000  0.00000  0.27500  1.0000
  Cu  Cu2       1.0  0.00000  0.00000  0.77500  1.0000
  S   S1        1.0  0.52300  0.11000  0.01700  1.0000
  S   S2        1.0  0.58800  0.47700  0.01700  1.0000
  S   S3        1.0  0.89000  0.41200  0.01700  1.0000
  S   S4        1.0  0.33300  0.66700  0.03190  1.0000
  S   S5        1.0  0.25400  0.16600  0.26600  1.0000
  S   S6        1.0  0.91200  0.74600  0.26600  1.0000
  S   S7        1.0  0.83400  0.08800  0.26600  1.0000
  S   S8        1.0  0.47700  0.89000  0.51700  1.0000
  S   S9        1.0  0.41200  0.52300  0.51700  1.0000
  S   S10       1.0  0.11000  0.58800  0.51700  1.0000
  S   S11       1.0  0.66700  0.33300  0.53200  1.0000
  S   S12       1.0  0.08800  0.25400  0.76600  1.0000
  S   S13       1.0  0.74600  0.83400  0.76600  1.0000
  S   S14       1.0  0.16600  0.91200  0.76600  1.0000
  Si  Si1       1.0  0.66700  0.33300  0.16400  1.0000
  Si  Si2       1.0  0.33300  0.66700  0.66400  1.0000
  Sm  Sm1       1.0  0.12400  0.35700  0.25100  1.0000
  Sm  Sm2       1.0  0.64300  0.76700  0.25100  1.0000
  Sm  Sm3       1.0  0.23300  0.87600  0.25100  1.0000
  Sm  Sm4       1.0  0.35700  0.23300  0.75100  1.0000
  Sm  Sm5       1.0  0.87600  0.64300  0.75100  1.0000
  Sm  Sm6       1.0  0.76700  0.12400  0.75100  1.0000
