data_image0
_chemical_formula_structural       Cu2Se14Si2Tb6
_chemical_formula_sum              "Cu2 Se14 Si2 Tb6"
_cell_length_a       10.3956
_cell_length_b       10.3952
_cell_length_c       5.98694
_cell_angle_alpha    90
_cell_angle_beta     90
_cell_angle_gamma    119.999

_space_group_name_H-M_alt    "P 1"
_space_group_IT_number       1

loop_
  _space_group_symop_operation_xyz
  'x, y, z'

loop_
  _atom_site_type_symbol
  _atom_site_label
  _atom_site_symmetry_multiplicity
  _atom_site_fract_x
  _atom_site_fract_y
  _atom_site_fract_z
  _atom_site_occupancy
  Cu  Cu1       1.0  0.00000  0.00000  0.28300  1.0000
  Cu  Cu2       1.0  0.00000  0.00000  0.78300  1.0000
  Se  Se1       1.0  0.89800  0.41800  0.00632  1.0000
  Se  Se2       1.0  0.52000  0.10200  0.00633  1.0000
  Se  Se3       1.0  0.58200  0.48000  0.00633  1.0000
  Se  Se4       1.0  0.33300  0.66700  0.03980  1.0000
  Se  Se5       1.0  0.90500  0.74000  0.27200  1.0000
  Se  Se6       1.0  0.83500  0.09480  0.27200  1.0000
  Se  Se7       1.0  0.26000  0.16500  0.27200  1.0000
  Se  Se8       1.0  0.10200  0.58200  0.50600  1.0000
  Se  Se9       1.0  0.41800  0.52000  0.50600  1.0000
  Se  Se10      1.0  0.48000  0.89800  0.50600  1.0000
  Se  Se11      1.0  0.66700  0.33300  0.54000  1.0000
  Se  Se12      1.0  0.09480  0.26000  0.77200  1.0000
  Se  Se13      1.0  0.74000  0.83500  0.77200  1.0000
  Se  Se14      1.0  0.16500  0.90500  0.77200  1.0000
  Si  Si1       1.0  0.66700  0.33300  0.16300  1.0000
  Si  Si2       1.0  0.33300  0.66700  0.66300  1.0000
  Tb  Tb1       1.0  0.12800  0.35500  0.25200  1.0000
  Tb  Tb2       1.0  0.64500  0.77300  0.25200  1.0000
  Tb  Tb3       1.0  0.22700  0.87200  0.25200  1.0000
  Tb  Tb4       1.0  0.87200  0.64500  0.75200  1.0000
  Tb  Tb5       1.0  0.77300  0.12800  0.75200  1.0000
  Tb  Tb6       1.0  0.35500  0.22700  0.75200  1.0000
