data_image0
_chemical_formula_structural       O12Rb4Re4S4
_chemical_formula_sum              "O12 Rb4 Re4 S4"
_cell_length_a       9.04679
_cell_length_b       7.7889
_cell_length_c       8.13793
_cell_angle_alpha    90
_cell_angle_beta     116.863
_cell_angle_gamma    90

_space_group_name_H-M_alt    "P 1"
_space_group_IT_number       1

loop_
  _space_group_symop_operation_xyz
  'x, y, z'

loop_
  _atom_site_type_symbol
  _atom_site_label
  _atom_site_symmetry_multiplicity
  _atom_site_fract_x
  _atom_site_fract_y
  _atom_site_fract_z
  _atom_site_occupancy
  O   O1        1.0  0.21400  0.99100  0.05270  1.0000
  O   O2        1.0  0.79400  0.50100  0.10300  1.0000
  O   O3        1.0  0.06360  0.27800  0.14300  1.0000
  O   O4        1.0  0.93600  0.77800  0.35700  1.0000
  O   O5        1.0  0.20600  0.00126  0.39700  1.0000
  O   O6        1.0  0.78600  0.49100  0.44700  1.0000
  O   O7        1.0  0.21400  0.50900  0.55300  1.0000
  O   O8        1.0  0.79400  0.99900  0.60300  1.0000
  O   O9        1.0  0.06360  0.22200  0.64300  1.0000
  O   O10       1.0  0.93600  0.72200  0.85700  1.0000
  O   O11       1.0  0.20600  0.49900  0.89700  1.0000
  O   O12       1.0  0.78600  0.00852  0.94700  1.0000
  Rb  Rb1       1.0  0.19800  0.63500  0.22000  1.0000
  Rb  Rb2       1.0  0.80200  0.13500  0.28000  1.0000
  Rb  Rb3       1.0  0.19800  0.86500  0.72000  1.0000
  Rb  Rb4       1.0  0.80200  0.36500  0.78000  1.0000
  Re  Re1       1.0  0.22500  0.12700  0.23000  1.0000
  Re  Re2       1.0  0.77500  0.62700  0.27000  1.0000
  Re  Re3       1.0  0.22500  0.37300  0.73000  1.0000
  Re  Re4       1.0  0.77500  0.87300  0.77000  1.0000
  S   S1        1.0  0.54200  0.76300  0.15100  1.0000
  S   S2        1.0  0.45800  0.26300  0.34900  1.0000
  S   S3        1.0  0.54200  0.73700  0.65100  1.0000
  S   S4        1.0  0.45800  0.23700  0.84900  1.0000
