data_image0
_chemical_formula_structural       O16P8
_chemical_formula_sum              "O16 P8"
_cell_length_a       6.62402
_cell_length_b       6.81742
_cell_length_c       6.81742
_cell_angle_alpha    92.452
_cell_angle_beta     94.7132
_cell_angle_gamma    94.7132

_space_group_name_H-M_alt    "P 1"
_space_group_IT_number       1

loop_
  _space_group_symop_operation_xyz
  'x, y, z'

loop_
  _atom_site_type_symbol
  _atom_site_label
  _atom_site_symmetry_multiplicity
  _atom_site_fract_x
  _atom_site_fract_y
  _atom_site_fract_z
  _atom_site_occupancy
  O   O1        1.0  0.25000  0.97000  0.03030  1.0000
  O   O2        1.0  0.35600  0.62300  0.04570  1.0000
  O   O3        1.0  0.00040  0.69500  0.11300  1.0000
  O   O4        1.0  0.89400  0.28800  0.24200  1.0000
  O   O5        1.0  0.39400  0.24200  0.28800  1.0000
  O   O6        1.0  0.50000  0.88700  0.30500  1.0000
  O   O7        1.0  0.14400  0.95400  0.37700  1.0000
  O   O8        1.0  0.25000  0.60800  0.39200  1.0000
  O   O9        1.0  0.75000  0.39200  0.60800  1.0000
  O   O10       1.0  0.85600  0.04570  0.62300  1.0000
  O   O11       1.0  0.50000  0.11300  0.69500  1.0000
  O   O12       1.0  0.60600  0.75800  0.71200  1.0000
  O   O13       1.0  0.10600  0.71200  0.75800  1.0000
  O   O14       1.0  0.00000  0.30500  0.88700  1.0000
  O   O15       1.0  0.64400  0.37700  0.95400  1.0000
  O   O16       1.0  0.75000  0.03030  0.97000  1.0000
  P   P1        1.0  0.82800  0.25800  0.03220  1.0000
  P   P2        1.0  0.32800  0.03220  0.25800  1.0000
  P   P3        1.0  0.46000  0.63600  0.28200  1.0000
  P   P4        1.0  0.03960  0.71800  0.36400  1.0000
  P   P5        1.0  0.96000  0.28200  0.63600  1.0000
  P   P6        1.0  0.54000  0.36400  0.71800  1.0000
  P   P7        1.0  0.67200  0.96800  0.74200  1.0000
  P   P8        1.0  0.17200  0.74200  0.96800  1.0000
