data_image0
_chemical_formula_structural       Cu2Ge2La6S14
_chemical_formula_sum              "Cu2 Ge2 La6 S14"
_cell_length_a       10.3422
_cell_length_b       10.342
_cell_length_c       5.90053
_cell_angle_alpha    90
_cell_angle_beta     90
_cell_angle_gamma    120

_space_group_name_H-M_alt    "P 1"
_space_group_IT_number       1

loop_
  _space_group_symop_operation_xyz
  'x, y, z'

loop_
  _atom_site_type_symbol
  _atom_site_label
  _atom_site_symmetry_multiplicity
  _atom_site_fract_x
  _atom_site_fract_y
  _atom_site_fract_z
  _atom_site_occupancy
  Cu  Cu1       1.0  0.00000  0.00000  0.27900  1.0000
  Cu  Cu2       1.0  0.00000  0.00000  0.77900  1.0000
  Ge  Ge1       1.0  0.66700  0.33300  0.16900  1.0000
  Ge  Ge2       1.0  0.33300  0.66700  0.66900  1.0000
  La  La1       1.0  0.12700  0.35600  0.25000  1.0000
  La  La2       1.0  0.23000  0.87300  0.25000  1.0000
  La  La3       1.0  0.64400  0.77000  0.25000  1.0000
  La  La4       1.0  0.87300  0.64400  0.75000  1.0000
  La  La5       1.0  0.77000  0.12700  0.75000  1.0000
  La  La6       1.0  0.35600  0.23000  0.75000  1.0000
  S   S1        1.0  0.52200  0.10600  0.01820  1.0000
  S   S2        1.0  0.58400  0.47800  0.01820  1.0000
  S   S3        1.0  0.89400  0.41600  0.01820  1.0000
  S   S4        1.0  0.33300  0.66700  0.04180  1.0000
  S   S5        1.0  0.83900  0.08860  0.26600  1.0000
  S   S6        1.0  0.24900  0.16100  0.26600  1.0000
  S   S7        1.0  0.91100  0.75100  0.26600  1.0000
  S   S8        1.0  0.41600  0.52200  0.51800  1.0000
  S   S9        1.0  0.47800  0.89400  0.51800  1.0000
  S   S10       1.0  0.10600  0.58400  0.51800  1.0000
  S   S11       1.0  0.66700  0.33300  0.54200  1.0000
  S   S12       1.0  0.08860  0.24900  0.76600  1.0000
  S   S13       1.0  0.75100  0.83900  0.76600  1.0000
  S   S14       1.0  0.16100  0.91100  0.76600  1.0000
