data_image0
_chemical_formula_structural       Cu2S14Sm6Sn2
_chemical_formula_sum              "Cu2 S14 Sm6 Sn2"
_cell_length_a       10.0098
_cell_length_b       10.0101
_cell_length_c       6.10726
_cell_angle_alpha    90
_cell_angle_beta     90
_cell_angle_gamma    120

_space_group_name_H-M_alt    "P 1"
_space_group_IT_number       1

loop_
  _space_group_symop_operation_xyz
  'x, y, z'

loop_
  _atom_site_type_symbol
  _atom_site_label
  _atom_site_symmetry_multiplicity
  _atom_site_fract_x
  _atom_site_fract_y
  _atom_site_fract_z
  _atom_site_occupancy
  Cu  Cu1       1.0  0.00000  0.00000  0.30600  1.0000
  Cu  Cu2       1.0  0.00000  0.00000  0.80600  1.0000
  S   S1        1.0  0.33300  0.66700  0.05800  1.0000
  S   S2        1.0  0.84600  0.10400  0.28900  1.0000
  S   S3        1.0  0.89600  0.74200  0.28900  1.0000
  S   S4        1.0  0.25800  0.15400  0.28900  1.0000
  S   S5        1.0  0.43000  0.51500  0.49200  1.0000
  S   S6        1.0  0.48500  0.91500  0.49200  1.0000
  S   S7        1.0  0.08540  0.57000  0.49200  1.0000
  S   S8        1.0  0.66700  0.33300  0.55800  1.0000
  S   S9        1.0  0.10400  0.25800  0.78900  1.0000
  S   S10       1.0  0.15400  0.89600  0.78900  1.0000
  S   S11       1.0  0.74200  0.84600  0.78900  1.0000
  S   S12       1.0  0.57000  0.48500  0.99200  1.0000
  S   S13       1.0  0.51500  0.08540  0.99200  1.0000
  S   S14       1.0  0.91500  0.43000  0.99200  1.0000
  Sm  Sm1       1.0  0.64200  0.78200  0.23900  1.0000
  Sm  Sm2       1.0  0.13900  0.35800  0.23900  1.0000
  Sm  Sm3       1.0  0.21800  0.86100  0.23900  1.0000
  Sm  Sm4       1.0  0.35800  0.21800  0.73900  1.0000
  Sm  Sm5       1.0  0.78200  0.13900  0.73900  1.0000
  Sm  Sm6       1.0  0.86100  0.64200  0.73900  1.0000
  Sn  Sn1       1.0  0.66700  0.33300  0.16900  1.0000
  Sn  Sn2       1.0  0.33300  0.66700  0.66900  1.0000
