data_image0
_chemical_formula_structural       Cu2S14Si2Tb6
_chemical_formula_sum              "Cu2 S14 Si2 Tb6"
_cell_length_a       9.93309
_cell_length_b       9.93305
_cell_length_c       5.68077
_cell_angle_alpha    90
_cell_angle_beta     90
_cell_angle_gamma    120

_space_group_name_H-M_alt    "P 1"
_space_group_IT_number       1

loop_
  _space_group_symop_operation_xyz
  'x, y, z'

loop_
  _atom_site_type_symbol
  _atom_site_label
  _atom_site_symmetry_multiplicity
  _atom_site_fract_x
  _atom_site_fract_y
  _atom_site_fract_z
  _atom_site_occupancy
  Cu  Cu1       1.0  0.00000  0.00000  0.27900  1.0000
  Cu  Cu2       1.0  0.00000  0.00000  0.77900  1.0000
  S   S1        1.0  0.89300  0.41400  0.01180  1.0000
  S   S2        1.0  0.52200  0.10700  0.01180  1.0000
  S   S3        1.0  0.58600  0.47800  0.01180  1.0000
  S   S4        1.0  0.33300  0.66700  0.03320  1.0000
  S   S5        1.0  0.90900  0.74300  0.26900  1.0000
  S   S6        1.0  0.83400  0.09080  0.26900  1.0000
  S   S7        1.0  0.25700  0.16600  0.26900  1.0000
  S   S8        1.0  0.10700  0.58600  0.51200  1.0000
  S   S9        1.0  0.41400  0.52200  0.51200  1.0000
  S   S10       1.0  0.47800  0.89300  0.51200  1.0000
  S   S11       1.0  0.66700  0.33300  0.53300  1.0000
  S   S12       1.0  0.09080  0.25700  0.76900  1.0000
  S   S13       1.0  0.16600  0.90900  0.76900  1.0000
  S   S14       1.0  0.74300  0.83400  0.76900  1.0000
  Si  Si1       1.0  0.66700  0.33300  0.16200  1.0000
  Si  Si2       1.0  0.33300  0.66700  0.66200  1.0000
  Tb  Tb1       1.0  0.12500  0.35700  0.25000  1.0000
  Tb  Tb2       1.0  0.64300  0.76900  0.25000  1.0000
  Tb  Tb3       1.0  0.23100  0.87500  0.25000  1.0000
  Tb  Tb4       1.0  0.35700  0.23100  0.75000  1.0000
  Tb  Tb5       1.0  0.87500  0.64300  0.75000  1.0000
  Tb  Tb6       1.0  0.76900  0.12500  0.75000  1.0000
