data_image0
_chemical_formula_structural       Co2Ga6Ho16
_chemical_formula_sum              "Co2 Ga6 Ho16"
_cell_length_a       9.96872
_cell_length_b       9.9687
_cell_length_c       6.88074
_cell_angle_alpha    90
_cell_angle_beta     90
_cell_angle_gamma    120

_space_group_name_H-M_alt    "P 1"
_space_group_IT_number       1

loop_
  _space_group_symop_operation_xyz
  'x, y, z'

loop_
  _atom_site_type_symbol
  _atom_site_label
  _atom_site_symmetry_multiplicity
  _atom_site_fract_x
  _atom_site_fract_y
  _atom_site_fract_z
  _atom_site_occupancy
  Co  Co1       1.0  0.33300  0.66700  0.05830  1.0000
  Co  Co2       1.0  0.66700  0.33300  0.55800  1.0000
  Ga  Ga1       1.0  0.32700  0.16300  0.03940  1.0000
  Ga  Ga2       1.0  0.83700  0.16300  0.03940  1.0000
  Ga  Ga3       1.0  0.83700  0.67300  0.03940  1.0000
  Ga  Ga4       1.0  0.16300  0.32700  0.53900  1.0000
  Ga  Ga5       1.0  0.16300  0.83700  0.53900  1.0000
  Ga  Ga6       1.0  0.67300  0.83700  0.53900  1.0000
  Ho  Ho1       1.0  0.66700  0.33300  0.17200  1.0000
  Ho  Ho2       1.0  0.00000  0.00000  0.26800  1.0000
  Ho  Ho3       1.0  0.46400  0.92800  0.29200  1.0000
  Ho  Ho4       1.0  0.07240  0.53600  0.29200  1.0000
  Ho  Ho5       1.0  0.46400  0.53600  0.29200  1.0000
  Ho  Ho6       1.0  0.34600  0.17300  0.49000  1.0000
  Ho  Ho7       1.0  0.82700  0.17300  0.49000  1.0000
  Ho  Ho8       1.0  0.82700  0.65400  0.49000  1.0000
  Ho  Ho9       1.0  0.33300  0.66700  0.67200  1.0000
  Ho  Ho10      1.0  0.00000  0.00000  0.76800  1.0000
  Ho  Ho11      1.0  0.53600  0.07240  0.79200  1.0000
  Ho  Ho12      1.0  0.53600  0.46400  0.79200  1.0000
  Ho  Ho13      1.0  0.92800  0.46400  0.79200  1.0000
  Ho  Ho14      1.0  0.17300  0.82700  0.99000  1.0000
  Ho  Ho15      1.0  0.65400  0.82700  0.99000  1.0000
  Ho  Ho16      1.0  0.17300  0.34600  0.99000  1.0000
