data_image0
_chemical_formula_structural       I16In4Li4
_chemical_formula_sum              "I16 In4 Li4"
_cell_length_a       8.37959
_cell_length_b       7.69098
_cell_length_c       15.2929
_cell_angle_alpha    90
_cell_angle_beta     92.7297
_cell_angle_gamma    90

_space_group_name_H-M_alt    "P 1"
_space_group_IT_number       1

loop_
  _space_group_symop_operation_xyz
  'x, y, z'

loop_
  _atom_site_type_symbol
  _atom_site_label
  _atom_site_symmetry_multiplicity
  _atom_site_fract_x
  _atom_site_fract_y
  _atom_site_fract_z
  _atom_site_occupancy
  I   I1        1.0  0.17700  0.65500  0.06330  1.0000
  I   I2        1.0  0.68500  0.82200  0.06350  1.0000
  I   I3        1.0  0.05680  0.17200  0.19000  1.0000
  I   I4        1.0  0.58400  0.31800  0.19800  1.0000
  I   I5        1.0  0.41600  0.81800  0.30200  1.0000
  I   I6        1.0  0.94300  0.67200  0.31000  1.0000
  I   I7        1.0  0.31500  0.32200  0.43600  1.0000
  I   I8        1.0  0.82300  0.15500  0.43700  1.0000
  I   I9        1.0  0.17700  0.84500  0.56300  1.0000
  I   I10       1.0  0.68500  0.67800  0.56400  1.0000
  I   I11       1.0  0.05680  0.32800  0.69000  1.0000
  I   I12       1.0  0.58400  0.18200  0.69800  1.0000
  I   I13       1.0  0.41600  0.68200  0.80200  1.0000
  I   I14       1.0  0.94300  0.82800  0.81000  1.0000
  I   I15       1.0  0.31500  0.17800  0.93600  1.0000
  I   I16       1.0  0.82300  0.34500  0.93700  1.0000
  In  In1       1.0  0.30200  0.32500  0.10000  1.0000
  In  In2       1.0  0.69800  0.82500  0.40000  1.0000
  In  In3       1.0  0.30200  0.17500  0.60000  1.0000
  In  In4       1.0  0.69800  0.67500  0.90000  1.0000
  Li  Li1       1.0  0.85400  0.51200  0.12500  1.0000
  Li  Li2       1.0  0.14600  0.01180  0.37500  1.0000
  Li  Li3       1.0  0.85400  0.98800  0.62500  1.0000
  Li  Li4       1.0  0.14600  0.48800  0.87500  1.0000
