data_image0
_chemical_formula_structural       Cu2Dy6S14Sn2
_chemical_formula_sum              "Cu2 Dy6 S14 Sn2"
_cell_length_a       9.7542
_cell_length_b       9.75762
_cell_length_c       6.1841
_cell_angle_alpha    90
_cell_angle_beta     90
_cell_angle_gamma    120.002

_space_group_name_H-M_alt    "P 1"
_space_group_IT_number       1

loop_
  _space_group_symop_operation_xyz
  'x, y, z'

loop_
  _atom_site_type_symbol
  _atom_site_label
  _atom_site_symmetry_multiplicity
  _atom_site_fract_x
  _atom_site_fract_y
  _atom_site_fract_z
  _atom_site_occupancy
  Cu  Cu1       1.0  0.00000  0.00000  0.34200  1.0000
  Cu  Cu2       1.0  0.00000  0.00000  0.84200  1.0000
  Dy  Dy1       1.0  0.64100  0.78900  0.23500  1.0000
  Dy  Dy2       1.0  0.21100  0.85200  0.23500  1.0000
  Dy  Dy3       1.0  0.14800  0.35900  0.23500  1.0000
  Dy  Dy4       1.0  0.35900  0.21100  0.73500  1.0000
  Dy  Dy5       1.0  0.78900  0.14800  0.73500  1.0000
  Dy  Dy6       1.0  0.85200  0.64100  0.73500  1.0000
  S   S1        1.0  0.33300  0.66700  0.05670  1.0000
  S   S2        1.0  0.88600  0.73800  0.31000  1.0000
  S   S3        1.0  0.85100  0.11400  0.31000  1.0000
  S   S4        1.0  0.26200  0.14900  0.31000  1.0000
  S   S5        1.0  0.48200  0.91900  0.48700  1.0000
  S   S6        1.0  0.43600  0.51800  0.48700  1.0000
  S   S7        1.0  0.08160  0.56400  0.48800  1.0000
  S   S8        1.0  0.66700  0.33300  0.55700  1.0000
  S   S9        1.0  0.11400  0.26200  0.81000  1.0000
  S   S10       1.0  0.73800  0.85100  0.81000  1.0000
  S   S11       1.0  0.14900  0.88600  0.81000  1.0000
  S   S12       1.0  0.51800  0.08150  0.98700  1.0000
  S   S13       1.0  0.56400  0.48200  0.98700  1.0000
  S   S14       1.0  0.91800  0.43600  0.98800  1.0000
  Sn  Sn1       1.0  0.66700  0.33300  0.17000  1.0000
  Sn  Sn2       1.0  0.33300  0.66700  0.67000  1.0000
