data_image0
_chemical_formula_structural       Cu2Gd6S14Sn2
_chemical_formula_sum              "Cu2 Gd6 S14 Sn2"
_cell_length_a       9.85333
_cell_length_b       9.85331
_cell_length_c       6.17926
_cell_angle_alpha    90
_cell_angle_beta     90
_cell_angle_gamma    120

_space_group_name_H-M_alt    "P 1"
_space_group_IT_number       1

loop_
  _space_group_symop_operation_xyz
  'x, y, z'

loop_
  _atom_site_type_symbol
  _atom_site_label
  _atom_site_symmetry_multiplicity
  _atom_site_fract_x
  _atom_site_fract_y
  _atom_site_fract_z
  _atom_site_occupancy
  Cu  Cu1       1.0  0.00000  0.00000  0.33500  1.0000
  Cu  Cu2       1.0  0.00000  0.00000  0.83500  1.0000
  Gd  Gd1       1.0  0.64100  0.78600  0.23800  1.0000
  Gd  Gd2       1.0  0.21400  0.85600  0.23800  1.0000
  Gd  Gd3       1.0  0.14400  0.35900  0.23800  1.0000
  Gd  Gd4       1.0  0.35900  0.21400  0.73800  1.0000
  Gd  Gd5       1.0  0.78600  0.14400  0.73800  1.0000
  Gd  Gd6       1.0  0.85600  0.64100  0.73800  1.0000
  S   S1        1.0  0.33300  0.66700  0.05680  1.0000
  S   S2        1.0  0.89000  0.74000  0.30700  1.0000
  S   S3        1.0  0.26000  0.15000  0.30700  1.0000
  S   S4        1.0  0.85000  0.11000  0.30700  1.0000
  S   S5        1.0  0.43300  0.51600  0.49000  1.0000
  S   S6        1.0  0.48400  0.91700  0.49000  1.0000
  S   S7        1.0  0.08320  0.56700  0.49000  1.0000
  S   S8        1.0  0.66700  0.33300  0.55700  1.0000
  S   S9        1.0  0.11000  0.26000  0.80700  1.0000
  S   S10       1.0  0.74000  0.85000  0.80700  1.0000
  S   S11       1.0  0.15000  0.89000  0.80700  1.0000
  S   S12       1.0  0.51600  0.08320  0.99000  1.0000
  S   S13       1.0  0.56700  0.48400  0.99000  1.0000
  S   S14       1.0  0.91700  0.43300  0.99000  1.0000
  Sn  Sn1       1.0  0.66700  0.33300  0.17100  1.0000
  Sn  Sn2       1.0  0.33300  0.66700  0.67100  1.0000
