data_image0
_chemical_formula_structural       Cu2La6S14Sn2
_chemical_formula_sum              "Cu2 La6 S14 Sn2"
_cell_length_a       10.354
_cell_length_b       10.354
_cell_length_c       6.06393
_cell_angle_alpha    90
_cell_angle_beta     90
_cell_angle_gamma    120

_space_group_name_H-M_alt    "P 1"
_space_group_IT_number       1

loop_
  _space_group_symop_operation_xyz
  'x, y, z'

loop_
  _atom_site_type_symbol
  _atom_site_label
  _atom_site_symmetry_multiplicity
  _atom_site_fract_x
  _atom_site_fract_y
  _atom_site_fract_z
  _atom_site_occupancy
  Cu  Cu1       1.0  0.00000  0.00000  0.28000  1.0000
  Cu  Cu2       1.0  0.00000  0.00000  0.78000  1.0000
  La  La1       1.0  0.64500  0.77400  0.25000  1.0000
  La  La2       1.0  0.13000  0.35500  0.25000  1.0000
  La  La3       1.0  0.22600  0.87000  0.25000  1.0000
  La  La4       1.0  0.35500  0.22600  0.75000  1.0000
  La  La5       1.0  0.77400  0.13000  0.75000  1.0000
  La  La6       1.0  0.87000  0.64500  0.75000  1.0000
  S   S1        1.0  0.51400  0.09140  0.00471  1.0000
  S   S2        1.0  0.57800  0.48600  0.00471  1.0000
  S   S3        1.0  0.90900  0.42200  0.00472  1.0000
  S   S4        1.0  0.33300  0.66700  0.06480  1.0000
  S   S5        1.0  0.84300  0.09230  0.27100  1.0000
  S   S6        1.0  0.25000  0.15700  0.27100  1.0000
  S   S7        1.0  0.90800  0.75000  0.27100  1.0000
  S   S8        1.0  0.42200  0.51400  0.50500  1.0000
  S   S9        1.0  0.48600  0.90900  0.50500  1.0000
  S   S10       1.0  0.09140  0.57800  0.50500  1.0000
  S   S11       1.0  0.66700  0.33300  0.56500  1.0000
  S   S12       1.0  0.09230  0.25000  0.77100  1.0000
  S   S13       1.0  0.75000  0.84300  0.77100  1.0000
  S   S14       1.0  0.15700  0.90800  0.77100  1.0000
  Sn  Sn1       1.0  0.66700  0.33300  0.17400  1.0000
  Sn  Sn2       1.0  0.33300  0.66700  0.67400  1.0000
