data_image0
_chemical_formula_structural       Al2Cl2H8Na4O8
_chemical_formula_sum              "Al2 Cl2 H8 Na4 O8"
_cell_length_a       7.47558
_cell_length_b       7.47558
_cell_length_c       4.96171
_cell_angle_alpha    90
_cell_angle_beta     90
_cell_angle_gamma    90

_space_group_name_H-M_alt    "P 1"
_space_group_IT_number       1

loop_
  _space_group_symop_operation_xyz
  'x, y, z'

loop_
  _atom_site_type_symbol
  _atom_site_label
  _atom_site_symmetry_multiplicity
  _atom_site_fract_x
  _atom_site_fract_y
  _atom_site_fract_z
  _atom_site_occupancy
  Al  Al1       1.0  0.00000  0.00000  0.00000  1.0000
  Al  Al2       1.0  0.50000  0.50000  0.00000  1.0000
  Cl  Cl1       1.0  0.00000  0.50000  0.22000  1.0000
  Cl  Cl2       1.0  0.50000  0.00000  0.78000  1.0000
  H   H1        1.0  0.29500  0.00000  0.10500  1.0000
  H   H2        1.0  0.70500  0.00000  0.10500  1.0000
  H   H3        1.0  0.50000  0.20500  0.10500  1.0000
  H   H4        1.0  0.50000  0.79500  0.10500  1.0000
  H   H5        1.0  0.00000  0.29500  0.89500  1.0000
  H   H6        1.0  0.20500  0.50000  0.89500  1.0000
  H   H7        1.0  0.79500  0.50000  0.89500  1.0000
  H   H8        1.0  0.00000  0.70500  0.89500  1.0000
  Na  Na1       1.0  0.25000  0.25000  0.50000  1.0000
  Na  Na2       1.0  0.75000  0.25000  0.50000  1.0000
  Na  Na3       1.0  0.25000  0.75000  0.50000  1.0000
  Na  Na4       1.0  0.75000  0.75000  0.50000  1.0000
  O   O1        1.0  0.18800  0.00000  0.21900  1.0000
  O   O2        1.0  0.81200  0.00000  0.21900  1.0000
  O   O3        1.0  0.50000  0.31200  0.21900  1.0000
  O   O4        1.0  0.50000  0.68800  0.21900  1.0000
  O   O5        1.0  0.00000  0.18800  0.78100  1.0000
  O   O6        1.0  0.31200  0.50000  0.78100  1.0000
  O   O7        1.0  0.68800  0.50000  0.78100  1.0000
  O   O8        1.0  0.00000  0.81200  0.78100  1.0000
