data_image0
_chemical_formula_structural       Cu2Er6S14Sn2
_chemical_formula_sum              "Cu2 Er6 S14 Sn2"
_cell_length_a       9.69324
_cell_length_b       9.69344
_cell_length_c       6.16615
_cell_angle_alpha    90
_cell_angle_beta     90
_cell_angle_gamma    120

_space_group_name_H-M_alt    "P 1"
_space_group_IT_number       1

loop_
  _space_group_symop_operation_xyz
  'x, y, z'

loop_
  _atom_site_type_symbol
  _atom_site_label
  _atom_site_symmetry_multiplicity
  _atom_site_fract_x
  _atom_site_fract_y
  _atom_site_fract_z
  _atom_site_occupancy
  Cu  Cu1       1.0  0.00000  0.00000  0.34000  1.0000
  Cu  Cu2       1.0  0.00000  0.00000  0.84000  1.0000
  Er  Er1       1.0  0.14600  0.35900  0.23200  1.0000
  Er  Er2       1.0  0.21300  0.85400  0.23200  1.0000
  Er  Er3       1.0  0.64100  0.78700  0.23200  1.0000
  Er  Er4       1.0  0.78700  0.14600  0.73200  1.0000
  Er  Er5       1.0  0.85400  0.64100  0.73200  1.0000
  Er  Er6       1.0  0.35900  0.21300  0.73200  1.0000
  S   S1        1.0  0.33300  0.66700  0.05590  1.0000
  S   S2        1.0  0.85000  0.11400  0.30900  1.0000
  S   S3        1.0  0.26400  0.15000  0.30900  1.0000
  S   S4        1.0  0.88600  0.73600  0.30900  1.0000
  S   S5        1.0  0.48400  0.91800  0.48200  1.0000
  S   S6        1.0  0.08170  0.56500  0.48200  1.0000
  S   S7        1.0  0.43500  0.51600  0.48200  1.0000
  S   S8        1.0  0.66700  0.33300  0.55600  1.0000
  S   S9        1.0  0.15000  0.88600  0.80900  1.0000
  S   S10       1.0  0.11400  0.26400  0.80900  1.0000
  S   S11       1.0  0.73600  0.85000  0.80900  1.0000
  S   S12       1.0  0.51600  0.08170  0.98200  1.0000
  S   S13       1.0  0.91800  0.43500  0.98200  1.0000
  S   S14       1.0  0.56500  0.48400  0.98200  1.0000
  Sn  Sn1       1.0  0.66700  0.33300  0.16800  1.0000
  Sn  Sn2       1.0  0.33300  0.66700  0.66800  1.0000
