data_image0
_chemical_formula_structural       Al2Co2S14Y6
_chemical_formula_sum              "Al2 Co2 S14 Y6"
_cell_length_a       9.52896
_cell_length_b       9.52891
_cell_length_c       6.14387
_cell_angle_alpha    90
_cell_angle_beta     90
_cell_angle_gamma    120

_space_group_name_H-M_alt    "P 1"
_space_group_IT_number       1

loop_
  _space_group_symop_operation_xyz
  'x, y, z'

loop_
  _atom_site_type_symbol
  _atom_site_label
  _atom_site_symmetry_multiplicity
  _atom_site_fract_x
  _atom_site_fract_y
  _atom_site_fract_z
  _atom_site_occupancy
  Al  Al1       1.0  0.66700  0.33300  0.15100  1.0000
  Al  Al2       1.0  0.33300  0.66700  0.65100  1.0000
  Co  Co1       1.0  0.00000  0.00000  0.06720  1.0000
  Co  Co2       1.0  0.00000  0.00000  0.56700  1.0000
  S   S1        1.0  0.33300  0.66700  0.01410  1.0000
  S   S2        1.0  0.87200  0.09490  0.32100  1.0000
  S   S3        1.0  0.22300  0.12800  0.32100  1.0000
  S   S4        1.0  0.90500  0.77700  0.32100  1.0000
  S   S5        1.0  0.43100  0.51900  0.49800  1.0000
  S   S6        1.0  0.48100  0.91200  0.49800  1.0000
  S   S7        1.0  0.08830  0.56900  0.49800  1.0000
  S   S8        1.0  0.66700  0.33300  0.51400  1.0000
  S   S9        1.0  0.77700  0.87200  0.82100  1.0000
  S   S10       1.0  0.09490  0.22300  0.82100  1.0000
  S   S11       1.0  0.12800  0.90500  0.82100  1.0000
  S   S12       1.0  0.56900  0.48100  0.99800  1.0000
  S   S13       1.0  0.51900  0.08830  0.99800  1.0000
  S   S14       1.0  0.91200  0.43100  0.99800  1.0000
  Y   Y1        1.0  0.15400  0.37400  0.22600  1.0000
  Y   Y2        1.0  0.22100  0.84600  0.22600  1.0000
  Y   Y3        1.0  0.62600  0.77900  0.22600  1.0000
  Y   Y4        1.0  0.84600  0.62600  0.72600  1.0000
  Y   Y5        1.0  0.77900  0.15400  0.72600  1.0000
  Y   Y6        1.0  0.37400  0.22100  0.72600  1.0000
