data_image0
_chemical_formula_structural       Cl4O12Sb4Te4
_chemical_formula_sum              "Cl4 O12 Sb4 Te4"
_cell_length_a       11.1909
_cell_length_b       5.41611
_cell_length_c       7.10008
_cell_angle_alpha    90
_cell_angle_beta     90
_cell_angle_gamma    90

_space_group_name_H-M_alt    "P 1"
_space_group_IT_number       1

loop_
  _space_group_symop_operation_xyz
  'x, y, z'

loop_
  _atom_site_type_symbol
  _atom_site_label
  _atom_site_symmetry_multiplicity
  _atom_site_fract_x
  _atom_site_fract_y
  _atom_site_fract_z
  _atom_site_occupancy
  Cl  Cl1       1.0  0.57500  0.75000  0.09850  1.0000
  Cl  Cl2       1.0  0.07460  0.75000  0.40100  1.0000
  Cl  Cl3       1.0  0.92500  0.25000  0.59800  1.0000
  Cl  Cl4       1.0  0.42500  0.25000  0.90200  1.0000
  O   O1        1.0  0.12300  0.00233  0.00304  1.0000
  O   O2        1.0  0.12300  0.49800  0.00304  1.0000
  O   O3        1.0  0.71800  0.25000  0.19800  1.0000
  O   O4        1.0  0.21800  0.25000  0.30200  1.0000
  O   O5        1.0  0.62300  0.00233  0.49700  1.0000
  O   O6        1.0  0.62300  0.49800  0.49700  1.0000
  O   O7        1.0  0.37700  0.50200  0.50300  1.0000
  O   O8        1.0  0.37700  0.99800  0.50300  1.0000
  O   O9        1.0  0.78200  0.75000  0.69800  1.0000
  O   O10       1.0  0.28200  0.75000  0.80200  1.0000
  O   O11       1.0  0.87700  0.50200  0.99700  1.0000
  O   O12       1.0  0.87700  0.99800  0.99700  1.0000
  Sb  Sb1       1.0  0.24700  0.75000  0.08560  1.0000
  Sb  Sb2       1.0  0.74700  0.75000  0.41400  1.0000
  Sb  Sb3       1.0  0.25300  0.25000  0.58600  1.0000
  Sb  Sb4       1.0  0.75300  0.25000  0.91400  1.0000
  Te  Te1       1.0  0.06540  0.25000  0.17700  1.0000
  Te  Te2       1.0  0.56500  0.25000  0.32300  1.0000
  Te  Te3       1.0  0.43500  0.75000  0.67700  1.0000
  Te  Te4       1.0  0.93500  0.75000  0.82300  1.0000
