data_image0
_chemical_formula_structural       Ag8O12Te4
_chemical_formula_sum              "Ag8 O12 Te4"
_cell_length_a       6.98071
_cell_length_b       10.5322
_cell_length_c       4.90141
_cell_angle_alpha    90
_cell_angle_beta     91.6155
_cell_angle_gamma    90

_space_group_name_H-M_alt    "P 1"
_space_group_IT_number       1

loop_
  _space_group_symop_operation_xyz
  'x, y, z'

loop_
  _atom_site_type_symbol
  _atom_site_label
  _atom_site_symmetry_multiplicity
  _atom_site_fract_x
  _atom_site_fract_y
  _atom_site_fract_z
  _atom_site_occupancy
  Ag  Ag1       1.0  0.13100  0.41700  0.25100  1.0000
  Ag  Ag2       1.0  0.63100  0.08300  0.25100  1.0000
  Ag  Ag3       1.0  0.09750  0.74500  0.25200  1.0000
  Ag  Ag4       1.0  0.59700  0.75500  0.25200  1.0000
  Ag  Ag5       1.0  0.90300  0.25500  0.74800  1.0000
  Ag  Ag6       1.0  0.40300  0.24500  0.74800  1.0000
  Ag  Ag7       1.0  0.86900  0.58300  0.74900  1.0000
  Ag  Ag8       1.0  0.36900  0.91700  0.74900  1.0000
  O   O1        1.0  0.83000  0.27600  0.22100  1.0000
  O   O2        1.0  0.33000  0.22400  0.22100  1.0000
  O   O3        1.0  0.32300  0.95500  0.24400  1.0000
  O   O4        1.0  0.82300  0.54500  0.24400  1.0000
  O   O5        1.0  0.86700  0.89900  0.36200  1.0000
  O   O6        1.0  0.36700  0.60100  0.36200  1.0000
  O   O7        1.0  0.13300  0.10100  0.63800  1.0000
  O   O8        1.0  0.63300  0.39900  0.63800  1.0000
  O   O9        1.0  0.67700  0.04550  0.75600  1.0000
  O   O10       1.0  0.17700  0.45500  0.75600  1.0000
  O   O11       1.0  0.17000  0.72400  0.77900  1.0000
  O   O12       1.0  0.67000  0.77600  0.77900  1.0000
  Te  Te1       1.0  0.64300  0.41000  0.24700  1.0000
  Te  Te2       1.0  0.14300  0.09040  0.24700  1.0000
  Te  Te3       1.0  0.35700  0.59000  0.75300  1.0000
  Te  Te4       1.0  0.85700  0.91000  0.75300  1.0000
