data_image0
_chemical_formula_structural       Cd4I14Tl6
_chemical_formula_sum              "Cd4 I14 Tl6"
_cell_length_a       15.2308
_cell_length_b       14.0557
_cell_length_c       4.58733
_cell_angle_alpha    90
_cell_angle_beta     90
_cell_angle_gamma    90

_space_group_name_H-M_alt    "P 1"
_space_group_IT_number       1

loop_
  _space_group_symop_operation_xyz
  'x, y, z'

loop_
  _atom_site_type_symbol
  _atom_site_label
  _atom_site_symmetry_multiplicity
  _atom_site_fract_x
  _atom_site_fract_y
  _atom_site_fract_z
  _atom_site_occupancy
  Cd  Cd1       1.0  0.88800  0.24100  0.50000  1.0000
  Cd  Cd2       1.0  0.38800  0.25900  0.50000  1.0000
  Cd  Cd3       1.0  0.61200  0.74100  0.50000  1.0000
  Cd  Cd4       1.0  0.11200  0.75900  0.50000  1.0000
  I   I1        1.0  0.80500  0.15600  0.00000  1.0000
  I   I2        1.0  0.30500  0.34400  0.00000  1.0000
  I   I3        1.0  0.69500  0.65600  0.00000  1.0000
  I   I4        1.0  0.19500  0.84400  0.00000  1.0000
  I   I5        1.0  0.00000  0.00000  0.50000  1.0000
  I   I6        1.0  0.31800  0.06800  0.50000  1.0000
  I   I7        1.0  0.56500  0.20400  0.50000  1.0000
  I   I8        1.0  0.06450  0.29600  0.50000  1.0000
  I   I9        1.0  0.81800  0.43200  0.50000  1.0000
  I   I10       1.0  0.50000  0.50000  0.50000  1.0000
  I   I11       1.0  0.18200  0.56800  0.50000  1.0000
  I   I12       1.0  0.93500  0.70400  0.50000  1.0000
  I   I13       1.0  0.43500  0.79600  0.50000  1.0000
  I   I14       1.0  0.68200  0.93200  0.50000  1.0000
  Tl  Tl1       1.0  0.50000  0.00000  0.00000  1.0000
  Tl  Tl2       1.0  0.13700  0.10700  0.00000  1.0000
  Tl  Tl3       1.0  0.63700  0.39300  0.00000  1.0000
  Tl  Tl4       1.0  0.00000  0.50000  0.00000  1.0000
  Tl  Tl5       1.0  0.36300  0.60700  0.00000  1.0000
  Tl  Tl6       1.0  0.86300  0.89300  0.00000  1.0000
