data_image0
_chemical_formula_structural       Cu2Nd6S14Sn2
_chemical_formula_sum              "Cu2 Nd6 S14 Sn2"
_cell_length_a       10.1572
_cell_length_b       10.1573
_cell_length_c       6.08232
_cell_angle_alpha    90
_cell_angle_beta     90
_cell_angle_gamma    120

_space_group_name_H-M_alt    "P 1"
_space_group_IT_number       1

loop_
  _space_group_symop_operation_xyz
  'x, y, z'

loop_
  _atom_site_type_symbol
  _atom_site_label
  _atom_site_symmetry_multiplicity
  _atom_site_fract_x
  _atom_site_fract_y
  _atom_site_fract_z
  _atom_site_occupancy
  Cu  Cu1       1.0  0.00000  0.00000  0.29500  1.0000
  Cu  Cu2       1.0  0.00000  0.00000  0.79500  1.0000
  Nd  Nd1       1.0  0.64300  0.77900  0.24300  1.0000
  Nd  Nd2       1.0  0.22100  0.86400  0.24300  1.0000
  Nd  Nd3       1.0  0.13600  0.35700  0.24300  1.0000
  Nd  Nd4       1.0  0.35700  0.22100  0.74300  1.0000
  Nd  Nd5       1.0  0.77900  0.13600  0.74300  1.0000
  Nd  Nd6       1.0  0.86400  0.64300  0.74300  1.0000
  S   S1        1.0  0.33300  0.66700  0.06090  1.0000
  S   S2        1.0  0.84500  0.09960  0.28100  1.0000
  S   S3        1.0  0.25500  0.15500  0.28100  1.0000
  S   S4        1.0  0.90000  0.74500  0.28100  1.0000
  S   S5        1.0  0.42700  0.51500  0.49700  1.0000
  S   S6        1.0  0.48500  0.91200  0.49700  1.0000
  S   S7        1.0  0.08770  0.57300  0.49700  1.0000
  S   S8        1.0  0.66700  0.33300  0.56100  1.0000
  S   S9        1.0  0.15500  0.90000  0.78100  1.0000
  S   S10       1.0  0.09960  0.25500  0.78100  1.0000
  S   S11       1.0  0.74500  0.84500  0.78100  1.0000
  S   S12       1.0  0.57300  0.48500  0.99700  1.0000
  S   S13       1.0  0.51500  0.08770  0.99700  1.0000
  S   S14       1.0  0.91200  0.42700  0.99700  1.0000
  Sn  Sn1       1.0  0.66700  0.33300  0.17100  1.0000
  Sn  Sn2       1.0  0.33300  0.66700  0.67100  1.0000
