data_image0
_chemical_formula_structural       Ce6Co16Si2
_chemical_formula_sum              "Ce6 Co16 Si2"
_cell_length_a       5.20371
_cell_length_b       5.20324
_cell_length_c       15.7892
_cell_angle_alpha    90
_cell_angle_beta     90
_cell_angle_gamma    120.003

_space_group_name_H-M_alt    "P 1"
_space_group_IT_number       1

loop_
  _space_group_symop_operation_xyz
  'x, y, z'

loop_
  _atom_site_type_symbol
  _atom_site_label
  _atom_site_symmetry_multiplicity
  _atom_site_fract_x
  _atom_site_fract_y
  _atom_site_fract_z
  _atom_site_occupancy
  Ce  Ce1       1.0  0.66700  0.33300  0.03810  1.0000
  Ce  Ce2       1.0  0.66700  0.33300  0.25000  1.0000
  Ce  Ce3       1.0  0.66700  0.33300  0.46200  1.0000
  Ce  Ce4       1.0  0.33300  0.66700  0.53800  1.0000
  Ce  Ce5       1.0  0.33300  0.66700  0.75000  1.0000
  Ce  Ce6       1.0  0.33300  0.66700  0.96200  1.0000
  Co  Co1       1.0  0.00000  0.00000  0.00000  1.0000
  Co  Co2       1.0  0.16300  0.32500  0.13300  1.0000
  Co  Co3       1.0  0.16300  0.83700  0.13300  1.0000
  Co  Co4       1.0  0.67500  0.83700  0.13300  1.0000
  Co  Co5       1.0  0.33300  0.66700  0.25000  1.0000
  Co  Co6       1.0  0.16300  0.83700  0.36700  1.0000
  Co  Co7       1.0  0.67500  0.83700  0.36700  1.0000
  Co  Co8       1.0  0.16300  0.32500  0.36700  1.0000
  Co  Co9       1.0  0.00000  0.00000  0.50000  1.0000
  Co  Co10      1.0  0.83700  0.67500  0.63300  1.0000
  Co  Co11      1.0  0.32500  0.16300  0.63300  1.0000
  Co  Co12      1.0  0.83700  0.16300  0.63300  1.0000
  Co  Co13      1.0  0.66700  0.33300  0.75000  1.0000
  Co  Co14      1.0  0.32500  0.16300  0.86700  1.0000
  Co  Co15      1.0  0.83700  0.16300  0.86700  1.0000
  Co  Co16      1.0  0.83700  0.67500  0.86700  1.0000
  Si  Si1       1.0  0.00000  0.00015  0.25000  1.0000
  Si  Si2       1.0  0.00000  0.00000  0.75000  1.0000
