data_image0
_chemical_formula_structural       Ce8Cr2S14
_chemical_formula_sum              "Ce8 Cr2 S14"
_cell_length_a       10.0461
_cell_length_b       10.0462
_cell_length_c       6.89105
_cell_angle_alpha    90
_cell_angle_beta     90
_cell_angle_gamma    119.996

_space_group_name_H-M_alt    "P 1"
_space_group_IT_number       1

loop_
  _space_group_symop_operation_xyz
  'x, y, z'

loop_
  _atom_site_type_symbol
  _atom_site_label
  _atom_site_symmetry_multiplicity
  _atom_site_fract_x
  _atom_site_fract_y
  _atom_site_fract_z
  _atom_site_occupancy
  Ce  Ce1       1.0  0.66600  0.33300  0.17900  1.0000
  Ce  Ce2       1.0  0.62600  0.77900  0.22500  1.0000
  Ce  Ce3       1.0  0.22100  0.84700  0.22500  1.0000
  Ce  Ce4       1.0  0.15300  0.37400  0.22500  1.0000
  Ce  Ce5       1.0  0.33400  0.66700  0.67900  1.0000
  Ce  Ce6       1.0  0.37400  0.22100  0.72500  1.0000
  Ce  Ce7       1.0  0.77900  0.15300  0.72500  1.0000
  Ce  Ce8       1.0  0.84700  0.62600  0.72500  1.0000
  Cr  Cr1       1.0  0.00000  0.00000  0.05410  1.0000
  Cr  Cr2       1.0  0.00000  0.00000  0.55400  1.0000
  S   S1        1.0  0.33300  0.66700  0.07000  1.0000
  S   S2        1.0  0.22700  0.13000  0.32300  1.0000
  S   S3        1.0  0.87000  0.09700  0.32300  1.0000
  S   S4        1.0  0.90300  0.77300  0.32300  1.0000
  S   S5        1.0  0.49100  0.93000  0.46600  1.0000
  S   S6        1.0  0.43800  0.50900  0.46600  1.0000
  S   S7        1.0  0.07050  0.56200  0.46600  1.0000
  S   S8        1.0  0.66700  0.33300  0.57000  1.0000
  S   S9        1.0  0.77300  0.87000  0.82300  1.0000
  S   S10       1.0  0.13000  0.90300  0.82300  1.0000
  S   S11       1.0  0.09700  0.22700  0.82300  1.0000
  S   S12       1.0  0.50900  0.07030  0.96600  1.0000
  S   S13       1.0  0.56200  0.49100  0.96600  1.0000
  S   S14       1.0  0.93000  0.43800  0.96600  1.0000
