data_image0
_chemical_formula_structural       Eu2Zn22
_chemical_formula_sum              "Eu2 Zn22"
_cell_length_a       6.8183
_cell_length_b       8.24225
_cell_length_c       8.24225
_cell_angle_alpha    99.8507
_cell_angle_beta     65.5676
_cell_angle_gamma    114.432

_space_group_name_H-M_alt    "P 1"
_space_group_IT_number       1

loop_
  _space_group_symop_operation_xyz
  'x, y, z'

loop_
  _atom_site_type_symbol
  _atom_site_label
  _atom_site_symmetry_multiplicity
  _atom_site_fract_x
  _atom_site_fract_y
  _atom_site_fract_z
  _atom_site_occupancy
  Eu  Eu1       1.0  0.12500  0.75000  0.25000  1.0000
  Eu  Eu2       1.0  0.87500  0.25000  0.75000  1.0000
  Zn  Zn1       1.0  0.00000  0.00000  0.00000  1.0000
  Zn  Zn2       1.0  0.50000  0.50000  0.00000  1.0000
  Zn  Zn3       1.0  0.05630  0.33400  0.07760  1.0000
  Zn  Zn4       1.0  0.36600  0.16600  0.07760  1.0000
  Zn  Zn5       1.0  0.63400  0.07760  0.16600  1.0000
  Zn  Zn6       1.0  0.70000  0.42200  0.16600  1.0000
  Zn  Zn7       1.0  0.62500  0.75000  0.25000  1.0000
  Zn  Zn8       1.0  0.94400  0.07760  0.33400  1.0000
  Zn  Zn9       1.0  0.22200  0.42200  0.33400  1.0000
  Zn  Zn10      1.0  0.77800  0.33400  0.42200  1.0000
  Zn  Zn11      1.0  0.30000  0.16600  0.42200  1.0000
  Zn  Zn12      1.0  0.50000  0.00000  0.50000  1.0000
  Zn  Zn13      1.0  0.50000  0.50000  0.50000  1.0000
  Zn  Zn14      1.0  0.22200  0.66600  0.57800  1.0000
  Zn  Zn15      1.0  0.70000  0.83400  0.57800  1.0000
  Zn  Zn16      1.0  0.05630  0.92200  0.66600  1.0000
  Zn  Zn17      1.0  0.77800  0.57800  0.66600  1.0000
  Zn  Zn18      1.0  0.37500  0.25000  0.75000  1.0000
  Zn  Zn19      1.0  0.30000  0.57800  0.83400  1.0000
  Zn  Zn20      1.0  0.36600  0.92200  0.83400  1.0000
  Zn  Zn21      1.0  0.94400  0.66600  0.92200  1.0000
  Zn  Zn22      1.0  0.63400  0.83400  0.92200  1.0000
