data_image0
_chemical_formula_structural       Cd8Na6S10
_chemical_formula_sum              "Cd8 Na6 S10"
_cell_length_a       4.25416
_cell_length_b       10.6781
_cell_length_c       13.5418
_cell_angle_alpha    108.234
_cell_angle_beta     99.0371
_cell_angle_gamma    90

_space_group_name_H-M_alt    "P 1"
_space_group_IT_number       1

loop_
  _space_group_symop_operation_xyz
  'x, y, z'

loop_
  _atom_site_type_symbol
  _atom_site_label
  _atom_site_symmetry_multiplicity
  _atom_site_fract_x
  _atom_site_fract_y
  _atom_site_fract_z
  _atom_site_occupancy
  Cd  Cd1       1.0  0.55800  0.47300  0.11600  1.0000
  Cd  Cd2       1.0  0.60300  0.95800  0.20700  1.0000
  Cd  Cd3       1.0  0.15600  0.28000  0.31200  1.0000
  Cd  Cd4       1.0  0.24900  0.87600  0.49800  1.0000
  Cd  Cd5       1.0  0.75100  0.12400  0.50200  1.0000
  Cd  Cd6       1.0  0.84400  0.72000  0.68800  1.0000
  Cd  Cd7       1.0  0.39700  0.04210  0.79300  1.0000
  Cd  Cd8       1.0  0.44200  0.52700  0.88400  1.0000
  Na  Na1       1.0  0.00929  0.19800  0.01860  1.0000
  Na  Na2       1.0  0.11200  0.73100  0.22300  1.0000
  Na  Na3       1.0  0.70200  0.57800  0.40300  1.0000
  Na  Na4       1.0  0.29800  0.42200  0.59700  1.0000
  Na  Na5       1.0  0.88800  0.26900  0.77700  1.0000
  Na  Na6       1.0  0.99100  0.80200  0.98100  1.0000
  S   S1        1.0  0.53600  0.70300  0.07230  1.0000
  S   S2        1.0  0.08100  0.06150  0.16200  1.0000
  S   S3        1.0  0.11500  0.47200  0.23000  1.0000
  S   S4        1.0  0.68800  0.87200  0.37500  1.0000
  S   S5        1.0  0.71600  0.32000  0.43200  1.0000
  S   S6        1.0  0.28400  0.68000  0.56800  1.0000
  S   S7        1.0  0.31200  0.12800  0.62500  1.0000
  S   S8        1.0  0.88500  0.52800  0.77000  1.0000
  S   S9        1.0  0.91900  0.93800  0.83800  1.0000
  S   S10       1.0  0.46400  0.29700  0.92800  1.0000
