data_image0
_chemical_formula_structural       B4Ba4Li4O12
_chemical_formula_sum              "B4 Ba4 Li4 O12"
_cell_length_a       6.43369
_cell_length_b       7.11476
_cell_length_c       7.38128
_cell_angle_alpha    90
_cell_angle_beta     117.495
_cell_angle_gamma    90

_space_group_name_H-M_alt    "P 1"
_space_group_IT_number       1

loop_
  _space_group_symop_operation_xyz
  'x, y, z'

loop_
  _atom_site_type_symbol
  _atom_site_label
  _atom_site_symmetry_multiplicity
  _atom_site_fract_x
  _atom_site_fract_y
  _atom_site_fract_z
  _atom_site_occupancy
  B   B1        1.0  0.78800  0.16300  0.08170  1.0000
  B   B2        1.0  0.21200  0.66300  0.41800  1.0000
  B   B3        1.0  0.78800  0.33700  0.58200  1.0000
  B   B4        1.0  0.21200  0.83700  0.91800  1.0000
  Ba  Ba1       1.0  0.32200  0.36100  0.16400  1.0000
  Ba  Ba2       1.0  0.67800  0.86100  0.33600  1.0000
  Ba  Ba3       1.0  0.32200  0.13900  0.66400  1.0000
  Ba  Ba4       1.0  0.67800  0.63900  0.83600  1.0000
  Li  Li1       1.0  0.09630  0.92900  0.19800  1.0000
  Li  Li2       1.0  0.90400  0.42900  0.30200  1.0000
  Li  Li3       1.0  0.09630  0.57100  0.69800  1.0000
  Li  Li4       1.0  0.90400  0.07070  0.80200  1.0000
  O   O1        1.0  0.64400  0.31900  0.02210  1.0000
  O   O2        1.0  0.25900  0.99600  0.03850  1.0000
  O   O3        1.0  0.01400  0.66300  0.22700  1.0000
  O   O4        1.0  0.98600  0.16300  0.27300  1.0000
  O   O5        1.0  0.74100  0.49600  0.46200  1.0000
  O   O6        1.0  0.35600  0.81900  0.47800  1.0000
  O   O7        1.0  0.64400  0.18100  0.52200  1.0000
  O   O8        1.0  0.25900  0.50400  0.53800  1.0000
  O   O9        1.0  0.01400  0.83700  0.72700  1.0000
  O   O10       1.0  0.98600  0.33700  0.77300  1.0000
  O   O11       1.0  0.74100  0.00369  0.96200  1.0000
  O   O12       1.0  0.35600  0.68100  0.97800  1.0000
