data_image0
_chemical_formula_structural       Cu2Gd6S14Si2
_chemical_formula_sum              "Cu2 Gd6 S14 Si2"
_cell_length_a       9.96596
_cell_length_b       9.96593
_cell_length_c       5.69338
_cell_angle_alpha    90
_cell_angle_beta     90
_cell_angle_gamma    120

_space_group_name_H-M_alt    "P 1"
_space_group_IT_number       1

loop_
  _space_group_symop_operation_xyz
  'x, y, z'

loop_
  _atom_site_type_symbol
  _atom_site_label
  _atom_site_symmetry_multiplicity
  _atom_site_fract_x
  _atom_site_fract_y
  _atom_site_fract_z
  _atom_site_occupancy
  Cu  Cu1       1.0  0.00000  0.00000  0.28100  1.0000
  Cu  Cu2       1.0  0.00000  0.00000  0.78100  1.0000
  Gd  Gd1       1.0  0.64400  0.76800  0.25100  1.0000
  Gd  Gd2       1.0  0.12400  0.35600  0.25100  1.0000
  Gd  Gd3       1.0  0.23200  0.87600  0.25100  1.0000
  Gd  Gd4       1.0  0.35600  0.23200  0.75100  1.0000
  Gd  Gd5       1.0  0.76800  0.12400  0.75100  1.0000
  Gd  Gd6       1.0  0.87600  0.64400  0.75100  1.0000
  S   S1        1.0  0.52100  0.10800  0.01320  1.0000
  S   S2        1.0  0.89200  0.41300  0.01320  1.0000
  S   S3        1.0  0.58700  0.47900  0.01320  1.0000
  S   S4        1.0  0.33300  0.66700  0.03290  1.0000
  S   S5        1.0  0.91000  0.74400  0.26900  1.0000
  S   S6        1.0  0.83300  0.08990  0.26900  1.0000
  S   S7        1.0  0.25600  0.16700  0.26900  1.0000
  S   S8        1.0  0.47900  0.89200  0.51300  1.0000
  S   S9        1.0  0.41300  0.52100  0.51300  1.0000
  S   S10       1.0  0.10800  0.58700  0.51300  1.0000
  S   S11       1.0  0.66700  0.33300  0.53300  1.0000
  S   S12       1.0  0.08990  0.25600  0.76900  1.0000
  S   S13       1.0  0.74400  0.83300  0.76900  1.0000
  S   S14       1.0  0.16700  0.91000  0.76900  1.0000
  Si  Si1       1.0  0.66700  0.33300  0.16200  1.0000
  Si  Si2       1.0  0.33300  0.66700  0.66200  1.0000
