data_image0
_chemical_formula_structural       Co2Ga6Tb16
_chemical_formula_sum              "Co2 Ga6 Tb16"
_cell_length_a       10.0707
_cell_length_b       10.0706
_cell_length_c       6.91863
_cell_angle_alpha    90
_cell_angle_beta     90
_cell_angle_gamma    120

_space_group_name_H-M_alt    "P 1"
_space_group_IT_number       1

loop_
  _space_group_symop_operation_xyz
  'x, y, z'

loop_
  _atom_site_type_symbol
  _atom_site_label
  _atom_site_symmetry_multiplicity
  _atom_site_fract_x
  _atom_site_fract_y
  _atom_site_fract_z
  _atom_site_occupancy
  Co  Co1       1.0  0.33300  0.66700  0.05900  1.0000
  Co  Co2       1.0  0.66700  0.33300  0.55900  1.0000
  Ga  Ga1       1.0  0.83600  0.67300  0.03830  1.0000
  Ga  Ga2       1.0  0.32700  0.16400  0.03830  1.0000
  Ga  Ga3       1.0  0.83600  0.16400  0.03830  1.0000
  Ga  Ga4       1.0  0.16400  0.32700  0.53800  1.0000
  Ga  Ga5       1.0  0.16400  0.83600  0.53800  1.0000
  Ga  Ga6       1.0  0.67300  0.83600  0.53800  1.0000
  Tb  Tb1       1.0  0.66700  0.33300  0.17200  1.0000
  Tb  Tb2       1.0  0.00000  0.00000  0.26900  1.0000
  Tb  Tb3       1.0  0.46400  0.92800  0.29200  1.0000
  Tb  Tb4       1.0  0.07240  0.53600  0.29200  1.0000
  Tb  Tb5       1.0  0.46400  0.53600  0.29200  1.0000
  Tb  Tb6       1.0  0.34500  0.17200  0.49100  1.0000
  Tb  Tb7       1.0  0.82800  0.17200  0.49100  1.0000
  Tb  Tb8       1.0  0.82800  0.65500  0.49100  1.0000
  Tb  Tb9       1.0  0.33300  0.66700  0.67200  1.0000
  Tb  Tb10      1.0  0.00000  0.00000  0.76900  1.0000
  Tb  Tb11      1.0  0.53600  0.07240  0.79200  1.0000
  Tb  Tb12      1.0  0.53600  0.46400  0.79200  1.0000
  Tb  Tb13      1.0  0.92800  0.46400  0.79200  1.0000
  Tb  Tb14      1.0  0.17200  0.82800  0.99100  1.0000
  Tb  Tb15      1.0  0.65500  0.82800  0.99100  1.0000
  Tb  Tb16      1.0  0.17200  0.34500  0.99100  1.0000
