data_image0
_chemical_formula_structural       Cu4I6Rb2
_chemical_formula_sum              "Cu4 I6 Rb2"
_cell_length_a       5.33436
_cell_length_b       10.0275
_cell_length_c       10.0275
_cell_angle_alpha    98.5774
_cell_angle_beta     89.9961
_cell_angle_gamma    90.0039

_space_group_name_H-M_alt    "P 1"
_space_group_IT_number       1

loop_
  _space_group_symop_operation_xyz
  'x, y, z'

loop_
  _atom_site_type_symbol
  _atom_site_label
  _atom_site_symmetry_multiplicity
  _atom_site_fract_x
  _atom_site_fract_y
  _atom_site_fract_z
  _atom_site_occupancy
  Cu  Cu1       1.0  0.50000  0.14600  0.14600  1.0000
  Cu  Cu2       1.0  0.00000  0.14600  0.14600  1.0000
  Cu  Cu3       1.0  0.00000  0.85400  0.85400  1.0000
  Cu  Cu4       1.0  0.50000  0.85400  0.85400  1.0000
  I   I1        1.0  0.75000  0.90600  0.09440  1.0000
  I   I2        1.0  0.75000  0.36400  0.12000  1.0000
  I   I3        1.0  0.25000  0.12000  0.36400  1.0000
  I   I4        1.0  0.75000  0.88000  0.63600  1.0000
  I   I5        1.0  0.25000  0.63600  0.88000  1.0000
  I   I6        1.0  0.25000  0.09440  0.90600  1.0000
  Rb  Rb1       1.0  0.75000  0.67800  0.32200  1.0000
  Rb  Rb2       1.0  0.25000  0.32200  0.67800  1.0000
