data_image0
_chemical_formula_structural       Be2Bi2La6S14
_chemical_formula_sum              "Be2 Bi2 La6 S14"
_cell_length_a       10.2615
_cell_length_b       10.2616
_cell_length_c       6.34643
_cell_angle_alpha    90
_cell_angle_beta     90
_cell_angle_gamma    120

_space_group_name_H-M_alt    "P 1"
_space_group_IT_number       1

loop_
  _space_group_symop_operation_xyz
  'x, y, z'

loop_
  _atom_site_type_symbol
  _atom_site_label
  _atom_site_symmetry_multiplicity
  _atom_site_fract_x
  _atom_site_fract_y
  _atom_site_fract_z
  _atom_site_occupancy
  Be  Be1       1.0  0.66700  0.33300  0.15200  1.0000
  Be  Be2       1.0  0.33300  0.66700  0.65200  1.0000
  Bi  Bi1       1.0  0.00000  0.00000  0.01580  1.0000
  Bi  Bi2       1.0  0.00000  0.00000  0.51600  1.0000
  La  La1       1.0  0.14000  0.39800  0.24000  1.0000
  La  La2       1.0  0.60200  0.74100  0.24000  1.0000
  La  La3       1.0  0.25900  0.86000  0.24000  1.0000
  La  La4       1.0  0.74100  0.14000  0.74000  1.0000
  La  La5       1.0  0.86000  0.60200  0.74000  1.0000
  La  La6       1.0  0.39800  0.25900  0.74000  1.0000
  S   S1        1.0  0.52100  0.11600  0.02060  1.0000
  S   S2        1.0  0.59400  0.47900  0.02070  1.0000
  S   S3        1.0  0.88400  0.40600  0.02070  1.0000
  S   S4        1.0  0.90500  0.74300  0.29400  1.0000
  S   S5        1.0  0.83800  0.09520  0.29400  1.0000
  S   S6        1.0  0.25700  0.16200  0.29400  1.0000
  S   S7        1.0  0.66700  0.33300  0.49900  1.0000
  S   S8        1.0  0.47900  0.88400  0.52100  1.0000
  S   S9        1.0  0.11600  0.59400  0.52100  1.0000
  S   S10       1.0  0.40600  0.52100  0.52100  1.0000
  S   S11       1.0  0.74300  0.83800  0.79400  1.0000
  S   S12       1.0  0.09520  0.25700  0.79400  1.0000
  S   S13       1.0  0.16200  0.90500  0.79400  1.0000
  S   S14       1.0  0.33300  0.66700  0.99900  1.0000
