data_image0
_chemical_formula_structural       Cs4F4O12S4
_chemical_formula_sum              "Cs4 F4 O12 S4"
_cell_length_a       7.76536
_cell_length_b       7.76127
_cell_length_c       7.62056
_cell_angle_alpha    90
_cell_angle_beta     115.661
_cell_angle_gamma    90

_space_group_name_H-M_alt    "P 1"
_space_group_IT_number       1

loop_
  _space_group_symop_operation_xyz
  'x, y, z'

loop_
  _atom_site_type_symbol
  _atom_site_label
  _atom_site_symmetry_multiplicity
  _atom_site_fract_x
  _atom_site_fract_y
  _atom_site_fract_z
  _atom_site_occupancy
  Cs  Cs1       1.0  0.26100  0.62000  0.26200  1.0000
  Cs  Cs2       1.0  0.76100  0.88000  0.26200  1.0000
  Cs  Cs3       1.0  0.23900  0.12000  0.73800  1.0000
  Cs  Cs4       1.0  0.73900  0.38000  0.73800  1.0000
  F   F1        1.0  0.61500  0.28300  0.08050  1.0000
  F   F2        1.0  0.11500  0.21700  0.08050  1.0000
  F   F3        1.0  0.88500  0.78300  0.92000  1.0000
  F   F4        1.0  0.38500  0.71700  0.92000  1.0000
  O   O1        1.0  0.36700  0.00603  0.16500  1.0000
  O   O2        1.0  0.86700  0.49400  0.16500  1.0000
  O   O3        1.0  0.14800  0.99600  0.31800  1.0000
  O   O4        1.0  0.64800  0.50400  0.31800  1.0000
  O   O5        1.0  0.38000  0.23000  0.40000  1.0000
  O   O6        1.0  0.88000  0.27000  0.40000  1.0000
  O   O7        1.0  0.12000  0.73000  0.60000  1.0000
  O   O8        1.0  0.62000  0.77000  0.60000  1.0000
  O   O9        1.0  0.85200  0.00446  0.68200  1.0000
  O   O10       1.0  0.35200  0.49600  0.68200  1.0000
  O   O11       1.0  0.13300  0.50600  0.83500  1.0000
  O   O12       1.0  0.63300  0.99400  0.83500  1.0000
  S   S1        1.0  0.26900  0.10000  0.26000  1.0000
  S   S2        1.0  0.76900  0.40000  0.26000  1.0000
  S   S3        1.0  0.73100  0.90000  0.74000  1.0000
  S   S4        1.0  0.23100  0.60000  0.74000  1.0000
