data_image0
_chemical_formula_structural       Co8Hf16
_chemical_formula_sum              "Co8 Hf16"
_cell_length_a       8.4835
_cell_length_b       8.4835
_cell_length_c       8.4835
_cell_angle_alpha    120
_cell_angle_beta     90
_cell_angle_gamma    120

_space_group_name_H-M_alt    "P 1"
_space_group_IT_number       1

loop_
  _space_group_symop_operation_xyz
  'x, y, z'

loop_
  _atom_site_type_symbol
  _atom_site_label
  _atom_site_symmetry_multiplicity
  _atom_site_fract_x
  _atom_site_fract_y
  _atom_site_fract_z
  _atom_site_occupancy
  Co  Co1       1.0  0.22200  0.44400  0.16700  1.0000
  Co  Co2       1.0  0.77800  0.55600  0.22200  1.0000
  Co  Co3       1.0  0.16700  0.94400  0.22200  1.0000
  Co  Co4       1.0  0.77800  0.94400  0.22200  1.0000
  Co  Co5       1.0  0.22200  0.05560  0.77800  1.0000
  Co  Co6       1.0  0.83300  0.05560  0.77800  1.0000
  Co  Co7       1.0  0.22200  0.44400  0.77800  1.0000
  Co  Co8       1.0  0.77800  0.55600  0.83300  1.0000
  Hf  Hf1       1.0  0.00000  0.00000  0.00000  1.0000
  Hf  Hf2       1.0  0.00000  0.50000  0.00000  1.0000
  Hf  Hf3       1.0  0.50000  0.50000  0.00000  1.0000
  Hf  Hf4       1.0  0.81300  0.25000  0.18700  1.0000
  Hf  Hf5       1.0  0.43700  0.25000  0.18700  1.0000
  Hf  Hf6       1.0  0.43700  0.87400  0.18700  1.0000
  Hf  Hf7       1.0  0.18700  0.37400  0.43700  1.0000
  Hf  Hf8       1.0  0.18700  0.75000  0.43700  1.0000
  Hf  Hf9       1.0  0.56300  0.75000  0.43700  1.0000
  Hf  Hf10      1.0  0.00000  0.00000  0.50000  1.0000
  Hf  Hf11      1.0  0.43700  0.25000  0.56300  1.0000
  Hf  Hf12      1.0  0.81300  0.25000  0.56300  1.0000
  Hf  Hf13      1.0  0.81300  0.62600  0.56300  1.0000
  Hf  Hf14      1.0  0.56300  0.12600  0.81300  1.0000
  Hf  Hf15      1.0  0.18700  0.75000  0.81300  1.0000
  Hf  Hf16      1.0  0.56300  0.75000  0.81300  1.0000
