data_image0
_chemical_formula_structural       Ba4Ge4O2S12Zn2
_chemical_formula_sum              "Ba4 Ge4 O2 S12 Zn2"
_cell_length_a       9.70193
_cell_length_b       9.70193
_cell_length_c       6.50572
_cell_angle_alpha    90
_cell_angle_beta     90
_cell_angle_gamma    90

_space_group_name_H-M_alt    "P 1"
_space_group_IT_number       1

loop_
  _space_group_symop_operation_xyz
  'x, y, z'

loop_
  _atom_site_type_symbol
  _atom_site_label
  _atom_site_symmetry_multiplicity
  _atom_site_fract_x
  _atom_site_fract_y
  _atom_site_fract_z
  _atom_site_occupancy
  Ba  Ba1       1.0  0.34000  0.16000  0.49700  1.0000
  Ba  Ba2       1.0  0.66000  0.84000  0.49700  1.0000
  Ba  Ba3       1.0  0.84000  0.34000  0.50300  1.0000
  Ba  Ba4       1.0  0.16000  0.66000  0.50300  1.0000
  Ge  Ge1       1.0  0.12500  0.37500  0.06780  1.0000
  Ge  Ge2       1.0  0.87500  0.62500  0.06780  1.0000
  Ge  Ge3       1.0  0.62500  0.12500  0.93200  1.0000
  Ge  Ge4       1.0  0.37500  0.87500  0.93200  1.0000
  O   O1        1.0  0.00000  0.50000  0.17900  1.0000
  O   O2        1.0  0.50000  0.00000  0.82100  1.0000
  S   S1        1.0  0.06220  0.17900  0.22700  1.0000
  S   S2        1.0  0.32100  0.43800  0.22700  1.0000
  S   S3        1.0  0.67900  0.56200  0.22700  1.0000
  S   S4        1.0  0.93800  0.82100  0.22700  1.0000
  S   S5        1.0  0.63400  0.13400  0.26500  1.0000
  S   S6        1.0  0.36600  0.86600  0.26500  1.0000
  S   S7        1.0  0.13400  0.36600  0.73500  1.0000
  S   S8        1.0  0.86600  0.63400  0.73500  1.0000
  S   S9        1.0  0.82100  0.06220  0.77300  1.0000
  S   S10       1.0  0.56200  0.32100  0.77300  1.0000
  S   S11       1.0  0.43800  0.67900  0.77300  1.0000
  S   S12       1.0  0.17900  0.93800  0.77300  1.0000
  Zn  Zn1       1.0  0.00000  0.00000  0.00000  1.0000
  Zn  Zn2       1.0  0.50000  0.50000  0.00000  1.0000
