data_image0
_chemical_formula_structural       Ba4Cu4La4Te12
_chemical_formula_sum              "Ba4 Cu4 La4 Te12"
_cell_length_a       11.9414
_cell_length_b       4.54439
_cell_length_c       14.899
_cell_angle_alpha    90
_cell_angle_beta     90
_cell_angle_gamma    90

_space_group_name_H-M_alt    "P 1"
_space_group_IT_number       1

loop_
  _space_group_symop_operation_xyz
  'x, y, z'

loop_
  _atom_site_type_symbol
  _atom_site_label
  _atom_site_symmetry_multiplicity
  _atom_site_fract_x
  _atom_site_fract_y
  _atom_site_fract_z
  _atom_site_occupancy
  Ba  Ba1       1.0  0.26900  0.25000  0.00143  1.0000
  Ba  Ba2       1.0  0.76900  0.25000  0.49900  1.0000
  Ba  Ba3       1.0  0.23100  0.75000  0.50100  1.0000
  Ba  Ba4       1.0  0.73100  0.75000  0.99900  1.0000
  Cu  Cu1       1.0  0.74200  0.25000  0.21700  1.0000
  Cu  Cu2       1.0  0.24200  0.25000  0.28300  1.0000
  Cu  Cu3       1.0  0.75800  0.75000  0.71700  1.0000
  Cu  Cu4       1.0  0.25800  0.75000  0.78300  1.0000
  La  La1       1.0  0.98800  0.75000  0.24300  1.0000
  La  La2       1.0  0.48800  0.75000  0.25700  1.0000
  La  La3       1.0  0.51200  0.25000  0.74300  1.0000
  La  La4       1.0  0.01220  0.25000  0.75700  1.0000
  Te  Te1       1.0  0.91400  0.25000  0.10400  1.0000
  Te  Te2       1.0  0.55800  0.25000  0.11400  1.0000
  Te  Te3       1.0  0.24100  0.75000  0.18000  1.0000
  Te  Te4       1.0  0.74100  0.75000  0.32000  1.0000
  Te  Te5       1.0  0.05770  0.25000  0.38600  1.0000
  Te  Te6       1.0  0.41400  0.25000  0.39600  1.0000
  Te  Te7       1.0  0.58600  0.75000  0.60400  1.0000
  Te  Te8       1.0  0.94200  0.75000  0.61400  1.0000
  Te  Te9       1.0  0.25900  0.25000  0.68000  1.0000
  Te  Te10      1.0  0.75900  0.25000  0.82000  1.0000
  Te  Te11      1.0  0.44200  0.75000  0.88600  1.0000
  Te  Te12      1.0  0.08560  0.75000  0.89600  1.0000
