data_image0
_chemical_formula_structural       Cu2Gd6Se14Si2
_chemical_formula_sum              "Cu2 Gd6 Se14 Si2"
_cell_length_a       10.4248
_cell_length_b       10.4214
_cell_length_c       6.02644
_cell_angle_alpha    90
_cell_angle_beta     90
_cell_angle_gamma    119.997

_space_group_name_H-M_alt    "P 1"
_space_group_IT_number       1

loop_
  _space_group_symop_operation_xyz
  'x, y, z'

loop_
  _atom_site_type_symbol
  _atom_site_label
  _atom_site_symmetry_multiplicity
  _atom_site_fract_x
  _atom_site_fract_y
  _atom_site_fract_z
  _atom_site_occupancy
  Cu  Cu1       1.0  0.00000  0.00000  0.29600  1.0000
  Cu  Cu2       1.0  0.00000  0.00000  0.79600  1.0000
  Gd  Gd1       1.0  0.12900  0.35500  0.25400  1.0000
  Gd  Gd2       1.0  0.22600  0.87100  0.25400  1.0000
  Gd  Gd3       1.0  0.64500  0.77400  0.25400  1.0000
  Gd  Gd4       1.0  0.87100  0.64500  0.75400  1.0000
  Gd  Gd5       1.0  0.77400  0.12900  0.75400  1.0000
  Gd  Gd6       1.0  0.35500  0.22600  0.75400  1.0000
  Se  Se1       1.0  0.89800  0.41800  0.01030  1.0000
  Se  Se2       1.0  0.58200  0.48000  0.01030  1.0000
  Se  Se3       1.0  0.52000  0.10200  0.01030  1.0000
  Se  Se4       1.0  0.33300  0.66700  0.04100  1.0000
  Se  Se5       1.0  0.83600  0.09560  0.27900  1.0000
  Se  Se6       1.0  0.26000  0.16400  0.27900  1.0000
  Se  Se7       1.0  0.90400  0.74000  0.27900  1.0000
  Se  Se8       1.0  0.10200  0.58200  0.51000  1.0000
  Se  Se9       1.0  0.41800  0.52000  0.51000  1.0000
  Se  Se10      1.0  0.48000  0.89800  0.51000  1.0000
  Se  Se11      1.0  0.66700  0.33300  0.54100  1.0000
  Se  Se12      1.0  0.16400  0.90400  0.77900  1.0000
  Se  Se13      1.0  0.74000  0.83600  0.77900  1.0000
  Se  Se14      1.0  0.09560  0.26000  0.77900  1.0000
  Si  Si1       1.0  0.66700  0.33300  0.16400  1.0000
  Si  Si2       1.0  0.33300  0.66700  0.66400  1.0000
