data_image0
_chemical_formula_structural       Cu2Ge2La6Se14
_chemical_formula_sum              "Cu2 Ge2 La6 Se14"
_cell_length_a       10.7852
_cell_length_b       10.7848
_cell_length_c       6.21166
_cell_angle_alpha    90
_cell_angle_beta     90
_cell_angle_gamma    120

_space_group_name_H-M_alt    "P 1"
_space_group_IT_number       1

loop_
  _space_group_symop_operation_xyz
  'x, y, z'

loop_
  _atom_site_type_symbol
  _atom_site_label
  _atom_site_symmetry_multiplicity
  _atom_site_fract_x
  _atom_site_fract_y
  _atom_site_fract_z
  _atom_site_occupancy
  Cu  Cu1       1.0  0.00000  0.00000  0.28000  1.0000
  Cu  Cu2       1.0  0.00000  0.00000  0.78000  1.0000
  Ge  Ge1       1.0  0.66700  0.33300  0.16900  1.0000
  Ge  Ge2       1.0  0.33300  0.66700  0.66900  1.0000
  La  La1       1.0  0.12900  0.35500  0.25200  1.0000
  La  La2       1.0  0.22600  0.87100  0.25200  1.0000
  La  La3       1.0  0.64500  0.77400  0.25200  1.0000
  La  La4       1.0  0.87100  0.64500  0.75200  1.0000
  La  La5       1.0  0.77400  0.12900  0.75200  1.0000
  La  La6       1.0  0.35500  0.22600  0.75200  1.0000
  Se  Se1       1.0  0.52000  0.10000  0.01340  1.0000
  Se  Se2       1.0  0.58000  0.48000  0.01340  1.0000
  Se  Se3       1.0  0.90000  0.42000  0.01350  1.0000
  Se  Se4       1.0  0.33300  0.66700  0.04860  1.0000
  Se  Se5       1.0  0.83900  0.09200  0.26700  1.0000
  Se  Se6       1.0  0.90800  0.74700  0.26700  1.0000
  Se  Se7       1.0  0.25300  0.16100  0.26700  1.0000
  Se  Se8       1.0  0.48000  0.90000  0.51300  1.0000
  Se  Se9       1.0  0.42000  0.52000  0.51300  1.0000
  Se  Se10      1.0  0.10000  0.58000  0.51300  1.0000
  Se  Se11      1.0  0.66700  0.33300  0.54900  1.0000
  Se  Se12      1.0  0.16100  0.90800  0.76700  1.0000
  Se  Se13      1.0  0.09200  0.25300  0.76700  1.0000
  Se  Se14      1.0  0.74700  0.83900  0.76700  1.0000
