data_image0
_chemical_formula_structural       Cu2Dy6S14Si2
_chemical_formula_sum              "Cu2 Dy6 S14 Si2"
_cell_length_a       9.89742
_cell_length_b       9.89741
_cell_length_c       5.66771
_cell_angle_alpha    90
_cell_angle_beta     90
_cell_angle_gamma    120

_space_group_name_H-M_alt    "P 1"
_space_group_IT_number       1

loop_
  _space_group_symop_operation_xyz
  'x, y, z'

loop_
  _atom_site_type_symbol
  _atom_site_label
  _atom_site_symmetry_multiplicity
  _atom_site_fract_x
  _atom_site_fract_y
  _atom_site_fract_z
  _atom_site_occupancy
  Cu  Cu1       1.0  0.00000  0.00000  0.28300  1.0000
  Cu  Cu2       1.0  0.00000  0.00000  0.78300  1.0000
  Dy  Dy1       1.0  0.12500  0.35600  0.25100  1.0000
  Dy  Dy2       1.0  0.64400  0.76900  0.25100  1.0000
  Dy  Dy3       1.0  0.23100  0.87500  0.25100  1.0000
  Dy  Dy4       1.0  0.76900  0.12500  0.75100  1.0000
  Dy  Dy5       1.0  0.35600  0.23100  0.75100  1.0000
  Dy  Dy6       1.0  0.87500  0.64400  0.75100  1.0000
  S   S1        1.0  0.89300  0.41400  0.01080  1.0000
  S   S2        1.0  0.52100  0.10700  0.01080  1.0000
  S   S3        1.0  0.58600  0.47900  0.01080  1.0000
  S   S4        1.0  0.33300  0.66700  0.03400  1.0000
  S   S5        1.0  0.83300  0.09150  0.27100  1.0000
  S   S6        1.0  0.90800  0.74200  0.27100  1.0000
  S   S7        1.0  0.25800  0.16700  0.27100  1.0000
  S   S8        1.0  0.10700  0.58600  0.51100  1.0000
  S   S9        1.0  0.47900  0.89300  0.51100  1.0000
  S   S10       1.0  0.41400  0.52100  0.51100  1.0000
  S   S11       1.0  0.66700  0.33300  0.53400  1.0000
  S   S12       1.0  0.09150  0.25800  0.77100  1.0000
  S   S13       1.0  0.74200  0.83300  0.77100  1.0000
  S   S14       1.0  0.16700  0.90800  0.77100  1.0000
  Si  Si1       1.0  0.66700  0.33300  0.16200  1.0000
  Si  Si2       1.0  0.33300  0.66700  0.66200  1.0000
