data_image0
_chemical_formula_structural       Eu2Ni18Si4
_chemical_formula_sum              "Eu2 Ni18 Si4"
_cell_length_a       6.18452
_cell_length_b       7.56932
_cell_length_c       7.56932
_cell_angle_alpha    99.6072
_cell_angle_beta     65.8878
_cell_angle_gamma    114.112

_space_group_name_H-M_alt    "P 1"
_space_group_IT_number       1

loop_
  _space_group_symop_operation_xyz
  'x, y, z'

loop_
  _atom_site_type_symbol
  _atom_site_label
  _atom_site_symmetry_multiplicity
  _atom_site_fract_x
  _atom_site_fract_y
  _atom_site_fract_z
  _atom_site_occupancy
  Eu  Eu1       1.0  0.12500  0.75000  0.25000  1.0000
  Eu  Eu2       1.0  0.87500  0.25000  0.75000  1.0000
  Ni  Ni1       1.0  0.36000  0.17000  0.07780  1.0000
  Ni  Ni2       1.0  0.06260  0.33000  0.07780  1.0000
  Ni  Ni3       1.0  0.64000  0.07780  0.17000  1.0000
  Ni  Ni4       1.0  0.69000  0.42200  0.17000  1.0000
  Ni  Ni5       1.0  0.62500  0.75000  0.25000  1.0000
  Ni  Ni6       1.0  0.93700  0.07780  0.33000  1.0000
  Ni  Ni7       1.0  0.23300  0.42200  0.33000  1.0000
  Ni  Ni8       1.0  0.31000  0.17000  0.42200  1.0000
  Ni  Ni9       1.0  0.76700  0.33000  0.42200  1.0000
  Ni  Ni10      1.0  0.69000  0.83000  0.57800  1.0000
  Ni  Ni11      1.0  0.23300  0.67000  0.57800  1.0000
  Ni  Ni12      1.0  0.76700  0.57800  0.67000  1.0000
  Ni  Ni13      1.0  0.06260  0.92200  0.67000  1.0000
  Ni  Ni14      1.0  0.37500  0.25000  0.75000  1.0000
  Ni  Ni15      1.0  0.31000  0.57800  0.83000  1.0000
  Ni  Ni16      1.0  0.36000  0.92200  0.83000  1.0000
  Ni  Ni17      1.0  0.64000  0.83000  0.92200  1.0000
  Ni  Ni18      1.0  0.93700  0.67000  0.92200  1.0000
  Si  Si1       1.0  0.00000  0.00000  0.00000  1.0000
  Si  Si2       1.0  0.50000  0.50000  0.00000  1.0000
  Si  Si3       1.0  0.50000  0.50000  0.50000  1.0000
  Si  Si4       1.0  0.50000  0.00000  0.50000  1.0000
