data_image0
_chemical_formula_structural       Cu2Nd6S14Si2
_chemical_formula_sum              "Cu2 Nd6 S14 Si2"
_cell_length_a       10.1822
_cell_length_b       10.1821
_cell_length_c       5.76924
_cell_angle_alpha    90
_cell_angle_beta     90
_cell_angle_gamma    120

_space_group_name_H-M_alt    "P 1"
_space_group_IT_number       1

loop_
  _space_group_symop_operation_xyz
  'x, y, z'

loop_
  _atom_site_type_symbol
  _atom_site_label
  _atom_site_symmetry_multiplicity
  _atom_site_fract_x
  _atom_site_fract_y
  _atom_site_fract_z
  _atom_site_occupancy
  Cu  Cu1       1.0  0.00000  0.00000  0.27500  1.0000
  Cu  Cu2       1.0  0.00000  0.00000  0.77500  1.0000
  Nd  Nd1       1.0  0.12300  0.35700  0.25000  1.0000
  Nd  Nd2       1.0  0.23300  0.87700  0.25000  1.0000
  Nd  Nd3       1.0  0.64300  0.76700  0.25000  1.0000
  Nd  Nd4       1.0  0.87700  0.64300  0.75000  1.0000
  Nd  Nd5       1.0  0.76700  0.12300  0.75000  1.0000
  Nd  Nd6       1.0  0.35700  0.23300  0.75000  1.0000
  S   S1        1.0  0.52400  0.11200  0.01940  1.0000
  S   S2        1.0  0.58900  0.47600  0.01940  1.0000
  S   S3        1.0  0.88800  0.41100  0.01940  1.0000
  S   S4        1.0  0.33300  0.66700  0.03060  1.0000
  S   S5        1.0  0.25300  0.16600  0.26300  1.0000
  S   S6        1.0  0.91300  0.74700  0.26300  1.0000
  S   S7        1.0  0.83400  0.08680  0.26300  1.0000
  S   S8        1.0  0.47600  0.88800  0.51900  1.0000
  S   S9        1.0  0.41100  0.52400  0.51900  1.0000
  S   S10       1.0  0.11200  0.58900  0.51900  1.0000
  S   S11       1.0  0.66700  0.33300  0.53100  1.0000
  S   S12       1.0  0.08680  0.25300  0.76300  1.0000
  S   S13       1.0  0.74700  0.83400  0.76300  1.0000
  S   S14       1.0  0.16600  0.91300  0.76300  1.0000
  Si  Si1       1.0  0.66700  0.33300  0.16500  1.0000
  Si  Si2       1.0  0.33300  0.66700  0.66500  1.0000
