data_image0
_chemical_formula_structural       Al2Co2S14Sm6
_chemical_formula_sum              "Al2 Co2 S14 Sm6"
_cell_length_a       9.69195
_cell_length_b       9.69169
_cell_length_c       6.18281
_cell_angle_alpha    90
_cell_angle_beta     90
_cell_angle_gamma    120

_space_group_name_H-M_alt    "P 1"
_space_group_IT_number       1

loop_
  _space_group_symop_operation_xyz
  'x, y, z'

loop_
  _atom_site_type_symbol
  _atom_site_label
  _atom_site_symmetry_multiplicity
  _atom_site_fract_x
  _atom_site_fract_y
  _atom_site_fract_z
  _atom_site_occupancy
  Al  Al1       1.0  0.66700  0.33300  0.14900  1.0000
  Al  Al2       1.0  0.33300  0.66700  0.64900  1.0000
  Co  Co1       1.0  0.00000  0.00000  0.06470  1.0000
  Co  Co2       1.0  0.00000  0.00000  0.56500  1.0000
  S   S1        1.0  0.56800  0.47800  0.00301  1.0000
  S   S2        1.0  0.52200  0.08960  0.00301  1.0000
  S   S3        1.0  0.91000  0.43200  0.00301  1.0000
  S   S4        1.0  0.33300  0.66700  0.01020  1.0000
  S   S5        1.0  0.22000  0.12600  0.31800  1.0000
  S   S6        1.0  0.90700  0.78000  0.31800  1.0000
  S   S7        1.0  0.87400  0.09340  0.31800  1.0000
  S   S8        1.0  0.43200  0.52200  0.50300  1.0000
  S   S9        1.0  0.47800  0.91000  0.50300  1.0000
  S   S10       1.0  0.08960  0.56800  0.50300  1.0000
  S   S11       1.0  0.66700  0.33300  0.51000  1.0000
  S   S12       1.0  0.78000  0.87400  0.81800  1.0000
  S   S13       1.0  0.09340  0.22000  0.81800  1.0000
  S   S14       1.0  0.12600  0.90700  0.81800  1.0000
  Sm  Sm1       1.0  0.21800  0.84400  0.22600  1.0000
  Sm  Sm2       1.0  0.15600  0.37400  0.22600  1.0000
  Sm  Sm3       1.0  0.62600  0.78200  0.22600  1.0000
  Sm  Sm4       1.0  0.78200  0.15600  0.72600  1.0000
  Sm  Sm5       1.0  0.84400  0.62600  0.72600  1.0000
  Sm  Sm6       1.0  0.37400  0.21800  0.72600  1.0000
