data_image0
_chemical_formula_structural       Dy8P8S8
_chemical_formula_sum              "Dy8 P8 S8"
_cell_length_a       5.35232
_cell_length_b       5.31698
_cell_length_c       16.7169
_cell_angle_alpha    90
_cell_angle_beta     90
_cell_angle_gamma    90

_space_group_name_H-M_alt    "P 1"
_space_group_IT_number       1

loop_
  _space_group_symop_operation_xyz
  'x, y, z'

loop_
  _atom_site_type_symbol
  _atom_site_label
  _atom_site_symmetry_multiplicity
  _atom_site_fract_x
  _atom_site_fract_y
  _atom_site_fract_z
  _atom_site_occupancy
  Dy  Dy1       1.0  0.01600  0.75000  0.13800  1.0000
  Dy  Dy2       1.0  0.51400  0.25000  0.14600  1.0000
  Dy  Dy3       1.0  0.01440  0.25000  0.35400  1.0000
  Dy  Dy4       1.0  0.51600  0.75000  0.36200  1.0000
  Dy  Dy5       1.0  0.48400  0.25000  0.63800  1.0000
  Dy  Dy6       1.0  0.98600  0.75000  0.64600  1.0000
  Dy  Dy7       1.0  0.48600  0.75000  0.85400  1.0000
  Dy  Dy8       1.0  0.98400  0.25000  0.86200  1.0000
  P   P1        1.0  0.29200  0.03610  0.00257  1.0000
  P   P2        1.0  0.29200  0.46400  0.00257  1.0000
  P   P3        1.0  0.79200  0.03610  0.49700  1.0000
  P   P4        1.0  0.79200  0.46400  0.49700  1.0000
  P   P5        1.0  0.20800  0.53600  0.50300  1.0000
  P   P6        1.0  0.20800  0.96400  0.50300  1.0000
  P   P7        1.0  0.70800  0.53600  0.99700  1.0000
  P   P8        1.0  0.70800  0.96400  0.99700  1.0000
  S   S1        1.0  0.01140  0.25000  0.18400  1.0000
  S   S2        1.0  0.51500  0.75000  0.18900  1.0000
  S   S3        1.0  0.01520  0.75000  0.31100  1.0000
  S   S4        1.0  0.51100  0.25000  0.31600  1.0000
  S   S5        1.0  0.48900  0.75000  0.68400  1.0000
  S   S6        1.0  0.98500  0.25000  0.68900  1.0000
  S   S7        1.0  0.48500  0.25000  0.81100  1.0000
  S   S8        1.0  0.98900  0.75000  0.81600  1.0000
