data_image0
_chemical_formula_structural       Ce16Co2Ga6
_chemical_formula_sum              "Ce16 Co2 Ga6"
_cell_length_a       10.7002
_cell_length_b       10.7002
_cell_length_c       7.03063
_cell_angle_alpha    90
_cell_angle_beta     90
_cell_angle_gamma    120

_space_group_name_H-M_alt    "P 1"
_space_group_IT_number       1

loop_
  _space_group_symop_operation_xyz
  'x, y, z'

loop_
  _atom_site_type_symbol
  _atom_site_label
  _atom_site_symmetry_multiplicity
  _atom_site_fract_x
  _atom_site_fract_y
  _atom_site_fract_z
  _atom_site_occupancy
  Ce  Ce1       1.0  0.66700  0.33300  0.17700  1.0000
  Ce  Ce2       1.0  0.00000  0.00000  0.28000  1.0000
  Ce  Ce3       1.0  0.46200  0.92400  0.28900  1.0000
  Ce  Ce4       1.0  0.07590  0.53800  0.28900  1.0000
  Ce  Ce5       1.0  0.46200  0.53800  0.28900  1.0000
  Ce  Ce6       1.0  0.33900  0.17000  0.49400  1.0000
  Ce  Ce7       1.0  0.83000  0.17000  0.49400  1.0000
  Ce  Ce8       1.0  0.83000  0.66100  0.49400  1.0000
  Ce  Ce9       1.0  0.33300  0.66700  0.67700  1.0000
  Ce  Ce10      1.0  0.00000  0.00000  0.78000  1.0000
  Ce  Ce11      1.0  0.53800  0.07590  0.78900  1.0000
  Ce  Ce12      1.0  0.53800  0.46200  0.78900  1.0000
  Ce  Ce13      1.0  0.92400  0.46200  0.78900  1.0000
  Ce  Ce14      1.0  0.17000  0.83000  0.99400  1.0000
  Ce  Ce15      1.0  0.66100  0.83000  0.99400  1.0000
  Ce  Ce16      1.0  0.17000  0.33900  0.99400  1.0000
  Co  Co1       1.0  0.33300  0.66700  0.06040  1.0000
  Co  Co2       1.0  0.66700  0.33300  0.56000  1.0000
  Ga  Ga1       1.0  0.83500  0.67000  0.03140  1.0000
  Ga  Ga2       1.0  0.33000  0.16500  0.03140  1.0000
  Ga  Ga3       1.0  0.83500  0.16500  0.03140  1.0000
  Ga  Ga4       1.0  0.16500  0.33000  0.53100  1.0000
  Ga  Ga5       1.0  0.16500  0.83500  0.53100  1.0000
  Ga  Ga6       1.0  0.67000  0.83500  0.53100  1.0000
