data_image0
_chemical_formula_structural       Ba12Ge4I8
_chemical_formula_sum              "Ba12 Ge4 I8"
_cell_length_a       8.77025
_cell_length_b       8.77025
_cell_length_c       15.8153
_cell_angle_alpha    100.84
_cell_angle_beta     100.84
_cell_angle_gamma    108.766

_space_group_name_H-M_alt    "P 1"
_space_group_IT_number       1

loop_
  _space_group_symop_operation_xyz
  'x, y, z'

loop_
  _atom_site_type_symbol
  _atom_site_label
  _atom_site_symmetry_multiplicity
  _atom_site_fract_x
  _atom_site_fract_y
  _atom_site_fract_z
  _atom_site_occupancy
  Ba  Ba1       1.0  0.32000  0.03060  0.06750  1.0000
  Ba  Ba2       1.0  0.74800  0.53700  0.06750  1.0000
  Ba  Ba3       1.0  0.83300  0.08290  0.25000  1.0000
  Ba  Ba4       1.0  0.41700  0.66700  0.25000  1.0000
  Ba  Ba5       1.0  0.46900  0.18000  0.43300  1.0000
  Ba  Ba6       1.0  0.96300  0.75200  0.43300  1.0000
  Ba  Ba7       1.0  0.03680  0.24800  0.56700  1.0000
  Ba  Ba8       1.0  0.53100  0.82000  0.56700  1.0000
  Ba  Ba9       1.0  0.58300  0.33300  0.75000  1.0000
  Ba  Ba10      1.0  0.16700  0.91700  0.75000  1.0000
  Ba  Ba11      1.0  0.25200  0.46300  0.93300  1.0000
  Ba  Ba12      1.0  0.68000  0.96900  0.93300  1.0000
  Ge  Ge1       1.0  0.54100  0.79100  0.08170  1.0000
  Ge  Ge2       1.0  0.70900  0.95900  0.41800  1.0000
  Ge  Ge3       1.0  0.29100  0.04080  0.58200  1.0000
  Ge  Ge4       1.0  0.45900  0.20900  0.91800  1.0000
  I   I1        1.0  0.04760  0.29800  0.09510  1.0000
  I   I2        1.0  0.12100  0.87100  0.24200  1.0000
  I   I3        1.0  0.62900  0.37900  0.25800  1.0000
  I   I4        1.0  0.20200  0.45200  0.40500  1.0000
  I   I5        1.0  0.79800  0.54800  0.59500  1.0000
  I   I6        1.0  0.37100  0.62100  0.74200  1.0000
  I   I7        1.0  0.87900  0.12900  0.75800  1.0000
  I   I8        1.0  0.95200  0.70200  0.90500  1.0000
