data_image0
_chemical_formula_structural       Ba4Cl4O12V4
_chemical_formula_sum              "Ba4 Cl4 O12 V4"
_cell_length_a       5.29664
_cell_length_b       7.35641
_cell_length_c       10.4354
_cell_angle_alpha    90
_cell_angle_beta     90
_cell_angle_gamma    90

_space_group_name_H-M_alt    "P 1"
_space_group_IT_number       1

loop_
  _space_group_symop_operation_xyz
  'x, y, z'

loop_
  _atom_site_type_symbol
  _atom_site_label
  _atom_site_symmetry_multiplicity
  _atom_site_fract_x
  _atom_site_fract_y
  _atom_site_fract_z
  _atom_site_occupancy
  Ba  Ba1       1.0  0.25000  0.09860  0.19500  1.0000
  Ba  Ba2       1.0  0.75000  0.59900  0.30500  1.0000
  Ba  Ba3       1.0  0.25000  0.40100  0.69500  1.0000
  Ba  Ba4       1.0  0.75000  0.90100  0.80500  1.0000
  Cl  Cl1       1.0  0.75000  0.92700  0.10400  1.0000
  Cl  Cl2       1.0  0.25000  0.42700  0.39600  1.0000
  Cl  Cl3       1.0  0.75000  0.57300  0.60400  1.0000
  Cl  Cl4       1.0  0.25000  0.07330  0.89600  1.0000
  O   O1        1.0  0.50600  0.40400  0.09530  1.0000
  O   O2        1.0  0.99400  0.40400  0.09530  1.0000
  O   O3        1.0  0.25000  0.72100  0.14400  1.0000
  O   O4        1.0  0.75000  0.22100  0.35600  1.0000
  O   O5        1.0  0.00617  0.90400  0.40500  1.0000
  O   O6        1.0  0.49400  0.90400  0.40500  1.0000
  O   O7        1.0  0.50600  0.09610  0.59500  1.0000
  O   O8        1.0  0.99400  0.09610  0.59500  1.0000
  O   O9        1.0  0.25000  0.77900  0.64400  1.0000
  O   O10       1.0  0.75000  0.27900  0.85600  1.0000
  O   O11       1.0  0.00617  0.59600  0.90500  1.0000
  O   O12       1.0  0.49400  0.59600  0.90500  1.0000
  V   V1        1.0  0.25000  0.55300  0.03960  1.0000
  V   V2        1.0  0.75000  0.05300  0.46000  1.0000
  V   V3        1.0  0.25000  0.94700  0.54000  1.0000
  V   V4        1.0  0.75000  0.44700  0.96000  1.0000
