data_image0
_chemical_formula_structural       Cl4O12Sr4V4
_chemical_formula_sum              "Cl4 O12 Sr4 V4"
_cell_length_a       5.27622
_cell_length_b       6.94455
_cell_length_c       10.0153
_cell_angle_alpha    90
_cell_angle_beta     90
_cell_angle_gamma    90

_space_group_name_H-M_alt    "P 1"
_space_group_IT_number       1

loop_
  _space_group_symop_operation_xyz
  'x, y, z'

loop_
  _atom_site_type_symbol
  _atom_site_label
  _atom_site_symmetry_multiplicity
  _atom_site_fract_x
  _atom_site_fract_y
  _atom_site_fract_z
  _atom_site_occupancy
  Cl  Cl1       1.0  0.75000  0.93200  0.10600  1.0000
  Cl  Cl2       1.0  0.25000  0.43200  0.39400  1.0000
  Cl  Cl3       1.0  0.75000  0.56800  0.60600  1.0000
  Cl  Cl4       1.0  0.25000  0.06760  0.89400  1.0000
  O   O1        1.0  0.50600  0.40300  0.10200  1.0000
  O   O2        1.0  0.99400  0.40300  0.10200  1.0000
  O   O3        1.0  0.25000  0.74000  0.14200  1.0000
  O   O4        1.0  0.75000  0.24000  0.35800  1.0000
  O   O5        1.0  0.00615  0.90300  0.39800  1.0000
  O   O6        1.0  0.49400  0.90300  0.39800  1.0000
  O   O7        1.0  0.50600  0.09730  0.60200  1.0000
  O   O8        1.0  0.99400  0.09730  0.60200  1.0000
  O   O9        1.0  0.25000  0.76000  0.64200  1.0000
  O   O10       1.0  0.75000  0.26000  0.85800  1.0000
  O   O11       1.0  0.00615  0.59700  0.89800  1.0000
  O   O12       1.0  0.49400  0.59700  0.89800  1.0000
  Sr  Sr1       1.0  0.25000  0.09920  0.19100  1.0000
  Sr  Sr2       1.0  0.75000  0.59900  0.30900  1.0000
  Sr  Sr3       1.0  0.25000  0.40100  0.69100  1.0000
  Sr  Sr4       1.0  0.75000  0.90100  0.80900  1.0000
  V   V1        1.0  0.25000  0.55900  0.03780  1.0000
  V   V2        1.0  0.75000  0.05880  0.46200  1.0000
  V   V3        1.0  0.25000  0.94100  0.53800  1.0000
  V   V4        1.0  0.75000  0.44100  0.96200  1.0000
