data_image0
_chemical_formula_structural       Ba8S12Zn4
_chemical_formula_sum              "Ba8 S12 Zn4"
_cell_length_a       12.1376
_cell_length_b       12.7006
_cell_length_c       4.24029
_cell_angle_alpha    90
_cell_angle_beta     90
_cell_angle_gamma    90

_space_group_name_H-M_alt    "P 1"
_space_group_IT_number       1

loop_
  _space_group_symop_operation_xyz
  'x, y, z'

loop_
  _atom_site_type_symbol
  _atom_site_label
  _atom_site_symmetry_multiplicity
  _atom_site_fract_x
  _atom_site_fract_y
  _atom_site_fract_z
  _atom_site_occupancy
  Ba  Ba1       1.0  0.32700  0.01750  0.25000  1.0000
  Ba  Ba2       1.0  0.82700  0.48300  0.25000  1.0000
  Ba  Ba3       1.0  0.48900  0.67500  0.25000  1.0000
  Ba  Ba4       1.0  0.98900  0.82500  0.25000  1.0000
  Ba  Ba5       1.0  0.01130  0.17500  0.75000  1.0000
  Ba  Ba6       1.0  0.51100  0.32500  0.75000  1.0000
  Ba  Ba7       1.0  0.17300  0.51700  0.75000  1.0000
  Ba  Ba8       1.0  0.67300  0.98300  0.75000  1.0000
  S   S1        1.0  0.86500  0.05300  0.25000  1.0000
  S   S2        1.0  0.56100  0.14000  0.25000  1.0000
  S   S3        1.0  0.06070  0.36000  0.25000  1.0000
  S   S4        1.0  0.36500  0.44700  0.25000  1.0000
  S   S5        1.0  0.22300  0.70800  0.25000  1.0000
  S   S6        1.0  0.72300  0.79200  0.25000  1.0000
  S   S7        1.0  0.27700  0.20800  0.75000  1.0000
  S   S8        1.0  0.77700  0.29200  0.75000  1.0000
  S   S9        1.0  0.63500  0.55300  0.75000  1.0000
  S   S10       1.0  0.93900  0.64000  0.75000  1.0000
  S   S11       1.0  0.43900  0.86000  0.75000  1.0000
  S   S12       1.0  0.13500  0.94700  0.75000  1.0000
  Zn  Zn1       1.0  0.74600  0.19600  0.25000  1.0000
  Zn  Zn2       1.0  0.24600  0.30400  0.25000  1.0000
  Zn  Zn3       1.0  0.75400  0.69600  0.75000  1.0000
  Zn  Zn4       1.0  0.25400  0.80400  0.75000  1.0000
