data_image0
_chemical_formula_structural       Al2Ce6Co2S14
_chemical_formula_sum              "Al2 Ce6 Co2 S14"
_cell_length_a       10.1368
_cell_length_b       10.1367
_cell_length_c       5.99583
_cell_angle_alpha    90
_cell_angle_beta     90
_cell_angle_gamma    120

_space_group_name_H-M_alt    "P 1"
_space_group_IT_number       1

loop_
  _space_group_symop_operation_xyz
  'x, y, z'

loop_
  _atom_site_type_symbol
  _atom_site_label
  _atom_site_symmetry_multiplicity
  _atom_site_fract_x
  _atom_site_fract_y
  _atom_site_fract_z
  _atom_site_occupancy
  Al  Al1       1.0  0.66700  0.33300  0.16300  1.0000
  Al  Al2       1.0  0.33300  0.66700  0.66300  1.0000
  Ce  Ce1       1.0  0.14200  0.37100  0.24100  1.0000
  Ce  Ce2       1.0  0.62900  0.77100  0.24100  1.0000
  Ce  Ce3       1.0  0.22900  0.85800  0.24100  1.0000
  Ce  Ce4       1.0  0.77100  0.14200  0.74100  1.0000
  Ce  Ce5       1.0  0.37100  0.22900  0.74100  1.0000
  Ce  Ce6       1.0  0.85800  0.62900  0.74100  1.0000
  Co  Co1       1.0  0.00000  0.00000  0.03010  1.0000
  Co  Co2       1.0  0.00000  0.00000  0.53000  1.0000
  S   S1        1.0  0.51800  0.09850  0.02000  1.0000
  S   S2        1.0  0.58000  0.48200  0.02000  1.0000
  S   S3        1.0  0.90200  0.42000  0.02000  1.0000
  S   S4        1.0  0.33300  0.66700  0.03190  1.0000
  S   S5        1.0  0.86400  0.08490  0.28500  1.0000
  S   S6        1.0  0.22100  0.13600  0.28500  1.0000
  S   S7        1.0  0.91500  0.77900  0.28500  1.0000
  S   S8        1.0  0.48200  0.90200  0.52000  1.0000
  S   S9        1.0  0.42000  0.51800  0.52000  1.0000
  S   S10       1.0  0.09850  0.58000  0.52000  1.0000
  S   S11       1.0  0.66700  0.33300  0.53200  1.0000
  S   S12       1.0  0.08490  0.22100  0.78500  1.0000
  S   S13       1.0  0.77900  0.86400  0.78500  1.0000
  S   S14       1.0  0.13600  0.91500  0.78500  1.0000
