data_image0
_chemical_formula_structural       Eu2O16Rb2S4
_chemical_formula_sum              "Eu2 O16 Rb2 S4"
_cell_length_a       5.38537
_cell_length_b       7.2029
_cell_length_c       9.30776
_cell_angle_alpha    101.478
_cell_angle_beta     90
_cell_angle_gamma    111.952

_space_group_name_H-M_alt    "P 1"
_space_group_IT_number       1

loop_
  _space_group_symop_operation_xyz
  'x, y, z'

loop_
  _atom_site_type_symbol
  _atom_site_label
  _atom_site_symmetry_multiplicity
  _atom_site_fract_x
  _atom_site_fract_y
  _atom_site_fract_z
  _atom_site_occupancy
  Eu  Eu1       1.0  0.18100  0.00000  0.25000  1.0000
  Eu  Eu2       1.0  0.81900  0.00000  0.75000  1.0000
  O   O1        1.0  0.13800  0.73100  0.02810  1.0000
  O   O2        1.0  0.78400  0.97300  0.07910  1.0000
  O   O3        1.0  0.61400  0.23000  0.18900  1.0000
  O   O4        1.0  0.09340  0.30600  0.20700  1.0000
  O   O5        1.0  0.78700  0.69400  0.29300  1.0000
  O   O6        1.0  0.38400  0.77000  0.31100  1.0000
  O   O7        1.0  0.81100  0.02690  0.42100  1.0000
  O   O8        1.0  0.40700  0.26900  0.47200  1.0000
  O   O9        1.0  0.59300  0.73100  0.52800  1.0000
  O   O10       1.0  0.18900  0.97300  0.57900  1.0000
  O   O11       1.0  0.61600  0.23000  0.68900  1.0000
  O   O12       1.0  0.21300  0.30600  0.70700  1.0000
  O   O13       1.0  0.90700  0.69400  0.79300  1.0000
  O   O14       1.0  0.38600  0.77000  0.81100  1.0000
  O   O15       1.0  0.21600  0.02690  0.92100  1.0000
  O   O16       1.0  0.86200  0.26900  0.97200  1.0000
  Rb  Rb1       1.0  0.50000  0.50000  0.00000  1.0000
  Rb  Rb2       1.0  0.00000  0.50000  0.50000  1.0000
  S   S1        1.0  0.83900  0.19800  0.11200  1.0000
  S   S2        1.0  0.64100  0.80200  0.38800  1.0000
  S   S3        1.0  0.35900  0.19800  0.61200  1.0000
  S   S4        1.0  0.16100  0.80200  0.88800  1.0000
