data_image0
_chemical_formula_structural       Co18Nd2Si4
_chemical_formula_sum              "Co18 Nd2 Si4"
_cell_length_a       6.29382
_cell_length_b       7.54255
_cell_length_c       7.54255
_cell_angle_alpha    100.025
_cell_angle_beta     65.3408
_cell_angle_gamma    114.659

_space_group_name_H-M_alt    "P 1"
_space_group_IT_number       1

loop_
  _space_group_symop_operation_xyz
  'x, y, z'

loop_
  _atom_site_type_symbol
  _atom_site_label
  _atom_site_symmetry_multiplicity
  _atom_site_fract_x
  _atom_site_fract_y
  _atom_site_fract_z
  _atom_site_occupancy
  Co  Co1       1.0  0.35900  0.16900  0.08010  1.0000
  Co  Co2       1.0  0.06120  0.33100  0.08010  1.0000
  Co  Co3       1.0  0.64100  0.08010  0.16900  1.0000
  Co  Co4       1.0  0.69000  0.42000  0.16900  1.0000
  Co  Co5       1.0  0.62500  0.75000  0.25000  1.0000
  Co  Co6       1.0  0.93900  0.08010  0.33100  1.0000
  Co  Co7       1.0  0.23000  0.42000  0.33100  1.0000
  Co  Co8       1.0  0.31000  0.16900  0.42000  1.0000
  Co  Co9       1.0  0.77000  0.33100  0.42000  1.0000
  Co  Co10      1.0  0.23000  0.66900  0.58000  1.0000
  Co  Co11      1.0  0.69000  0.83100  0.58000  1.0000
  Co  Co12      1.0  0.77000  0.58000  0.66900  1.0000
  Co  Co13      1.0  0.06120  0.92000  0.66900  1.0000
  Co  Co14      1.0  0.37500  0.25000  0.75000  1.0000
  Co  Co15      1.0  0.31000  0.58000  0.83100  1.0000
  Co  Co16      1.0  0.35900  0.92000  0.83100  1.0000
  Co  Co17      1.0  0.93900  0.66900  0.92000  1.0000
  Co  Co18      1.0  0.64100  0.83100  0.92000  1.0000
  Nd  Nd1       1.0  0.12500  0.75000  0.25000  1.0000
  Nd  Nd2       1.0  0.87500  0.25000  0.75000  1.0000
  Si  Si1       1.0  0.00000  0.00000  0.00000  1.0000
  Si  Si2       1.0  0.50000  0.50000  0.00000  1.0000
  Si  Si3       1.0  0.50000  0.50000  0.50000  1.0000
  Si  Si4       1.0  0.50000  0.00000  0.50000  1.0000
