data_image0
_chemical_formula_structural       Co2Ho3In4
_chemical_formula_sum              "Co2 Ho3 In4"
_cell_length_a       8.13049
_cell_length_b       8.13054
_cell_length_c       3.4857
_cell_angle_alpha    90
_cell_angle_beta     90
_cell_angle_gamma    120

_space_group_name_H-M_alt    "P 1"
_space_group_IT_number       1

loop_
  _space_group_symop_operation_xyz
  'x, y, z'

loop_
  _atom_site_type_symbol
  _atom_site_label
  _atom_site_symmetry_multiplicity
  _atom_site_fract_x
  _atom_site_fract_y
  _atom_site_fract_z
  _atom_site_occupancy
  Co  Co1       1.0  0.00000  0.00000  0.00000  1.0000
  Co  Co2       1.0  0.33300  0.66700  0.50000  1.0000
  Ho  Ho1       1.0  0.26000  0.01100  0.50000  1.0000
  Ho  Ho2       1.0  0.98900  0.24900  0.50000  1.0000
  Ho  Ho3       1.0  0.75100  0.74000  0.50000  1.0000
  In  In1       1.0  0.36700  0.41900  0.00000  1.0000
  In  In2       1.0  0.05210  0.63300  0.00000  1.0000
  In  In3       1.0  0.58100  0.94800  0.00000  1.0000
  In  In4       1.0  0.66700  0.33300  0.50000  1.0000
