data_image0
_chemical_formula_structural       Al2Dy6Fe2S14
_chemical_formula_sum              "Al2 Dy6 Fe2 S14"
_cell_length_a       9.59873
_cell_length_b       9.64927
_cell_length_c       6.10632
_cell_angle_alpha    90
_cell_angle_beta     90
_cell_angle_gamma    119.997

_space_group_name_H-M_alt    "P 1"
_space_group_IT_number       1

loop_
  _space_group_symop_operation_xyz
  'x, y, z'

loop_
  _atom_site_type_symbol
  _atom_site_label
  _atom_site_symmetry_multiplicity
  _atom_site_fract_x
  _atom_site_fract_y
  _atom_site_fract_z
  _atom_site_occupancy
  Al  Al1       1.0  0.66500  0.33300  0.15500  1.0000
  Al  Al2       1.0  0.33500  0.66700  0.65500  1.0000
  Dy  Dy1       1.0  0.15400  0.38000  0.23000  1.0000
  Dy  Dy2       1.0  0.62400  0.77500  0.23200  1.0000
  Dy  Dy3       1.0  0.22400  0.84800  0.23200  1.0000
  Dy  Dy4       1.0  0.84600  0.62000  0.73000  1.0000
  Dy  Dy5       1.0  0.37600  0.22500  0.73200  1.0000
  Dy  Dy6       1.0  0.77600  0.15200  0.73200  1.0000
  Fe  Fe1       1.0  0.99800  0.99600  0.05680  1.0000
  Fe  Fe2       1.0  0.00182  0.00437  0.55700  1.0000
  S   S1        1.0  0.33400  0.66800  0.02120  1.0000
  S   S2        1.0  0.23900  0.13700  0.31900  1.0000
  S   S3        1.0  0.86400  0.10200  0.31900  1.0000
  S   S4        1.0  0.89900  0.76200  0.32000  1.0000
  S   S5        1.0  0.48200  0.91000  0.49900  1.0000
  S   S6        1.0  0.42900  0.51900  0.50000  1.0000
  S   S7        1.0  0.09060  0.57100  0.50000  1.0000
  S   S8        1.0  0.66600  0.33200  0.52100  1.0000
  S   S9        1.0  0.76100  0.86300  0.81900  1.0000
  S   S10       1.0  0.13600  0.89800  0.81900  1.0000
  S   S11       1.0  0.10100  0.23800  0.82000  1.0000
  S   S12       1.0  0.51800  0.09030  0.99900  1.0000
  S   S13       1.0  0.57100  0.48100  0.00000  1.0000
  S   S14       1.0  0.90900  0.42900  0.00000  1.0000
