data_image0
_chemical_formula_structural       Ca8Ge8In4Li4
_chemical_formula_sum              "Ca8 Ge8 In4 Li4"
_cell_length_a       7.19904
_cell_length_b       4.36892
_cell_length_c       16.4364
_cell_angle_alpha    90
_cell_angle_beta     90
_cell_angle_gamma    90

_space_group_name_H-M_alt    "P 1"
_space_group_IT_number       1

loop_
  _space_group_symop_operation_xyz
  'x, y, z'

loop_
  _atom_site_type_symbol
  _atom_site_label
  _atom_site_symmetry_multiplicity
  _atom_site_fract_x
  _atom_site_fract_y
  _atom_site_fract_z
  _atom_site_occupancy
  Ca  Ca1       1.0  0.34500  0.25000  0.05310  1.0000
  Ca  Ca2       1.0  0.98500  0.25000  0.22100  1.0000
  Ca  Ca3       1.0  0.48500  0.25000  0.27900  1.0000
  Ca  Ca4       1.0  0.84500  0.25000  0.44700  1.0000
  Ca  Ca5       1.0  0.15500  0.75000  0.55300  1.0000
  Ca  Ca6       1.0  0.51500  0.75000  0.72100  1.0000
  Ca  Ca7       1.0  0.01520  0.75000  0.77900  1.0000
  Ca  Ca8       1.0  0.65500  0.75000  0.94700  1.0000
  Ge  Ge1       1.0  0.78100  0.25000  0.05960  1.0000
  Ge  Ge2       1.0  0.27300  0.75000  0.17900  1.0000
  Ge  Ge3       1.0  0.77300  0.75000  0.32100  1.0000
  Ge  Ge4       1.0  0.28100  0.25000  0.44000  1.0000
  Ge  Ge5       1.0  0.71900  0.75000  0.56000  1.0000
  Ge  Ge6       1.0  0.22700  0.25000  0.67900  1.0000
  Ge  Ge7       1.0  0.72700  0.25000  0.82100  1.0000
  Ge  Ge8       1.0  0.21900  0.75000  0.94000  1.0000
  In  In1       1.0  0.65800  0.75000  0.15000  1.0000
  In  In2       1.0  0.15800  0.75000  0.35000  1.0000
  In  In3       1.0  0.84200  0.25000  0.65000  1.0000
  In  In4       1.0  0.34200  0.25000  0.85000  1.0000
  Li  Li1       1.0  0.00264  0.75000  0.06490  1.0000
  Li  Li2       1.0  0.50300  0.75000  0.43500  1.0000
  Li  Li3       1.0  0.49700  0.25000  0.56500  1.0000
  Li  Li4       1.0  0.99700  0.25000  0.93500  1.0000
