data_image0
_chemical_formula_structural       O16Rb2V6
_chemical_formula_sum              "O16 Rb2 V6"
_cell_length_a       4.97938
_cell_length_b       7.68601
_cell_length_c       8.34399
_cell_angle_alpha    90
_cell_angle_beta     90
_cell_angle_gamma    95.9208

_space_group_name_H-M_alt    "P 1"
_space_group_IT_number       1

loop_
  _space_group_symop_operation_xyz
  'x, y, z'

loop_
  _atom_site_type_symbol
  _atom_site_label
  _atom_site_symmetry_multiplicity
  _atom_site_fract_x
  _atom_site_fract_y
  _atom_site_fract_z
  _atom_site_occupancy
  O   O1        1.0  0.43400  0.16600  0.07100  1.0000
  O   O2        1.0  0.69000  0.50600  0.08690  1.0000
  O   O3        1.0  0.10700  0.74700  0.09480  1.0000
  O   O4        1.0  0.14600  0.44400  0.25000  1.0000
  O   O5        1.0  0.58600  0.76500  0.25000  1.0000
  O   O6        1.0  0.10700  0.74700  0.40500  1.0000
  O   O7        1.0  0.69000  0.50600  0.41300  1.0000
  O   O8        1.0  0.43400  0.16600  0.42900  1.0000
  O   O9        1.0  0.56600  0.83400  0.57100  1.0000
  O   O10       1.0  0.31000  0.49400  0.58700  1.0000
  O   O11       1.0  0.89300  0.25300  0.59500  1.0000
  O   O12       1.0  0.41400  0.23500  0.75000  1.0000
  O   O13       1.0  0.85400  0.55600  0.75000  1.0000
  O   O14       1.0  0.89300  0.25300  0.90500  1.0000
  O   O15       1.0  0.31000  0.49400  0.91300  1.0000
  O   O16       1.0  0.56600  0.83400  0.92900  1.0000
  Rb  Rb1       1.0  0.94400  0.07670  0.25000  1.0000
  Rb  Rb2       1.0  0.05580  0.92300  0.75000  1.0000
  V   V1        1.0  0.43700  0.68600  0.05280  1.0000
  V   V2        1.0  0.93200  0.59100  0.25000  1.0000
  V   V3        1.0  0.43700  0.68600  0.44700  1.0000
  V   V4        1.0  0.56300  0.31400  0.55300  1.0000
  V   V5        1.0  0.06830  0.40900  0.75000  1.0000
  V   V6        1.0  0.56300  0.31400  0.94700  1.0000
