data_image0
_chemical_formula_structural       Al2B4Li6O12
_chemical_formula_sum              "Al2 B4 Li6 O12"
_cell_length_a       5.98184
_cell_length_b       4.90254
_cell_length_c       8.67149
_cell_angle_alpha    89.6307
_cell_angle_beta     119.19
_cell_angle_gamma    90.2175

_space_group_name_H-M_alt    "P 1"
_space_group_IT_number       1

loop_
  _space_group_symop_operation_xyz
  'x, y, z'

loop_
  _atom_site_type_symbol
  _atom_site_label
  _atom_site_symmetry_multiplicity
  _atom_site_fract_x
  _atom_site_fract_y
  _atom_site_fract_z
  _atom_site_occupancy
  Al  Al1       1.0  0.19200  0.35600  0.23100  1.0000
  Al  Al2       1.0  0.80800  0.64400  0.76900  1.0000
  B   B1        1.0  0.74800  0.65600  0.06820  1.0000
  B   B2        1.0  0.24200  0.83800  0.41000  1.0000
  B   B3        1.0  0.75800  0.16200  0.59000  1.0000
  B   B4        1.0  0.25200  0.34400  0.93200  1.0000
  Li  Li1       1.0  0.35000  0.84000  0.10800  1.0000
  Li  Li2       1.0  0.74500  0.16600  0.24800  1.0000
  Li  Li3       1.0  0.81200  0.67500  0.42500  1.0000
  Li  Li4       1.0  0.18800  0.32500  0.57500  1.0000
  Li  Li5       1.0  0.25500  0.83400  0.75200  1.0000
  Li  Li6       1.0  0.65000  0.16000  0.89200  1.0000
  O   O1        1.0  0.31300  0.22900  0.09620  1.0000
  O   O2        1.0  0.85000  0.38800  0.10000  1.0000
  O   O3        1.0  0.70300  0.78800  0.18500  1.0000
  O   O4        1.0  0.29100  0.69400  0.29000  1.0000
  O   O5        1.0  0.22700  0.12200  0.39300  1.0000
  O   O6        1.0  0.79800  0.29200  0.46800  1.0000
  O   O7        1.0  0.20200  0.70800  0.53200  1.0000
  O   O8        1.0  0.77300  0.87800  0.60700  1.0000
  O   O9        1.0  0.70900  0.30600  0.71000  1.0000
  O   O10       1.0  0.29700  0.21200  0.81500  1.0000
  O   O11       1.0  0.15000  0.61200  0.90000  1.0000
  O   O12       1.0  0.68700  0.77100  0.90400  1.0000
