data_image0
_chemical_formula_structural       C8N12Na4
_chemical_formula_sum              "C8 N12 Na4"
_cell_length_a       6.31471
_cell_length_b       15.0577
_cell_length_c       3.4638
_cell_angle_alpha    90
_cell_angle_beta     93.3609
_cell_angle_gamma    90

_space_group_name_H-M_alt    "P 1"
_space_group_IT_number       1

loop_
  _space_group_symop_operation_xyz
  'x, y, z'

loop_
  _atom_site_type_symbol
  _atom_site_label
  _atom_site_symmetry_multiplicity
  _atom_site_fract_x
  _atom_site_fract_y
  _atom_site_fract_z
  _atom_site_occupancy
  C   C1        1.0  0.45600  0.72800  0.23400  1.0000
  C   C2        1.0  0.34500  0.58200  0.24600  1.0000
  C   C3        1.0  0.15500  0.08250  0.25400  1.0000
  C   C4        1.0  0.04380  0.22800  0.26600  1.0000
  C   C5        1.0  0.95600  0.77200  0.73400  1.0000
  C   C6        1.0  0.84500  0.91800  0.74600  1.0000
  C   C7        1.0  0.65500  0.41800  0.75400  1.0000
  C   C8        1.0  0.54400  0.27200  0.76600  1.0000
  N   N1        1.0  0.48800  0.64300  0.21400  1.0000
  N   N2        1.0  0.27300  0.02190  0.22600  1.0000
  N   N3        1.0  0.44600  0.80600  0.24700  1.0000
  N   N4        1.0  0.05390  0.30600  0.25300  1.0000
  N   N5        1.0  0.22700  0.52200  0.27400  1.0000
  N   N6        1.0  0.01200  0.14300  0.28600  1.0000
  N   N7        1.0  0.98800  0.85700  0.71400  1.0000
  N   N8        1.0  0.77300  0.47800  0.72600  1.0000
  N   N9        1.0  0.94600  0.69400  0.74700  1.0000
  N   N10       1.0  0.55400  0.19400  0.75300  1.0000
  N   N11       1.0  0.72700  0.97800  0.77400  1.0000
  N   N12       1.0  0.51200  0.35700  0.78600  1.0000
  Na  Na1       1.0  0.86300  0.58700  0.23800  1.0000
  Na  Na2       1.0  0.63700  0.08680  0.26200  1.0000
  Na  Na3       1.0  0.36300  0.91300  0.73800  1.0000
  Na  Na4       1.0  0.13700  0.41300  0.76200  1.0000
