data_image0
_chemical_formula_structural       Ca3H4O14S3
_chemical_formula_sum              "Ca3 H4 O14 S3"
_cell_length_a       6.28888
_cell_length_b       6.89676
_cell_length_c       6.83142
_cell_angle_alpha    120.317
_cell_angle_beta     90.7848
_cell_angle_gamma    90

_space_group_name_H-M_alt    "P 1"
_space_group_IT_number       1

loop_
  _space_group_symop_operation_xyz
  'x, y, z'

loop_
  _atom_site_type_symbol
  _atom_site_label
  _atom_site_symmetry_multiplicity
  _atom_site_fract_x
  _atom_site_fract_y
  _atom_site_fract_z
  _atom_site_occupancy
  Ca  Ca1       1.0  0.00000  0.02280  0.00000  1.0000
  Ca  Ca2       1.0  0.32500  0.57800  0.43600  1.0000
  Ca  Ca3       1.0  0.67500  0.14200  0.56400  1.0000
  H   H1        1.0  0.32900  0.67100  0.02910  1.0000
  H   H2        1.0  0.80200  0.49100  0.03490  1.0000
  H   H3        1.0  0.19800  0.45600  0.96500  1.0000
  H   H4        1.0  0.67100  0.64200  0.97100  1.0000
  O   O1        1.0  0.26100  0.59000  0.09500  1.0000
  O   O2        1.0  0.35100  0.20100  0.13100  1.0000
  O   O3        1.0  0.63600  0.96300  0.14800  1.0000
  O   O4        1.0  0.95500  0.41900  0.24600  1.0000
  O   O5        1.0  0.02150  0.05550  0.36100  1.0000
  O   O6        1.0  0.70500  0.73100  0.39900  1.0000
  O   O7        1.0  0.66700  0.44400  0.49100  1.0000
  O   O8        1.0  0.33300  0.95200  0.50900  1.0000
  O   O9        1.0  0.29500  0.33100  0.60100  1.0000
  O   O10       1.0  0.97900  0.69400  0.63900  1.0000
  O   O11       1.0  0.04490  0.17400  0.75400  1.0000
  O   O12       1.0  0.36400  0.81500  0.85200  1.0000
  O   O13       1.0  0.64900  0.06990  0.86900  1.0000
  O   O14       1.0  0.73900  0.49500  0.90500  1.0000
  S   S1        1.0  0.50000  0.01470  0.00000  1.0000
  S   S2        1.0  0.82500  0.57400  0.44600  1.0000
  S   S3        1.0  0.17500  0.12800  0.55400  1.0000
