data_image0
_chemical_formula_structural       Ge4Na8Se12
_chemical_formula_sum              "Ge4 Na8 Se12"
_cell_length_a       6.12592
_cell_length_b       7.16656
_cell_length_c       16.3148
_cell_angle_alpha    90
_cell_angle_beta     90
_cell_angle_gamma    113.881

_space_group_name_H-M_alt    "P 1"
_space_group_IT_number       1

loop_
  _space_group_symop_operation_xyz
  'x, y, z'

loop_
  _atom_site_type_symbol
  _atom_site_label
  _atom_site_symmetry_multiplicity
  _atom_site_fract_x
  _atom_site_fract_y
  _atom_site_fract_z
  _atom_site_occupancy
  Ge  Ge1       1.0  0.34000  0.02850  0.17000  1.0000
  Ge  Ge2       1.0  0.84000  0.02850  0.33000  1.0000
  Ge  Ge3       1.0  0.16000  0.97200  0.67000  1.0000
  Ge  Ge4       1.0  0.66000  0.97200  0.83000  1.0000
  Na  Na1       1.0  0.66600  0.78300  0.02360  1.0000
  Na  Na2       1.0  0.97000  0.42900  0.16700  1.0000
  Na  Na3       1.0  0.47000  0.42900  0.33300  1.0000
  Na  Na4       1.0  0.16600  0.78300  0.47600  1.0000
  Na  Na5       1.0  0.83400  0.21700  0.52400  1.0000
  Na  Na6       1.0  0.53000  0.57100  0.66700  1.0000
  Na  Na7       1.0  0.02990  0.57100  0.83300  1.0000
  Na  Na8       1.0  0.33400  0.21700  0.97600  1.0000
  Se  Se1       1.0  0.16200  0.80300  0.06090  1.0000
  Se  Se2       1.0  0.44500  0.37800  0.14700  1.0000
  Se  Se3       1.0  0.67900  0.94100  0.19300  1.0000
  Se  Se4       1.0  0.17900  0.94100  0.30700  1.0000
  Se  Se5       1.0  0.94500  0.37800  0.35300  1.0000
  Se  Se6       1.0  0.66200  0.80300  0.43900  1.0000
  Se  Se7       1.0  0.33800  0.19700  0.56100  1.0000
  Se  Se8       1.0  0.05500  0.62200  0.64700  1.0000
  Se  Se9       1.0  0.82100  0.05900  0.69300  1.0000
  Se  Se10      1.0  0.32100  0.05900  0.80700  1.0000
  Se  Se11      1.0  0.55500  0.62200  0.85300  1.0000
  Se  Se12      1.0  0.83800  0.19700  0.93900  1.0000
