data_image0
_chemical_formula_structural       B4Ca8Cl4N8
_chemical_formula_sum              "B4 Ca8 Cl4 N8"
_cell_length_a       3.88052
_cell_length_b       8.98476
_cell_length_c       11.634
_cell_angle_alpha    90
_cell_angle_beta     90
_cell_angle_gamma    90

_space_group_name_H-M_alt    "P 1"
_space_group_IT_number       1

loop_
  _space_group_symop_operation_xyz
  'x, y, z'

loop_
  _atom_site_type_symbol
  _atom_site_label
  _atom_site_symmetry_multiplicity
  _atom_site_fract_x
  _atom_site_fract_y
  _atom_site_fract_z
  _atom_site_occupancy
  B   B1        1.0  0.75000  0.31800  0.16500  1.0000
  B   B2        1.0  0.25000  0.81800  0.33500  1.0000
  B   B3        1.0  0.75000  0.18200  0.66500  1.0000
  B   B4        1.0  0.25000  0.68200  0.83500  1.0000
  Ca  Ca1       1.0  0.25000  0.60900  0.08960  1.0000
  Ca  Ca2       1.0  0.25000  0.04980  0.17000  1.0000
  Ca  Ca3       1.0  0.75000  0.55000  0.33000  1.0000
  Ca  Ca4       1.0  0.75000  0.10900  0.41000  1.0000
  Ca  Ca5       1.0  0.25000  0.89100  0.59000  1.0000
  Ca  Ca6       1.0  0.25000  0.45000  0.67000  1.0000
  Ca  Ca7       1.0  0.75000  0.95000  0.83000  1.0000
  Ca  Ca8       1.0  0.75000  0.39100  0.91000  1.0000
  Cl  Cl1       1.0  0.75000  0.84700  0.06110  1.0000
  Cl  Cl2       1.0  0.25000  0.34700  0.43900  1.0000
  Cl  Cl3       1.0  0.75000  0.65300  0.56100  1.0000
  Cl  Cl4       1.0  0.25000  0.15300  0.93900  1.0000
  N   N1        1.0  0.75000  0.45800  0.12200  1.0000
  N   N2        1.0  0.75000  0.18300  0.21400  1.0000
  N   N3        1.0  0.25000  0.68300  0.28600  1.0000
  N   N4        1.0  0.25000  0.95800  0.37800  1.0000
  N   N5        1.0  0.75000  0.04190  0.62200  1.0000
  N   N6        1.0  0.75000  0.31700  0.71400  1.0000
  N   N7        1.0  0.25000  0.81700  0.78600  1.0000
  N   N8        1.0  0.25000  0.54200  0.87800  1.0000
