data_image0
_chemical_formula_structural       Ga4K4Sb16
_chemical_formula_sum              "Ga4 K4 Sb16"
_cell_length_a       10.5186
_cell_length_b       4.27182
_cell_length_c       18.1609
_cell_angle_alpha    90
_cell_angle_beta     90
_cell_angle_gamma    90

_space_group_name_H-M_alt    "P 1"
_space_group_IT_number       1

loop_
  _space_group_symop_operation_xyz
  'x, y, z'

loop_
  _atom_site_type_symbol
  _atom_site_label
  _atom_site_symmetry_multiplicity
  _atom_site_fract_x
  _atom_site_fract_y
  _atom_site_fract_z
  _atom_site_occupancy
  Ga  Ga1       1.0  0.81700  0.75000  0.13100  1.0000
  Ga  Ga2       1.0  0.31700  0.75000  0.36900  1.0000
  Ga  Ga3       1.0  0.68300  0.25000  0.63100  1.0000
  Ga  Ga4       1.0  0.18300  0.25000  0.86900  1.0000
  K   K1        1.0  0.32100  0.25000  0.06570  1.0000
  K   K2        1.0  0.82100  0.25000  0.43400  1.0000
  K   K3        1.0  0.17900  0.75000  0.56600  1.0000
  K   K4        1.0  0.67900  0.75000  0.93400  1.0000
  Sb  Sb1       1.0  0.03420  0.75000  0.05030  1.0000
  Sb  Sb2       1.0  0.66800  0.25000  0.10100  1.0000
  Sb  Sb3       1.0  0.38800  0.75000  0.22600  1.0000
  Sb  Sb4       1.0  0.57100  0.25000  0.24900  1.0000
  Sb  Sb5       1.0  0.07080  0.25000  0.25100  1.0000
  Sb  Sb6       1.0  0.88800  0.75000  0.27400  1.0000
  Sb  Sb7       1.0  0.16800  0.25000  0.39900  1.0000
  Sb  Sb8       1.0  0.53400  0.75000  0.45000  1.0000
  Sb  Sb9       1.0  0.46600  0.25000  0.55000  1.0000
  Sb  Sb10      1.0  0.83200  0.75000  0.60100  1.0000
  Sb  Sb11      1.0  0.11200  0.25000  0.72600  1.0000
  Sb  Sb12      1.0  0.92900  0.75000  0.74900  1.0000
  Sb  Sb13      1.0  0.42900  0.75000  0.75100  1.0000
  Sb  Sb14      1.0  0.61200  0.25000  0.77400  1.0000
  Sb  Sb15      1.0  0.33200  0.75000  0.89900  1.0000
  Sb  Sb16      1.0  0.96600  0.25000  0.95000  1.0000
