data_image0
_chemical_formula_structural       Ce8Cu2S14
_chemical_formula_sum              "Ce8 Cu2 S14"
_cell_length_a       10.2677
_cell_length_b       10.4309
_cell_length_c       5.9134
_cell_angle_alpha    90
_cell_angle_beta     90
_cell_angle_gamma    119.126

_space_group_name_H-M_alt    "P 1"
_space_group_IT_number       1

loop_
  _space_group_symop_operation_xyz
  'x, y, z'

loop_
  _atom_site_type_symbol
  _atom_site_label
  _atom_site_symmetry_multiplicity
  _atom_site_fract_x
  _atom_site_fract_y
  _atom_site_fract_z
  _atom_site_occupancy
  Ce  Ce1       1.0  0.69100  0.38800  0.19600  1.0000
  Ce  Ce2       1.0  0.17500  0.34900  0.22500  1.0000
  Ce  Ce3       1.0  0.63600  0.83300  0.25800  1.0000
  Ce  Ce4       1.0  0.18900  0.82500  0.26000  1.0000
  Ce  Ce5       1.0  0.30900  0.61200  0.69600  1.0000
  Ce  Ce6       1.0  0.82500  0.65100  0.72500  1.0000
  Ce  Ce7       1.0  0.36400  0.16700  0.75800  1.0000
  Ce  Ce8       1.0  0.81100  0.17500  0.76000  1.0000
  Cu  Cu1       1.0  0.99900  0.99800  0.25900  1.0000
  Cu  Cu2       1.0  0.00066  0.00214  0.75900  1.0000
  S   S1        1.0  0.55200  0.09770  0.06250  1.0000
  S   S2        1.0  0.33200  0.66500  0.14800  1.0000
  S   S3        1.0  0.87000  0.74400  0.24900  1.0000
  S   S4        1.0  0.25400  0.12400  0.26000  1.0000
  S   S5        1.0  0.87400  0.12700  0.26100  1.0000
  S   S6        1.0  0.49600  0.51100  0.46200  1.0000
  S   S7        1.0  0.01620  0.51000  0.47200  1.0000
  S   S8        1.0  0.44800  0.90200  0.56200  1.0000
  S   S9        1.0  0.66800  0.33500  0.64800  1.0000
  S   S10       1.0  0.13000  0.25600  0.74900  1.0000
  S   S11       1.0  0.74600  0.87600  0.76000  1.0000
  S   S12       1.0  0.12600  0.87300  0.76100  1.0000
  S   S13       1.0  0.50400  0.48900  0.96200  1.0000
  S   S14       1.0  0.98400  0.49000  0.97200  1.0000
