data_image0
_chemical_formula_structural       Cl12Gd8N4
_chemical_formula_sum              "Cl12 Gd8 N4"
_cell_length_a       13.0837
_cell_length_b       6.73531
_cell_length_c       6.14846
_cell_angle_alpha    90
_cell_angle_beta     90
_cell_angle_gamma    90

_space_group_name_H-M_alt    "P 1"
_space_group_IT_number       1

loop_
  _space_group_symop_operation_xyz
  'x, y, z'

loop_
  _atom_site_type_symbol
  _atom_site_label
  _atom_site_symmetry_multiplicity
  _atom_site_fract_x
  _atom_site_fract_y
  _atom_site_fract_z
  _atom_site_occupancy
  Cl  Cl1       1.0  0.77900  0.13500  0.11000  1.0000
  Cl  Cl2       1.0  0.72100  0.63500  0.11000  1.0000
  Cl  Cl3       1.0  0.00000  0.49700  0.25000  1.0000
  Cl  Cl4       1.0  0.50000  0.99700  0.25000  1.0000
  Cl  Cl5       1.0  0.22100  0.13500  0.39000  1.0000
  Cl  Cl6       1.0  0.27900  0.63500  0.39000  1.0000
  Cl  Cl7       1.0  0.72100  0.36500  0.61000  1.0000
  Cl  Cl8       1.0  0.77900  0.86500  0.61000  1.0000
  Cl  Cl9       1.0  0.50000  0.00290  0.75000  1.0000
  Cl  Cl10      1.0  0.00000  0.50300  0.75000  1.0000
  Cl  Cl11      1.0  0.27900  0.36500  0.89000  1.0000
  Cl  Cl12      1.0  0.22100  0.86500  0.89000  1.0000
  Gd  Gd1       1.0  0.09180  0.17300  0.00775  1.0000
  Gd  Gd2       1.0  0.40800  0.67300  0.00775  1.0000
  Gd  Gd3       1.0  0.90800  0.17300  0.49200  1.0000
  Gd  Gd4       1.0  0.59200  0.67300  0.49200  1.0000
  Gd  Gd5       1.0  0.40800  0.32700  0.50800  1.0000
  Gd  Gd6       1.0  0.09180  0.82700  0.50800  1.0000
  Gd  Gd7       1.0  0.59200  0.32700  0.99200  1.0000
  Gd  Gd8       1.0  0.90800  0.82700  0.99200  1.0000
  N   N1        1.0  0.50000  0.49000  0.25000  1.0000
  N   N2        1.0  0.00000  0.99000  0.25000  1.0000
  N   N3        1.0  0.00000  0.01010  0.75000  1.0000
  N   N4        1.0  0.50000  0.51000  0.75000  1.0000
