data_image0
_chemical_formula_structural       Al2Co2Gd6S14
_chemical_formula_sum              "Al2 Co2 Gd6 S14"
_cell_length_a       9.54644
_cell_length_b       9.54628
_cell_length_c       6.19053
_cell_angle_alpha    90
_cell_angle_beta     90
_cell_angle_gamma    119.999

_space_group_name_H-M_alt    "P 1"
_space_group_IT_number       1

loop_
  _space_group_symop_operation_xyz
  'x, y, z'

loop_
  _atom_site_type_symbol
  _atom_site_label
  _atom_site_symmetry_multiplicity
  _atom_site_fract_x
  _atom_site_fract_y
  _atom_site_fract_z
  _atom_site_occupancy
  Al  Al1       1.0  0.66700  0.33300  0.14800  1.0000
  Al  Al2       1.0  0.33300  0.66700  0.64800  1.0000
  Co  Co1       1.0  0.00000  0.00000  0.06820  1.0000
  Co  Co2       1.0  0.00000  0.00000  0.56800  1.0000
  Gd  Gd1       1.0  0.16200  0.37600  0.22500  1.0000
  Gd  Gd2       1.0  0.21300  0.83800  0.22500  1.0000
  Gd  Gd3       1.0  0.62400  0.78700  0.22500  1.0000
  Gd  Gd4       1.0  0.83800  0.62400  0.72500  1.0000
  Gd  Gd5       1.0  0.78700  0.16200  0.72500  1.0000
  Gd  Gd6       1.0  0.37600  0.21300  0.72500  1.0000
  S   S1        1.0  0.91400  0.43800  0.00099  1.0000
  S   S2        1.0  0.52500  0.08620  0.00099  1.0000
  S   S3        1.0  0.56200  0.47500  0.00100  1.0000
  S   S4        1.0  0.33300  0.66700  0.00940  1.0000
  S   S5        1.0  0.22200  0.12400  0.32200  1.0000
  S   S6        1.0  0.90200  0.77800  0.32200  1.0000
  S   S7        1.0  0.87600  0.09840  0.32200  1.0000
  S   S8        1.0  0.08620  0.56200  0.50100  1.0000
  S   S9        1.0  0.47500  0.91400  0.50100  1.0000
  S   S10       1.0  0.43800  0.52500  0.50100  1.0000
  S   S11       1.0  0.66700  0.33300  0.50900  1.0000
  S   S12       1.0  0.09840  0.22200  0.82200  1.0000
  S   S13       1.0  0.77800  0.87600  0.82200  1.0000
  S   S14       1.0  0.12400  0.90200  0.82200  1.0000
