data_image0
_chemical_formula_structural       Ba6Cl4Fe4O10
_chemical_formula_sum              "Ba6 Cl4 Fe4 O10"
_cell_length_a       8.6843
_cell_length_b       8.6843
_cell_length_c       8.6843
_cell_angle_alpha    109.471
_cell_angle_beta     109.471
_cell_angle_gamma    109.471

_space_group_name_H-M_alt    "P 1"
_space_group_IT_number       1

loop_
  _space_group_symop_operation_xyz
  'x, y, z'

loop_
  _atom_site_type_symbol
  _atom_site_label
  _atom_site_symmetry_multiplicity
  _atom_site_fract_x
  _atom_site_fract_y
  _atom_site_fract_z
  _atom_site_occupancy
  Ba  Ba1       1.0  0.90600  0.25000  0.15600  1.0000
  Ba  Ba2       1.0  0.34400  0.09440  0.25000  1.0000
  Ba  Ba3       1.0  0.59400  0.75000  0.34400  1.0000
  Ba  Ba4       1.0  0.25000  0.84400  0.59400  1.0000
  Ba  Ba5       1.0  0.15600  0.40600  0.75000  1.0000
  Ba  Ba6       1.0  0.75000  0.65600  0.90600  1.0000
  Cl  Cl1       1.0  0.50000  0.88500  0.00000  1.0000
  Cl  Cl2       1.0  0.11500  0.61500  0.11500  1.0000
  Cl  Cl3       1.0  0.00000  0.00000  0.38500  1.0000
  Cl  Cl4       1.0  0.38500  0.50000  0.50000  1.0000
  Fe  Fe1       1.0  0.50000  0.31200  0.00000  1.0000
  Fe  Fe2       1.0  0.81200  0.50000  0.50000  1.0000
  Fe  Fe3       1.0  0.68800  0.18800  0.68800  1.0000
  Fe  Fe4       1.0  0.00000  0.00000  0.81200  1.0000
  O   O1        1.0  0.50000  0.52300  0.00000  1.0000
  O   O2        1.0  0.00000  0.00000  0.02340  1.0000
  O   O3        1.0  0.60900  0.35900  0.25000  1.0000
  O   O4        1.0  0.47700  0.97700  0.47700  1.0000
  O   O5        1.0  0.02340  0.50000  0.50000  1.0000
  O   O6        1.0  0.85900  0.75000  0.60900  1.0000
  O   O7        1.0  0.75000  0.39100  0.64100  1.0000
  O   O8        1.0  0.89100  0.14100  0.75000  1.0000
  O   O9        1.0  0.25000  0.10900  0.85900  1.0000
  O   O10       1.0  0.64100  0.25000  0.89100  1.0000
