data_image0
_chemical_formula_structural       Cl4Ho4O12Se4
_chemical_formula_sum              "Cl4 Ho4 O12 Se4"
_cell_length_a       7.10266
_cell_length_b       6.91533
_cell_length_c       8.76241
_cell_angle_alpha    90
_cell_angle_beta     90
_cell_angle_gamma    90

_space_group_name_H-M_alt    "P 1"
_space_group_IT_number       1

loop_
  _space_group_symop_operation_xyz
  'x, y, z'

loop_
  _atom_site_type_symbol
  _atom_site_label
  _atom_site_symmetry_multiplicity
  _atom_site_fract_x
  _atom_site_fract_y
  _atom_site_fract_z
  _atom_site_occupancy
  Cl  Cl1       1.0  0.94700  0.25000  0.17900  1.0000
  Cl  Cl2       1.0  0.44700  0.25000  0.32100  1.0000
  Cl  Cl3       1.0  0.55300  0.75000  0.67900  1.0000
  Cl  Cl4       1.0  0.05300  0.75000  0.82100  1.0000
  Ho  Ho1       1.0  0.60200  0.25000  0.04100  1.0000
  Ho  Ho2       1.0  0.10200  0.25000  0.45900  1.0000
  Ho  Ho3       1.0  0.89800  0.75000  0.54100  1.0000
  Ho  Ho4       1.0  0.39800  0.75000  0.95900  1.0000
  O   O1        1.0  0.64600  0.57100  0.06530  1.0000
  O   O2        1.0  0.64600  0.92900  0.06530  1.0000
  O   O3        1.0  0.24600  0.75000  0.17700  1.0000
  O   O4        1.0  0.74600  0.75000  0.32300  1.0000
  O   O5        1.0  0.14600  0.57100  0.43500  1.0000
  O   O6        1.0  0.14600  0.92900  0.43500  1.0000
  O   O7        1.0  0.85400  0.07130  0.56500  1.0000
  O   O8        1.0  0.85400  0.42900  0.56500  1.0000
  O   O9        1.0  0.25400  0.25000  0.67700  1.0000
  O   O10       1.0  0.75400  0.25000  0.82300  1.0000
  O   O11       1.0  0.35400  0.07130  0.93500  1.0000
  O   O12       1.0  0.35400  0.42900  0.93500  1.0000
  Se  Se1       1.0  0.79900  0.75000  0.13400  1.0000
  Se  Se2       1.0  0.29900  0.75000  0.36600  1.0000
  Se  Se3       1.0  0.70100  0.25000  0.63400  1.0000
  Se  Se4       1.0  0.20100  0.25000  0.86600  1.0000
