data_image0
_chemical_formula_structural       Eu8Ni16
_chemical_formula_sum              "Eu8 Ni16"
_cell_length_a       5.01613
_cell_length_b       5.01608
_cell_length_c       16.5306
_cell_angle_alpha    90
_cell_angle_beta     90
_cell_angle_gamma    120

_space_group_name_H-M_alt    "P 1"
_space_group_IT_number       1

loop_
  _space_group_symop_operation_xyz
  'x, y, z'

loop_
  _atom_site_type_symbol
  _atom_site_label
  _atom_site_symmetry_multiplicity
  _atom_site_fract_x
  _atom_site_fract_y
  _atom_site_fract_z
  _atom_site_occupancy
  Eu  Eu1       1.0  0.00000  0.00000  0.09150  1.0000
  Eu  Eu2       1.0  0.66700  0.33300  0.15600  1.0000
  Eu  Eu3       1.0  0.66700  0.33300  0.34400  1.0000
  Eu  Eu4       1.0  0.00000  0.00000  0.40800  1.0000
  Eu  Eu5       1.0  0.00000  0.00000  0.59200  1.0000
  Eu  Eu6       1.0  0.33300  0.66700  0.65600  1.0000
  Eu  Eu7       1.0  0.33300  0.66700  0.84400  1.0000
  Eu  Eu8       1.0  0.00000  0.00000  0.90800  1.0000
  Ni  Ni1       1.0  0.50000  0.00000  0.00000  1.0000
  Ni  Ni2       1.0  0.00000  0.50000  0.00000  1.0000
  Ni  Ni3       1.0  0.50000  0.50000  0.00000  1.0000
  Ni  Ni4       1.0  0.33300  0.66700  0.12400  1.0000
  Ni  Ni5       1.0  0.16800  0.33600  0.25000  1.0000
  Ni  Ni6       1.0  0.16800  0.83200  0.25000  1.0000
  Ni  Ni7       1.0  0.66400  0.83200  0.25000  1.0000
  Ni  Ni8       1.0  0.33300  0.66700  0.37600  1.0000
  Ni  Ni9       1.0  0.50000  0.00000  0.50000  1.0000
  Ni  Ni10      1.0  0.00000  0.50000  0.50000  1.0000
  Ni  Ni11      1.0  0.50000  0.50000  0.50000  1.0000
  Ni  Ni12      1.0  0.66700  0.33300  0.62400  1.0000
  Ni  Ni13      1.0  0.33600  0.16800  0.75000  1.0000
  Ni  Ni14      1.0  0.83200  0.16800  0.75000  1.0000
  Ni  Ni15      1.0  0.83200  0.66400  0.75000  1.0000
  Ni  Ni16      1.0  0.66700  0.33300  0.87600  1.0000
