data_image0
_chemical_formula_structural       Al2B6Ca2O14
_chemical_formula_sum              "Al2 B6 Ca2 O14"
_cell_length_a       4.3662
_cell_length_b       7.0716
_cell_length_c       7.0716
_cell_angle_alpha    68.1394
_cell_angle_beta     90
_cell_angle_gamma    90

_space_group_name_H-M_alt    "P 1"
_space_group_IT_number       1

loop_
  _space_group_symop_operation_xyz
  'x, y, z'

loop_
  _atom_site_type_symbol
  _atom_site_label
  _atom_site_symmetry_multiplicity
  _atom_site_fract_x
  _atom_site_fract_y
  _atom_site_fract_z
  _atom_site_occupancy
  Al  Al1       1.0  0.00000  0.00000  0.00000  1.0000
  Al  Al2       1.0  0.00000  0.50000  0.50000  1.0000
  B   B1        1.0  0.45800  0.13700  0.13700  1.0000
  B   B2        1.0  0.50000  0.75000  0.25000  1.0000
  B   B3        1.0  0.45800  0.36300  0.36300  1.0000
  B   B4        1.0  0.54200  0.63700  0.63700  1.0000
  B   B5        1.0  0.50000  0.25000  0.75000  1.0000
  B   B6        1.0  0.54200  0.86300  0.86300  1.0000
  Ca  Ca1       1.0  0.00000  0.50000  0.00000  1.0000
  Ca  Ca2       1.0  0.00000  0.00000  0.50000  1.0000
  O   O1        1.0  0.70100  0.77900  0.07380  1.0000
  O   O2        1.0  0.77700  0.13200  0.13200  1.0000
  O   O3        1.0  0.29900  0.92600  0.22100  1.0000
  O   O4        1.0  0.32700  0.25000  0.25000  1.0000
  O   O5        1.0  0.29900  0.57400  0.27900  1.0000
  O   O6        1.0  0.77700  0.36800  0.36800  1.0000
  O   O7        1.0  0.70100  0.72100  0.42600  1.0000
  O   O8        1.0  0.29900  0.27900  0.57400  1.0000
  O   O9        1.0  0.22300  0.63200  0.63200  1.0000
  O   O10       1.0  0.70100  0.42600  0.72100  1.0000
  O   O11       1.0  0.67300  0.75000  0.75000  1.0000
  O   O12       1.0  0.70100  0.07380  0.77900  1.0000
  O   O13       1.0  0.22300  0.86800  0.86800  1.0000
  O   O14       1.0  0.29900  0.22100  0.92600  1.0000
