data_image0
_chemical_formula_structural       B4Cl4N8Sr8
_chemical_formula_sum              "B4 Cl4 N8 Sr8"
_cell_length_a       4.16894
_cell_length_b       9.21766
_cell_length_c       12.4324
_cell_angle_alpha    90
_cell_angle_beta     90
_cell_angle_gamma    90

_space_group_name_H-M_alt    "P 1"
_space_group_IT_number       1

loop_
  _space_group_symop_operation_xyz
  'x, y, z'

loop_
  _atom_site_type_symbol
  _atom_site_label
  _atom_site_symmetry_multiplicity
  _atom_site_fract_x
  _atom_site_fract_y
  _atom_site_fract_z
  _atom_site_occupancy
  B   B1        1.0  0.75000  0.32600  0.16600  1.0000
  B   B2        1.0  0.25000  0.82600  0.33400  1.0000
  B   B3        1.0  0.75000  0.17400  0.66600  1.0000
  B   B4        1.0  0.25000  0.67400  0.83400  1.0000
  Cl  Cl1       1.0  0.75000  0.85400  0.06080  1.0000
  Cl  Cl2       1.0  0.25000  0.35400  0.43900  1.0000
  Cl  Cl3       1.0  0.75000  0.64600  0.56100  1.0000
  Cl  Cl4       1.0  0.25000  0.14600  0.93900  1.0000
  N   N1        1.0  0.75000  0.46100  0.12200  1.0000
  N   N2        1.0  0.75000  0.19600  0.21400  1.0000
  N   N3        1.0  0.25000  0.69600  0.28600  1.0000
  N   N4        1.0  0.25000  0.96100  0.37800  1.0000
  N   N5        1.0  0.75000  0.03910  0.62200  1.0000
  N   N6        1.0  0.75000  0.30400  0.71400  1.0000
  N   N7        1.0  0.25000  0.80400  0.78600  1.0000
  N   N8        1.0  0.25000  0.53900  0.87800  1.0000
  Sr  Sr1       1.0  0.25000  0.61700  0.08750  1.0000
  Sr  Sr2       1.0  0.25000  0.05660  0.17100  1.0000
  Sr  Sr3       1.0  0.75000  0.55700  0.32900  1.0000
  Sr  Sr4       1.0  0.75000  0.11700  0.41300  1.0000
  Sr  Sr5       1.0  0.25000  0.88300  0.58700  1.0000
  Sr  Sr6       1.0  0.25000  0.44300  0.67100  1.0000
  Sr  Sr7       1.0  0.75000  0.94300  0.82900  1.0000
  Sr  Sr8       1.0  0.75000  0.38300  0.91300  1.0000
