data_image0
_chemical_formula_structural       Na2Nd2O16S4
_chemical_formula_sum              "Na2 Nd2 O16 S4"
_cell_length_a       6.89576
_cell_length_b       6.28463
_cell_length_c       7.06373
_cell_angle_alpha    96.4606
_cell_angle_beta     98.8075
_cell_angle_gamma    90.62

_space_group_name_H-M_alt    "P 1"
_space_group_IT_number       1

loop_
  _space_group_symop_operation_xyz
  'x, y, z'

loop_
  _atom_site_type_symbol
  _atom_site_label
  _atom_site_symmetry_multiplicity
  _atom_site_fract_x
  _atom_site_fract_y
  _atom_site_fract_z
  _atom_site_occupancy
  Na  Na1       1.0  0.69100  0.05690  0.28500  1.0000
  Na  Na2       1.0  0.30900  0.94300  0.71500  1.0000
  Nd  Nd1       1.0  0.19500  0.36200  0.20400  1.0000
  Nd  Nd2       1.0  0.80500  0.63800  0.79600  1.0000
  O   O1        1.0  0.10800  0.69600  0.05480  1.0000
  O   O2        1.0  0.70500  0.68900  0.12000  1.0000
  O   O3        1.0  0.34200  0.99800  0.15500  1.0000
  O   O4        1.0  0.02790  0.01900  0.25200  1.0000
  O   O5        1.0  0.54400  0.40800  0.25300  1.0000
  O   O6        1.0  0.89300  0.44100  0.31700  1.0000
  O   O7        1.0  0.26000  0.75400  0.38100  1.0000
  O   O8        1.0  0.70300  0.71700  0.46100  1.0000
  O   O9        1.0  0.29700  0.28300  0.53900  1.0000
  O   O10       1.0  0.74000  0.24600  0.61900  1.0000
  O   O11       1.0  0.10700  0.55900  0.68300  1.0000
  O   O12       1.0  0.45600  0.59200  0.74700  1.0000
  O   O13       1.0  0.97200  0.98100  0.74800  1.0000
  O   O14       1.0  0.65800  0.00184  0.84500  1.0000
  O   O15       1.0  0.29500  0.31100  0.88000  1.0000
  O   O16       1.0  0.89200  0.30400  0.94500  1.0000
  S   S1        1.0  0.18500  0.86800  0.21500  1.0000
  S   S2        1.0  0.71200  0.56400  0.28700  1.0000
  S   S3        1.0  0.28800  0.43600  0.71300  1.0000
  S   S4        1.0  0.81500  0.13200  0.78500  1.0000
