data_image0
_chemical_formula_structural       O14Sr6Zr4
_chemical_formula_sum              "O14 Sr6 Zr4"
_cell_length_a       4.14719
_cell_length_b       4.14487
_cell_length_c       20.9479
_cell_angle_alpha    90
_cell_angle_beta     90
_cell_angle_gamma    90

_space_group_name_H-M_alt    "P 1"
_space_group_IT_number       1

loop_
  _space_group_symop_operation_xyz
  'x, y, z'

loop_
  _atom_site_type_symbol
  _atom_site_label
  _atom_site_symmetry_multiplicity
  _atom_site_fract_x
  _atom_site_fract_y
  _atom_site_fract_z
  _atom_site_occupancy
  O   O1        1.0  0.00000  0.00000  0.00000  1.0000
  O   O2        1.0  0.50000  0.00000  0.09850  1.0000
  O   O3        1.0  0.00000  0.50000  0.09850  1.0000
  O   O4        1.0  0.00000  0.00000  0.20100  1.0000
  O   O5        1.0  0.50000  0.50000  0.29900  1.0000
  O   O6        1.0  0.50000  0.00000  0.40100  1.0000
  O   O7        1.0  0.00000  0.50000  0.40200  1.0000
  O   O8        1.0  0.50000  0.50000  0.50000  1.0000
  O   O9        1.0  0.00000  0.50000  0.59800  1.0000
  O   O10       1.0  0.50000  0.00000  0.59900  1.0000
  O   O11       1.0  0.50000  0.50000  0.70100  1.0000
  O   O12       1.0  0.00000  0.00000  0.79900  1.0000
  O   O13       1.0  0.00000  0.50000  0.90200  1.0000
  O   O14       1.0  0.50000  0.00000  0.90200  1.0000
  Sr  Sr1       1.0  0.50000  0.50000  0.00000  1.0000
  Sr  Sr2       1.0  0.50000  0.50000  0.18600  1.0000
  Sr  Sr3       1.0  0.00000  0.00000  0.31400  1.0000
  Sr  Sr4       1.0  0.00000  0.00000  0.50000  1.0000
  Sr  Sr5       1.0  0.00000  0.00000  0.68600  1.0000
  Sr  Sr6       1.0  0.50000  0.50000  0.81400  1.0000
  Zr  Zr1       1.0  0.00000  0.00000  0.10100  1.0000
  Zr  Zr2       1.0  0.50000  0.50000  0.39900  1.0000
  Zr  Zr3       1.0  0.50000  0.50000  0.60100  1.0000
  Zr  Zr4       1.0  0.00000  0.00000  0.89900  1.0000
