data_image0
_chemical_formula_structural       Ga4H16Mg4
_chemical_formula_sum              "Ga4 H16 Mg4"
_cell_length_a       6.954
_cell_length_b       6.80618
_cell_length_c       5.7991
_cell_angle_alpha    90.0479
_cell_angle_beta     109.55
_cell_angle_gamma    89.9623

_space_group_name_H-M_alt    "P 1"
_space_group_IT_number       1

loop_
  _space_group_symop_operation_xyz
  'x, y, z'

loop_
  _atom_site_type_symbol
  _atom_site_label
  _atom_site_symmetry_multiplicity
  _atom_site_fract_x
  _atom_site_fract_y
  _atom_site_fract_z
  _atom_site_occupancy
  Ga  Ga1       1.0  0.62400  0.62100  0.24700  1.0000
  Ga  Ga2       1.0  0.87600  0.12100  0.25300  1.0000
  Ga  Ga3       1.0  0.12400  0.87900  0.74700  1.0000
  Ga  Ga4       1.0  0.37600  0.37900  0.75300  1.0000
  H   H1        1.0  0.46800  0.80200  0.12200  1.0000
  H   H2        1.0  0.81500  0.62700  0.14900  1.0000
  H   H3        1.0  0.51100  0.40700  0.17600  1.0000
  H   H4        1.0  0.15200  0.62000  0.20100  1.0000
  H   H5        1.0  0.34800  0.12000  0.29900  1.0000
  H   H6        1.0  0.98900  0.90700  0.32400  1.0000
  H   H7        1.0  0.68500  0.12700  0.35100  1.0000
  H   H8        1.0  0.03160  0.30200  0.37800  1.0000
  H   H9        1.0  0.96800  0.69800  0.62200  1.0000
  H   H10       1.0  0.31500  0.87300  0.64900  1.0000
  H   H11       1.0  0.01090  0.09300  0.67600  1.0000
  H   H12       1.0  0.65200  0.88000  0.70100  1.0000
  H   H13       1.0  0.84800  0.38000  0.79900  1.0000
  H   H14       1.0  0.48900  0.59300  0.82400  1.0000
  H   H15       1.0  0.18500  0.37300  0.85100  1.0000
  H   H16       1.0  0.53200  0.19800  0.87800  1.0000
  Mg  Mg1       1.0  0.23200  0.36300  0.21000  1.0000
  Mg  Mg2       1.0  0.26800  0.86300  0.29000  1.0000
  Mg  Mg3       1.0  0.73200  0.13700  0.71000  1.0000
  Mg  Mg4       1.0  0.76800  0.63700  0.79000  1.0000
