data_image0
_chemical_formula_structural       B4F4N8Sr8
_chemical_formula_sum              "B4 F4 N8 Sr8"
_cell_length_a       3.88035
_cell_length_b       9.8274
_cell_length_c       10.1348
_cell_angle_alpha    90
_cell_angle_beta     90
_cell_angle_gamma    90

_space_group_name_H-M_alt    "P 1"
_space_group_IT_number       1

loop_
  _space_group_symop_operation_xyz
  'x, y, z'

loop_
  _atom_site_type_symbol
  _atom_site_label
  _atom_site_symmetry_multiplicity
  _atom_site_fract_x
  _atom_site_fract_y
  _atom_site_fract_z
  _atom_site_occupancy
  B   B1        1.0  0.75000  0.77100  0.17200  1.0000
  B   B2        1.0  0.75000  0.27100  0.32800  1.0000
  B   B3        1.0  0.25000  0.72900  0.67200  1.0000
  B   B4        1.0  0.25000  0.22900  0.82800  1.0000
  F   F1        1.0  0.25000  0.45300  0.10100  1.0000
  F   F2        1.0  0.25000  0.95300  0.39900  1.0000
  F   F3        1.0  0.75000  0.04690  0.60100  1.0000
  F   F4        1.0  0.75000  0.54700  0.89900  1.0000
  N   N1        1.0  0.75000  0.85400  0.06490  1.0000
  N   N2        1.0  0.75000  0.18200  0.22900  1.0000
  N   N3        1.0  0.75000  0.68200  0.27100  1.0000
  N   N4        1.0  0.75000  0.35400  0.43500  1.0000
  N   N5        1.0  0.25000  0.64600  0.56500  1.0000
  N   N6        1.0  0.25000  0.31800  0.72900  1.0000
  N   N7        1.0  0.25000  0.81800  0.77100  1.0000
  N   N8        1.0  0.25000  0.14600  0.93500  1.0000
  Sr  Sr1       1.0  0.75000  0.32200  0.01980  1.0000
  Sr  Sr2       1.0  0.25000  0.02530  0.16100  1.0000
  Sr  Sr3       1.0  0.25000  0.52500  0.33900  1.0000
  Sr  Sr4       1.0  0.75000  0.82200  0.48000  1.0000
  Sr  Sr5       1.0  0.25000  0.17800  0.52000  1.0000
  Sr  Sr6       1.0  0.75000  0.47500  0.66100  1.0000
  Sr  Sr7       1.0  0.75000  0.97500  0.83900  1.0000
  Sr  Sr8       1.0  0.25000  0.67800  0.98000  1.0000
