data_image0
_chemical_formula_structural       Co2Er3In4
_chemical_formula_sum              "Co2 Er3 In4"
_cell_length_a       8.1131
_cell_length_b       8.11321
_cell_length_c       3.4834
_cell_angle_alpha    90
_cell_angle_beta     90
_cell_angle_gamma    120

_space_group_name_H-M_alt    "P 1"
_space_group_IT_number       1

loop_
  _space_group_symop_operation_xyz
  'x, y, z'

loop_
  _atom_site_type_symbol
  _atom_site_label
  _atom_site_symmetry_multiplicity
  _atom_site_fract_x
  _atom_site_fract_y
  _atom_site_fract_z
  _atom_site_occupancy
  Co  Co1       1.0  0.00000  0.00000  0.00000  1.0000
  Co  Co2       1.0  0.33300  0.66700  0.50000  1.0000
  Er  Er1       1.0  0.26000  0.01030  0.50000  1.0000
  Er  Er2       1.0  0.99000  0.24900  0.50000  1.0000
  Er  Er3       1.0  0.75100  0.74000  0.50000  1.0000
  In  In1       1.0  0.36800  0.41900  0.00000  1.0000
  In  In2       1.0  0.05110  0.63200  0.00000  1.0000
  In  In3       1.0  0.58100  0.94900  0.00000  1.0000
  In  In4       1.0  0.66700  0.33300  0.50000  1.0000
