data_image0
_chemical_formula_structural       Al2Co2Nd6S14
_chemical_formula_sum              "Al2 Co2 Nd6 S14"
_cell_length_a       9.81778
_cell_length_b       9.81773
_cell_length_c       6.18933
_cell_angle_alpha    90
_cell_angle_beta     90
_cell_angle_gamma    120

_space_group_name_H-M_alt    "P 1"
_space_group_IT_number       1

loop_
  _space_group_symop_operation_xyz
  'x, y, z'

loop_
  _atom_site_type_symbol
  _atom_site_label
  _atom_site_symmetry_multiplicity
  _atom_site_fract_x
  _atom_site_fract_y
  _atom_site_fract_z
  _atom_site_occupancy
  Al  Al1       1.0  0.66700  0.33300  0.14900  1.0000
  Al  Al2       1.0  0.33300  0.66700  0.64900  1.0000
  Co  Co1       1.0  0.00000  0.00000  0.06180  1.0000
  Co  Co2       1.0  0.00000  0.00000  0.56200  1.0000
  Nd  Nd1       1.0  0.15500  0.37400  0.22600  1.0000
  Nd  Nd2       1.0  0.21900  0.84500  0.22600  1.0000
  Nd  Nd3       1.0  0.62600  0.78100  0.22600  1.0000
  Nd  Nd4       1.0  0.84500  0.62600  0.72600  1.0000
  Nd  Nd5       1.0  0.78100  0.15500  0.72600  1.0000
  Nd  Nd6       1.0  0.37400  0.21900  0.72600  1.0000
  S   S1        1.0  0.56900  0.47800  0.00626  1.0000
  S   S2        1.0  0.52200  0.09140  0.00627  1.0000
  S   S3        1.0  0.90900  0.43100  0.00627  1.0000
  S   S4        1.0  0.33300  0.66700  0.00958  1.0000
  S   S5        1.0  0.90900  0.78300  0.31500  1.0000
  S   S6        1.0  0.87400  0.09150  0.31500  1.0000
  S   S7        1.0  0.21700  0.12600  0.31500  1.0000
  S   S8        1.0  0.43100  0.52200  0.50600  1.0000
  S   S9        1.0  0.47800  0.90900  0.50600  1.0000
  S   S10       1.0  0.09140  0.56900  0.50600  1.0000
  S   S11       1.0  0.66700  0.33300  0.51000  1.0000
  S   S12       1.0  0.09140  0.21700  0.81500  1.0000
  S   S13       1.0  0.12600  0.90900  0.81500  1.0000
  S   S14       1.0  0.78300  0.87400  0.81500  1.0000
