data_image0
_chemical_formula_structural       O16Sr2Te6
_chemical_formula_sum              "O16 Sr2 Te6"
_cell_length_a       6.81456
_cell_length_b       6.81456
_cell_length_c       6.78539
_cell_angle_alpha    90
_cell_angle_beta     90
_cell_angle_gamma    90

_space_group_name_H-M_alt    "P 1"
_space_group_IT_number       1

loop_
  _space_group_symop_operation_xyz
  'x, y, z'

loop_
  _atom_site_type_symbol
  _atom_site_label
  _atom_site_symmetry_multiplicity
  _atom_site_fract_x
  _atom_site_fract_y
  _atom_site_fract_z
  _atom_site_occupancy
  O   O1        1.0  0.54600  0.17900  0.00000  1.0000
  O   O2        1.0  0.25800  0.38200  0.00000  1.0000
  O   O3        1.0  0.74200  0.61800  0.00000  1.0000
  O   O4        1.0  0.45400  0.82100  0.00000  1.0000
  O   O5        1.0  0.91000  0.30700  0.19400  1.0000
  O   O6        1.0  0.08980  0.69300  0.19400  1.0000
  O   O7        1.0  0.30700  0.08980  0.30600  1.0000
  O   O8        1.0  0.69300  0.91000  0.30600  1.0000
  O   O9        1.0  0.61800  0.25800  0.50000  1.0000
  O   O10       1.0  0.17900  0.45400  0.50000  1.0000
  O   O11       1.0  0.82100  0.54600  0.50000  1.0000
  O   O12       1.0  0.38200  0.74200  0.50000  1.0000
  O   O13       1.0  0.30700  0.08980  0.69400  1.0000
  O   O14       1.0  0.69300  0.91000  0.69400  1.0000
  O   O15       1.0  0.91000  0.30700  0.80600  1.0000
  O   O16       1.0  0.08980  0.69300  0.80600  1.0000
  Sr  Sr1       1.0  0.50000  0.50000  0.25000  1.0000
  Sr  Sr2       1.0  0.50000  0.50000  0.75000  1.0000
  Te  Te1       1.0  0.27800  0.06030  0.00000  1.0000
  Te  Te2       1.0  0.00000  0.50000  0.00000  1.0000
  Te  Te3       1.0  0.72200  0.94000  0.00000  1.0000
  Te  Te4       1.0  0.50000  0.00000  0.50000  1.0000
  Te  Te5       1.0  0.94000  0.27800  0.50000  1.0000
  Te  Te6       1.0  0.06030  0.72200  0.50000  1.0000
