data_image0
_chemical_formula_structural       Cu4Fe8S12
_chemical_formula_sum              "Cu4 Fe8 S12"
_cell_length_a       6.04209
_cell_length_b       10.5528
_cell_length_c       6.18519
_cell_angle_alpha    90
_cell_angle_beta     90
_cell_angle_gamma    90

_space_group_name_H-M_alt    "P 1"
_space_group_IT_number       1

loop_
  _space_group_symop_operation_xyz
  'x, y, z'

loop_
  _atom_site_type_symbol
  _atom_site_label
  _atom_site_symmetry_multiplicity
  _atom_site_fract_x
  _atom_site_fract_y
  _atom_site_fract_z
  _atom_site_occupancy
  Cu  Cu1       1.0  0.57900  0.25000  0.12000  1.0000
  Cu  Cu2       1.0  0.07910  0.75000  0.38000  1.0000
  Cu  Cu3       1.0  0.92100  0.25000  0.62000  1.0000
  Cu  Cu4       1.0  0.42100  0.75000  0.88000  1.0000
  Fe  Fe1       1.0  0.08230  0.08400  0.12600  1.0000
  Fe  Fe2       1.0  0.08230  0.41600  0.12600  1.0000
  Fe  Fe3       1.0  0.58200  0.58400  0.37400  1.0000
  Fe  Fe4       1.0  0.58200  0.91600  0.37400  1.0000
  Fe  Fe5       1.0  0.41800  0.08400  0.62600  1.0000
  Fe  Fe6       1.0  0.41800  0.41600  0.62600  1.0000
  Fe  Fe7       1.0  0.91800  0.58400  0.87400  1.0000
  Fe  Fe8       1.0  0.91800  0.91600  0.87400  1.0000
  S   S1        1.0  0.89900  0.57900  0.22200  1.0000
  S   S2        1.0  0.89900  0.92100  0.22200  1.0000
  S   S3        1.0  0.42900  0.75000  0.24700  1.0000
  S   S4        1.0  0.92900  0.25000  0.25300  1.0000
  S   S5        1.0  0.39900  0.07930  0.27800  1.0000
  S   S6        1.0  0.39900  0.42100  0.27800  1.0000
  S   S7        1.0  0.60100  0.57900  0.72200  1.0000
  S   S8        1.0  0.60100  0.92100  0.72200  1.0000
  S   S9        1.0  0.07100  0.75000  0.74700  1.0000
  S   S10       1.0  0.57100  0.25000  0.75300  1.0000
  S   S11       1.0  0.10100  0.07930  0.77800  1.0000
  S   S12       1.0  0.10100  0.42100  0.77800  1.0000
