data_image0
_chemical_formula_structural       Ba6Br4Fe4O10
_chemical_formula_sum              "Ba6 Br4 Fe4 O10"
_cell_length_a       8.75952
_cell_length_b       8.75952
_cell_length_c       8.75952
_cell_angle_alpha    109.471
_cell_angle_beta     109.471
_cell_angle_gamma    109.471

_space_group_name_H-M_alt    "P 1"
_space_group_IT_number       1

loop_
  _space_group_symop_operation_xyz
  'x, y, z'

loop_
  _atom_site_type_symbol
  _atom_site_label
  _atom_site_symmetry_multiplicity
  _atom_site_fract_x
  _atom_site_fract_y
  _atom_site_fract_z
  _atom_site_occupancy
  Ba  Ba1       1.0  0.90300  0.25000  0.15300  1.0000
  Ba  Ba2       1.0  0.34700  0.09720  0.25000  1.0000
  Ba  Ba3       1.0  0.59700  0.75000  0.34700  1.0000
  Ba  Ba4       1.0  0.25000  0.84700  0.59700  1.0000
  Ba  Ba5       1.0  0.15300  0.40300  0.75000  1.0000
  Ba  Ba6       1.0  0.75000  0.65300  0.90300  1.0000
  Br  Br1       1.0  0.50000  0.88300  0.00000  1.0000
  Br  Br2       1.0  0.11700  0.61700  0.11700  1.0000
  Br  Br3       1.0  0.00000  0.00000  0.38300  1.0000
  Br  Br4       1.0  0.38300  0.50000  0.50000  1.0000
  Fe  Fe1       1.0  0.50000  0.31200  0.00000  1.0000
  Fe  Fe2       1.0  0.81200  0.50000  0.50000  1.0000
  Fe  Fe3       1.0  0.68800  0.18800  0.68800  1.0000
  Fe  Fe4       1.0  0.00000  0.00000  0.81200  1.0000
  O   O1        1.0  0.50000  0.52200  0.00000  1.0000
  O   O2        1.0  0.00000  0.00000  0.02170  1.0000
  O   O3        1.0  0.61100  0.36100  0.25000  1.0000
  O   O4        1.0  0.47800  0.97800  0.47800  1.0000
  O   O5        1.0  0.02170  0.50000  0.50000  1.0000
  O   O6        1.0  0.86100  0.75000  0.61100  1.0000
  O   O7        1.0  0.75000  0.38900  0.63900  1.0000
  O   O8        1.0  0.88900  0.13900  0.75000  1.0000
  O   O9        1.0  0.25000  0.11100  0.86100  1.0000
  O   O10       1.0  0.63900  0.25000  0.88900  1.0000
