data_image0
_chemical_formula_structural       F4N4O12Xe4
_chemical_formula_sum              "F4 N4 O12 Xe4"
_cell_length_a       4.56814
_cell_length_b       8.46262
_cell_length_c       9.16851
_cell_angle_alpha    90
_cell_angle_beta     92.1818
_cell_angle_gamma    90

_space_group_name_H-M_alt    "P 1"
_space_group_IT_number       1

loop_
  _space_group_symop_operation_xyz
  'x, y, z'

loop_
  _atom_site_type_symbol
  _atom_site_label
  _atom_site_symmetry_multiplicity
  _atom_site_fract_x
  _atom_site_fract_y
  _atom_site_fract_z
  _atom_site_occupancy
  F   F1        1.0  0.18800  0.42800  0.12300  1.0000
  F   F2        1.0  0.81200  0.92800  0.37700  1.0000
  F   F3        1.0  0.18800  0.07210  0.62300  1.0000
  F   F4        1.0  0.81200  0.57200  0.87700  1.0000
  N   N1        1.0  0.48800  0.18300  0.03650  1.0000
  N   N2        1.0  0.51200  0.68300  0.46300  1.0000
  N   N3        1.0  0.48800  0.31700  0.53700  1.0000
  N   N4        1.0  0.51200  0.81700  0.96300  1.0000
  O   O1        1.0  0.31700  0.73700  0.01520  1.0000
  O   O2        1.0  0.72400  0.87700  0.02830  1.0000
  O   O3        1.0  0.52600  0.16300  0.18400  1.0000
  O   O4        1.0  0.47400  0.66300  0.31600  1.0000
  O   O5        1.0  0.27600  0.37700  0.47200  1.0000
  O   O6        1.0  0.68300  0.23700  0.48500  1.0000
  O   O7        1.0  0.31700  0.76300  0.51500  1.0000
  O   O8        1.0  0.72400  0.62300  0.52800  1.0000
  O   O9        1.0  0.52600  0.33700  0.68400  1.0000
  O   O10       1.0  0.47400  0.83700  0.81600  1.0000
  O   O11       1.0  0.27600  0.12300  0.97200  1.0000
  O   O12       1.0  0.68300  0.26300  0.98500  1.0000
  Xe  Xe1       1.0  0.83900  0.54000  0.21900  1.0000
  Xe  Xe2       1.0  0.16100  0.04020  0.28100  1.0000
  Xe  Xe3       1.0  0.83900  0.96000  0.71900  1.0000
  Xe  Xe4       1.0  0.16100  0.46000  0.78100  1.0000
