data_image0
_chemical_formula_structural       Cd4Cl4O12V4
_chemical_formula_sum              "Cd4 Cl4 O12 V4"
_cell_length_a       3.67537
_cell_length_b       6.8668
_cell_length_c       15.4857
_cell_angle_alpha    90
_cell_angle_beta     90
_cell_angle_gamma    90

_space_group_name_H-M_alt    "P 1"
_space_group_IT_number       1

loop_
  _space_group_symop_operation_xyz
  'x, y, z'

loop_
  _atom_site_type_symbol
  _atom_site_label
  _atom_site_symmetry_multiplicity
  _atom_site_fract_x
  _atom_site_fract_y
  _atom_site_fract_z
  _atom_site_occupancy
  Cd  Cd1       1.0  0.25000  0.07990  0.17200  1.0000
  Cd  Cd2       1.0  0.75000  0.58000  0.32800  1.0000
  Cd  Cd3       1.0  0.25000  0.42000  0.67200  1.0000
  Cd  Cd4       1.0  0.75000  0.92000  0.82800  1.0000
  Cl  Cl1       1.0  0.25000  0.44800  0.22400  1.0000
  Cl  Cl2       1.0  0.75000  0.94800  0.27600  1.0000
  Cl  Cl3       1.0  0.25000  0.05200  0.72400  1.0000
  Cl  Cl4       1.0  0.75000  0.55200  0.77600  1.0000
  O   O1        1.0  0.25000  0.39300  0.00865  1.0000
  O   O2        1.0  0.25000  0.81900  0.08460  1.0000
  O   O3        1.0  0.75000  0.17700  0.09350  1.0000
  O   O4        1.0  0.25000  0.67700  0.40600  1.0000
  O   O5        1.0  0.75000  0.31900  0.41500  1.0000
  O   O6        1.0  0.75000  0.89300  0.49100  1.0000
  O   O7        1.0  0.25000  0.10700  0.50900  1.0000
  O   O8        1.0  0.25000  0.68100  0.58500  1.0000
  O   O9        1.0  0.75000  0.32300  0.59400  1.0000
  O   O10       1.0  0.25000  0.82300  0.90600  1.0000
  O   O11       1.0  0.75000  0.18100  0.91500  1.0000
  O   O12       1.0  0.75000  0.60700  0.99100  1.0000
  V   V1        1.0  0.75000  0.31900  0.00255  1.0000
  V   V2        1.0  0.25000  0.81900  0.49700  1.0000
  V   V3        1.0  0.75000  0.18100  0.50300  1.0000
  V   V4        1.0  0.25000  0.68100  0.99700  1.0000
