data_image0
_chemical_formula_structural       Cu4H6N2O12
_chemical_formula_sum              "Cu4 H6 N2 O12"
_cell_length_a       5.94154
_cell_length_b       5.94045
_cell_length_c       6.36531
_cell_angle_alpha    90
_cell_angle_beta     98.9291
_cell_angle_gamma    90

_space_group_name_H-M_alt    "P 1"
_space_group_IT_number       1

loop_
  _space_group_symop_operation_xyz
  'x, y, z'

loop_
  _atom_site_type_symbol
  _atom_site_label
  _atom_site_symmetry_multiplicity
  _atom_site_fract_x
  _atom_site_fract_y
  _atom_site_fract_z
  _atom_site_occupancy
  Cu  Cu1       1.0  0.95300  0.10100  0.00709  1.0000
  Cu  Cu2       1.0  0.55100  0.28900  0.01510  1.0000
  Cu  Cu3       1.0  0.44900  0.78900  0.98500  1.0000
  Cu  Cu4       1.0  0.04650  0.60100  0.99300  1.0000
  H   H1        1.0  0.14200  0.85900  0.36400  1.0000
  H   H2        1.0  0.96300  0.41800  0.37500  1.0000
  H   H3        1.0  0.85000  0.94100  0.40800  1.0000
  H   H4        1.0  0.15000  0.44100  0.59200  1.0000
  H   H5        1.0  0.03680  0.91800  0.62500  1.0000
  H   H6        1.0  0.85800  0.35900  0.63600  1.0000
  N   N1        1.0  0.38600  0.25700  0.45700  1.0000
  N   N2        1.0  0.61400  0.75700  0.54300  1.0000
  O   O1        1.0  0.66400  0.99900  0.07730  1.0000
  O   O2        1.0  0.87500  0.38800  0.10100  1.0000
  O   O3        1.0  0.30700  0.22900  0.27200  1.0000
  O   O4        1.0  0.27800  0.75500  0.30400  1.0000
  O   O5        1.0  0.00933  0.97000  0.47100  1.0000
  O   O6        1.0  0.61700  0.19300  0.48500  1.0000
  O   O7        1.0  0.38300  0.69300  0.51500  1.0000
  O   O8        1.0  0.99100  0.47000  0.52900  1.0000
  O   O9        1.0  0.72200  0.25500  0.69600  1.0000
  O   O10       1.0  0.69300  0.72900  0.72800  1.0000
  O   O11       1.0  0.12500  0.88800  0.89900  1.0000
  O   O12       1.0  0.33600  0.49900  0.92300  1.0000
