data_image0
_chemical_formula_structural       Ca4Na6O12Ta2
_chemical_formula_sum              "Ca4 Na6 O12 Ta2"
_cell_length_a       5.74935
_cell_length_b       5.74935
_cell_length_c       10.3122
_cell_angle_alpha    100.456
_cell_angle_beta     100.456
_cell_angle_gamma    110.425

_space_group_name_H-M_alt    "P 1"
_space_group_IT_number       1

loop_
  _space_group_symop_operation_xyz
  'x, y, z'

loop_
  _atom_site_type_symbol
  _atom_site_label
  _atom_site_symmetry_multiplicity
  _atom_site_fract_x
  _atom_site_fract_y
  _atom_site_fract_z
  _atom_site_occupancy
  Ca  Ca1       1.0  0.04440  0.29400  0.08880  1.0000
  Ca  Ca2       1.0  0.70600  0.95600  0.41100  1.0000
  Ca  Ca3       1.0  0.29400  0.04440  0.58900  1.0000
  Ca  Ca4       1.0  0.95600  0.70600  0.91100  1.0000
  Na  Na1       1.0  0.53800  0.78800  0.07620  1.0000
  Na  Na2       1.0  0.62500  0.37500  0.25000  1.0000
  Na  Na3       1.0  0.21200  0.46200  0.42400  1.0000
  Na  Na4       1.0  0.78800  0.53800  0.57600  1.0000
  Na  Na5       1.0  0.37500  0.62500  0.75000  1.0000
  Na  Na6       1.0  0.46200  0.21200  0.92400  1.0000
  O   O1        1.0  0.26400  0.02210  0.10200  1.0000
  O   O2        1.0  0.83700  0.57900  0.10200  1.0000
  O   O3        1.0  0.91100  0.08920  0.25000  1.0000
  O   O4        1.0  0.33900  0.66100  0.25000  1.0000
  O   O5        1.0  0.42100  0.16300  0.39800  1.0000
  O   O6        1.0  0.97800  0.73600  0.39800  1.0000
  O   O7        1.0  0.02210  0.26400  0.60200  1.0000
  O   O8        1.0  0.57900  0.83700  0.60200  1.0000
  O   O9        1.0  0.66100  0.33900  0.75000  1.0000
  O   O10       1.0  0.08920  0.91100  0.75000  1.0000
  O   O11       1.0  0.16300  0.42100  0.89800  1.0000
  O   O12       1.0  0.73600  0.97800  0.89800  1.0000
  Ta  Ta1       1.0  0.12500  0.87500  0.25000  1.0000
  Ta  Ta2       1.0  0.87500  0.12500  0.75000  1.0000
