data_image0
_chemical_formula_structural       Ba5Nb4O15
_chemical_formula_sum              "Ba5 Nb4 O15"
_cell_length_a       5.82057
_cell_length_b       5.82055
_cell_length_c       11.8277
_cell_angle_alpha    90
_cell_angle_beta     89.9994
_cell_angle_gamma    120

_space_group_name_H-M_alt    "P 1"
_space_group_IT_number       1

loop_
  _space_group_symop_operation_xyz
  'x, y, z'

loop_
  _atom_site_type_symbol
  _atom_site_label
  _atom_site_symmetry_multiplicity
  _atom_site_fract_x
  _atom_site_fract_y
  _atom_site_fract_z
  _atom_site_occupancy
  Ba  Ba1       1.0  0.00000  0.00000  0.00000  1.0000
  Ba  Ba2       1.0  0.66700  0.33300  0.20900  1.0000
  Ba  Ba3       1.0  0.33300  0.66700  0.42800  1.0000
  Ba  Ba4       1.0  0.66700  0.33300  0.57200  1.0000
  Ba  Ba5       1.0  0.33300  0.66700  0.79100  1.0000
  Nb  Nb1       1.0  0.33300  0.66700  0.10600  1.0000
  Nb  Nb2       1.0  0.00000  0.00000  0.31900  1.0000
  Nb  Nb3       1.0  0.00000  0.00000  0.68100  1.0000
  Nb  Nb4       1.0  0.66700  0.33300  0.89400  1.0000
  O   O1        1.0  0.50000  0.00000  0.00000  1.0000
  O   O2        1.0  0.00000  0.50000  0.00000  1.0000
  O   O3        1.0  0.50000  0.50000  0.00000  1.0000
  O   O4        1.0  0.66400  0.83200  0.19300  1.0000
  O   O5        1.0  0.16800  0.33600  0.19300  1.0000
  O   O6        1.0  0.16800  0.83200  0.19300  1.0000
  O   O7        1.0  0.83400  0.16600  0.38900  1.0000
  O   O8        1.0  0.83400  0.66900  0.38900  1.0000
  O   O9        1.0  0.33100  0.16600  0.38900  1.0000
  O   O10       1.0  0.16600  0.83400  0.61100  1.0000
  O   O11       1.0  0.16600  0.33100  0.61100  1.0000
  O   O12       1.0  0.66900  0.83400  0.61100  1.0000
  O   O13       1.0  0.83200  0.16800  0.80700  1.0000
  O   O14       1.0  0.83200  0.66400  0.80700  1.0000
  O   O15       1.0  0.33600  0.16800  0.80700  1.0000
