data_image0
_chemical_formula_structural       K2O15Si6Ti
_chemical_formula_sum              "K2 O15 Si6 Ti1"
_cell_length_a       7.27305
_cell_length_b       7.43959
_cell_length_c       6.86428
_cell_angle_alpha    105.444
_cell_angle_beta     113.031
_cell_angle_gamma    99.3737

_space_group_name_H-M_alt    "P 1"
_space_group_IT_number       1

loop_
  _space_group_symop_operation_xyz
  'x, y, z'

loop_
  _atom_site_type_symbol
  _atom_site_label
  _atom_site_symmetry_multiplicity
  _atom_site_fract_x
  _atom_site_fract_y
  _atom_site_fract_z
  _atom_site_occupancy
  K   K1        1.0  0.71400  0.81600  0.28900  1.0000
  K   K2        1.0  0.28600  0.18400  0.71100  1.0000
  O   O1        1.0  0.26400  0.19600  0.10700  1.0000
  O   O2        1.0  0.26000  0.64100  0.11800  1.0000
  O   O3        1.0  0.90900  0.18700  0.17500  1.0000
  O   O4        1.0  0.63700  0.39700  0.20100  1.0000
  O   O5        1.0  0.11100  0.92800  0.27200  1.0000
  O   O6        1.0  0.01550  0.58300  0.31300  1.0000
  O   O7        1.0  0.60000  0.17300  0.44000  1.0000
  O   O8        1.0  0.50000  0.50000  0.50000  1.0000
  O   O9        1.0  0.40000  0.82700  0.56000  1.0000
  O   O10       1.0  0.98500  0.41700  0.68700  1.0000
  O   O11       1.0  0.88900  0.07230  0.72800  1.0000
  O   O12       1.0  0.36300  0.60300  0.79900  1.0000
  O   O13       1.0  0.09140  0.81300  0.82500  1.0000
  O   O14       1.0  0.74000  0.35900  0.88200  1.0000
  O   O15       1.0  0.73600  0.80400  0.89300  1.0000
  Si  Si1       1.0  0.83400  0.37300  0.14900  1.0000
  Si  Si2       1.0  0.49200  0.31300  0.30800  1.0000
  Si  Si3       1.0  0.19300  0.74700  0.31000  1.0000
  Si  Si4       1.0  0.80700  0.25300  0.69000  1.0000
  Si  Si5       1.0  0.50800  0.68700  0.69200  1.0000
  Si  Si6       1.0  0.16600  0.62700  0.85100  1.0000
  Ti  Ti1       1.0  0.00000  0.00000  0.00000  1.0000
