data_image0
_chemical_formula_structural       N12Nb4Sr8
_chemical_formula_sum              "N12 Nb4 Sr8"
_cell_length_a       6.01901
_cell_length_b       6.372
_cell_length_c       12.5453
_cell_angle_alpha    91.2787
_cell_angle_beta     92.7082
_cell_angle_gamma    61.8162

_space_group_name_H-M_alt    "P 1"
_space_group_IT_number       1

loop_
  _space_group_symop_operation_xyz
  'x, y, z'

loop_
  _atom_site_type_symbol
  _atom_site_label
  _atom_site_symmetry_multiplicity
  _atom_site_fract_x
  _atom_site_fract_y
  _atom_site_fract_z
  _atom_site_occupancy
  N   N1        1.0  0.80200  0.81300  0.03820  1.0000
  N   N2        1.0  0.67400  0.32500  0.12500  1.0000
  N   N3        1.0  0.49900  0.00287  0.25000  1.0000
  N   N4        1.0  0.09350  0.81300  0.25000  1.0000
  N   N5        1.0  0.00083  0.32500  0.37500  1.0000
  N   N6        1.0  0.38500  0.81300  0.46200  1.0000
  N   N7        1.0  0.61500  0.18700  0.53800  1.0000
  N   N8        1.0  0.99900  0.67500  0.62500  1.0000
  N   N9        1.0  0.50100  0.99700  0.75000  1.0000
  N   N10       1.0  0.90600  0.18700  0.75000  1.0000
  N   N11       1.0  0.32600  0.67500  0.87500  1.0000
  N   N12       1.0  0.19800  0.18700  0.96200  1.0000
  Nb  Nb1       1.0  0.76800  0.00088  0.16300  1.0000
  Nb  Nb2       1.0  0.23100  0.00088  0.33700  1.0000
  Nb  Nb3       1.0  0.76900  0.99900  0.66300  1.0000
  Nb  Nb4       1.0  0.23200  0.99900  0.83700  1.0000
  Sr  Sr1       1.0  0.38700  0.76800  0.07740  1.0000
  Sr  Sr2       1.0  0.05780  0.40400  0.14300  1.0000
  Sr  Sr3       1.0  0.53800  0.40400  0.35700  1.0000
  Sr  Sr4       1.0  0.84600  0.76800  0.42300  1.0000
  Sr  Sr5       1.0  0.15400  0.23200  0.57700  1.0000
  Sr  Sr6       1.0  0.46200  0.59600  0.64300  1.0000
  Sr  Sr7       1.0  0.94200  0.59600  0.85700  1.0000
  Sr  Sr8       1.0  0.61300  0.23200  0.92300  1.0000
