data_image0
_chemical_formula_structural       Ba3Cu6S12Sn3
_chemical_formula_sum              "Ba3 Cu6 S12 Sn3"
_cell_length_a       6.41468
_cell_length_b       6.41468
_cell_length_c       15.8477
_cell_angle_alpha    90
_cell_angle_beta     90
_cell_angle_gamma    120

_space_group_name_H-M_alt    "P 1"
_space_group_IT_number       1

loop_
  _space_group_symop_operation_xyz
  'x, y, z'

loop_
  _atom_site_type_symbol
  _atom_site_label
  _atom_site_symmetry_multiplicity
  _atom_site_fract_x
  _atom_site_fract_y
  _atom_site_fract_z
  _atom_site_occupancy
  Ba  Ba1       1.0  0.90300  0.66700  0.24900  1.0000
  Ba  Ba2       1.0  0.33300  0.23600  0.58300  1.0000
  Ba  Ba3       1.0  0.76400  0.09690  0.91600  1.0000
  Cu  Cu1       1.0  0.96900  0.73600  0.00478  1.0000
  Cu  Cu2       1.0  0.69700  0.10000  0.16100  1.0000
  Cu  Cu3       1.0  0.26400  0.23300  0.33800  1.0000
  Cu  Cu4       1.0  0.90000  0.59700  0.49400  1.0000
  Cu  Cu5       1.0  0.76700  0.03100  0.67100  1.0000
  Cu  Cu6       1.0  0.40300  0.30300  0.82700  1.0000
  S   S1        1.0  0.98400  0.43400  0.08070  1.0000
  S   S2        1.0  0.68200  0.78300  0.08450  1.0000
  S   S3        1.0  0.39000  0.16800  0.20300  1.0000
  S   S4        1.0  0.88900  0.16500  0.29600  1.0000
  S   S5        1.0  0.56600  0.55000  0.41400  1.0000
  S   S6        1.0  0.21700  0.89900  0.41800  1.0000
  S   S7        1.0  0.83200  0.22200  0.53600  1.0000
  S   S8        1.0  0.83500  0.72300  0.62900  1.0000
  S   S9        1.0  0.45000  0.01580  0.74700  1.0000
  S   S10       1.0  0.10100  0.31800  0.75100  1.0000
  S   S11       1.0  0.77800  0.61000  0.87000  1.0000
  S   S12       1.0  0.27700  0.11100  0.96200  1.0000
  Sn  Sn1       1.0  0.33300  0.37400  0.08260  1.0000
  Sn  Sn2       1.0  0.62600  0.95900  0.41600  1.0000
  Sn  Sn3       1.0  0.04060  0.66700  0.74900  1.0000
