data_image0
_chemical_formula_structural       N14Na2P8
_chemical_formula_sum              "N14 Na2 P8"
_cell_length_a       5.13857
_cell_length_b       7.47421
_cell_length_c       7.47421
_cell_angle_alpha    69.3152
_cell_angle_beta     100.464
_cell_angle_gamma    100.464

_space_group_name_H-M_alt    "P 1"
_space_group_IT_number       1

loop_
  _space_group_symop_operation_xyz
  'x, y, z'

loop_
  _atom_site_type_symbol
  _atom_site_label
  _atom_site_symmetry_multiplicity
  _atom_site_fract_x
  _atom_site_fract_y
  _atom_site_fract_z
  _atom_site_occupancy
  N   N1        1.0  0.57000  0.18000  0.07730  1.0000
  N   N2        1.0  0.81900  0.60900  0.10800  1.0000
  N   N3        1.0  0.07050  0.07730  0.18000  1.0000
  N   N4        1.0  0.39200  0.36500  0.26500  1.0000
  N   N5        1.0  0.89200  0.26500  0.36500  1.0000
  N   N6        1.0  0.68100  0.89200  0.39100  1.0000
  N   N7        1.0  0.75000  0.51800  0.48200  1.0000
  N   N8        1.0  0.25000  0.48200  0.51800  1.0000
  N   N9        1.0  0.31900  0.10800  0.60900  1.0000
  N   N10       1.0  0.10800  0.73500  0.63500  1.0000
  N   N11       1.0  0.60800  0.63500  0.73500  1.0000
  N   N12       1.0  0.93000  0.92300  0.82000  1.0000
  N   N13       1.0  0.18100  0.39100  0.89200  1.0000
  N   N14       1.0  0.43000  0.82000  0.92300  1.0000
  Na  Na1       1.0  0.25000  0.78900  0.21100  1.0000
  Na  Na2       1.0  0.75000  0.21100  0.78900  1.0000
  P   P1        1.0  0.30000  0.24800  0.09380  1.0000
  P   P2        1.0  0.80000  0.09380  0.24800  1.0000
  P   P3        1.0  0.71600  0.45800  0.29700  1.0000
  P   P4        1.0  0.21600  0.29700  0.45800  1.0000
  P   P5        1.0  0.78400  0.70300  0.54200  1.0000
  P   P6        1.0  0.28400  0.54200  0.70300  1.0000
  P   P7        1.0  0.20000  0.90600  0.75200  1.0000
  P   P8        1.0  0.70000  0.75200  0.90600  1.0000
