data_image0
_chemical_formula_structural       As4Fe4O16
_chemical_formula_sum              "As4 Fe4 O16"
_cell_length_a       7.49737
_cell_length_b       8.10355
_cell_length_c       5.00976
_cell_angle_alpha    90
_cell_angle_beta     104.038
_cell_angle_gamma    90

_space_group_name_H-M_alt    "P 1"
_space_group_IT_number       1

loop_
  _space_group_symop_operation_xyz
  'x, y, z'

loop_
  _atom_site_type_symbol
  _atom_site_label
  _atom_site_symmetry_multiplicity
  _atom_site_fract_x
  _atom_site_fract_y
  _atom_site_fract_z
  _atom_site_occupancy
  As  As1       1.0  0.08140  0.20000  0.22200  1.0000
  As  As2       1.0  0.41900  0.70000  0.27800  1.0000
  As  As3       1.0  0.58100  0.30000  0.72200  1.0000
  As  As4       1.0  0.91900  0.80000  0.77800  1.0000
  Fe  Fe1       1.0  0.82500  0.53700  0.23800  1.0000
  Fe  Fe2       1.0  0.67500  0.03690  0.26200  1.0000
  Fe  Fe3       1.0  0.32500  0.96300  0.73800  1.0000
  Fe  Fe4       1.0  0.17500  0.46300  0.76200  1.0000
  O   O1        1.0  0.85700  0.74100  0.06940  1.0000
  O   O2        1.0  0.23200  0.60300  0.07880  1.0000
  O   O3        1.0  0.47100  0.87400  0.10900  1.0000
  O   O4        1.0  0.89800  0.07040  0.16100  1.0000
  O   O5        1.0  0.60200  0.57000  0.33900  1.0000
  O   O6        1.0  0.02870  0.37400  0.39100  1.0000
  O   O7        1.0  0.26800  0.10300  0.42100  1.0000
  O   O8        1.0  0.64300  0.24100  0.43100  1.0000
  O   O9        1.0  0.35700  0.75900  0.56900  1.0000
  O   O10       1.0  0.73200  0.89700  0.57900  1.0000
  O   O11       1.0  0.97100  0.62600  0.60900  1.0000
  O   O12       1.0  0.39800  0.43000  0.66100  1.0000
  O   O13       1.0  0.10200  0.93000  0.83900  1.0000
  O   O14       1.0  0.52900  0.12600  0.89100  1.0000
  O   O15       1.0  0.76800  0.39700  0.92100  1.0000
  O   O16       1.0  0.14300  0.25900  0.93100  1.0000
