data_image0
_chemical_formula_structural       Co4La6S14
_chemical_formula_sum              "Co4 La6 S14"
_cell_length_a       10.0614
_cell_length_b       10.0612
_cell_length_c       5.98477
_cell_angle_alpha    90
_cell_angle_beta     90
_cell_angle_gamma    120

_space_group_name_H-M_alt    "P 1"
_space_group_IT_number       1

loop_
  _space_group_symop_operation_xyz
  'x, y, z'

loop_
  _atom_site_type_symbol
  _atom_site_label
  _atom_site_symmetry_multiplicity
  _atom_site_fract_x
  _atom_site_fract_y
  _atom_site_fract_z
  _atom_site_occupancy
  Co  Co1       1.0  0.00000  0.00000  0.03880  1.0000
  Co  Co2       1.0  0.66700  0.33300  0.14500  1.0000
  Co  Co3       1.0  0.00000  0.00000  0.53900  1.0000
  Co  Co4       1.0  0.33300  0.66700  0.64500  1.0000
  La  La1       1.0  0.23500  0.85000  0.23800  1.0000
  La  La2       1.0  0.15000  0.38400  0.23800  1.0000
  La  La3       1.0  0.61600  0.76500  0.23800  1.0000
  La  La4       1.0  0.76500  0.15000  0.73800  1.0000
  La  La5       1.0  0.85000  0.61600  0.73800  1.0000
  La  La6       1.0  0.38400  0.23500  0.73800  1.0000
  S   S1        1.0  0.33300  0.66700  0.01110  1.0000
  S   S2        1.0  0.51600  0.09470  0.01670  1.0000
  S   S3        1.0  0.57800  0.48400  0.01670  1.0000
  S   S4        1.0  0.90500  0.42200  0.01680  1.0000
  S   S5        1.0  0.92000  0.79600  0.29300  1.0000
  S   S6        1.0  0.87600  0.07980  0.29300  1.0000
  S   S7        1.0  0.20400  0.12400  0.29300  1.0000
  S   S8        1.0  0.66700  0.33300  0.51100  1.0000
  S   S9        1.0  0.42200  0.51600  0.51700  1.0000
  S   S10       1.0  0.48400  0.90500  0.51700  1.0000
  S   S11       1.0  0.09470  0.57800  0.51700  1.0000
  S   S12       1.0  0.07980  0.20400  0.79300  1.0000
  S   S13       1.0  0.12400  0.92000  0.79300  1.0000
  S   S14       1.0  0.79600  0.87600  0.79300  1.0000
