data_image0
_chemical_formula_structural       Na8O12Pd4
_chemical_formula_sum              "Na8 O12 Pd4"
_cell_length_a       5.39825
_cell_length_b       5.39843
_cell_length_c       10.7012
_cell_angle_alpha    94.7281
_cell_angle_beta     99.4891
_cell_angle_gamma    60.0011

_space_group_name_H-M_alt    "P 1"
_space_group_IT_number       1

loop_
  _space_group_symop_operation_xyz
  'x, y, z'

loop_
  _atom_site_type_symbol
  _atom_site_label
  _atom_site_symmetry_multiplicity
  _atom_site_fract_x
  _atom_site_fract_y
  _atom_site_fract_z
  _atom_site_occupancy
  Na  Na1       1.0  0.50000  0.50000  0.00000  1.0000
  Na  Na2       1.0  0.90900  0.18200  0.25000  1.0000
  Na  Na3       1.0  0.59200  0.81600  0.25000  1.0000
  Na  Na4       1.0  0.25100  0.49900  0.25000  1.0000
  Na  Na5       1.0  0.00000  0.50000  0.50000  1.0000
  Na  Na6       1.0  0.74900  0.50100  0.75000  1.0000
  Na  Na7       1.0  0.40800  0.18400  0.75000  1.0000
  Na  Na8       1.0  0.09090  0.81800  0.75000  1.0000
  O   O1        1.0  0.17300  0.86200  0.10600  1.0000
  O   O2        1.0  0.89600  0.50000  0.10600  1.0000
  O   O3        1.0  0.53500  0.13700  0.10600  1.0000
  O   O4        1.0  0.32700  0.13700  0.39400  1.0000
  O   O5        1.0  0.60400  0.50000  0.39400  1.0000
  O   O6        1.0  0.96500  0.86200  0.39400  1.0000
  O   O7        1.0  0.03520  0.13800  0.60600  1.0000
  O   O8        1.0  0.39600  0.50000  0.60600  1.0000
  O   O9        1.0  0.67300  0.86300  0.60600  1.0000
  O   O10       1.0  0.46500  0.86300  0.89400  1.0000
  O   O11       1.0  0.10400  0.50000  0.89400  1.0000
  O   O12       1.0  0.82700  0.13800  0.89400  1.0000
  Pd  Pd1       1.0  0.16700  0.16600  0.00000  1.0000
  Pd  Pd2       1.0  0.83300  0.83400  0.00000  1.0000
  Pd  Pd3       1.0  0.66700  0.16600  0.50000  1.0000
  Pd  Pd4       1.0  0.33300  0.83400  0.50000  1.0000
