data_image0
_chemical_formula_structural       Ni8Sc16
_chemical_formula_sum              "Ni8 Sc16"
_cell_length_a       8.54557
_cell_length_b       8.54557
_cell_length_c       8.54557
_cell_angle_alpha    120
_cell_angle_beta     90
_cell_angle_gamma    120

_space_group_name_H-M_alt    "P 1"
_space_group_IT_number       1

loop_
  _space_group_symop_operation_xyz
  'x, y, z'

loop_
  _atom_site_type_symbol
  _atom_site_label
  _atom_site_symmetry_multiplicity
  _atom_site_fract_x
  _atom_site_fract_y
  _atom_site_fract_z
  _atom_site_occupancy
  Ni  Ni1       1.0  0.21200  0.42400  0.13700  1.0000
  Ni  Ni2       1.0  0.78800  0.57600  0.21200  1.0000
  Ni  Ni3       1.0  0.13700  0.92400  0.21200  1.0000
  Ni  Ni4       1.0  0.78800  0.92400  0.21200  1.0000
  Ni  Ni5       1.0  0.86300  0.07550  0.78800  1.0000
  Ni  Ni6       1.0  0.21200  0.42400  0.78800  1.0000
  Ni  Ni7       1.0  0.21200  0.07550  0.78800  1.0000
  Ni  Ni8       1.0  0.78800  0.57600  0.86300  1.0000
  Sc  Sc1       1.0  0.00000  0.00000  0.00000  1.0000
  Sc  Sc2       1.0  0.00000  0.50000  0.00000  1.0000
  Sc  Sc3       1.0  0.50000  0.50000  0.00000  1.0000
  Sc  Sc4       1.0  0.44000  0.25000  0.19000  1.0000
  Sc  Sc5       1.0  0.81000  0.25000  0.19000  1.0000
  Sc  Sc6       1.0  0.44000  0.87900  0.19000  1.0000
  Sc  Sc7       1.0  0.19000  0.37900  0.44000  1.0000
  Sc  Sc8       1.0  0.19000  0.75000  0.44000  1.0000
  Sc  Sc9       1.0  0.56000  0.75000  0.44000  1.0000
  Sc  Sc10      1.0  0.00000  0.00000  0.50000  1.0000
  Sc  Sc11      1.0  0.44000  0.25000  0.56000  1.0000
  Sc  Sc12      1.0  0.81000  0.25000  0.56000  1.0000
  Sc  Sc13      1.0  0.81000  0.62100  0.56000  1.0000
  Sc  Sc14      1.0  0.19000  0.75000  0.81000  1.0000
  Sc  Sc15      1.0  0.56000  0.75000  0.81000  1.0000
  Sc  Sc16      1.0  0.56000  0.12100  0.81000  1.0000
