data_image0
_chemical_formula_structural       Co4Li6O12Ta2
_chemical_formula_sum              "Co4 Li6 O12 Ta2"
_cell_length_a       5.18571
_cell_length_b       5.18571
_cell_length_c       9.28871
_cell_angle_alpha    100.374
_cell_angle_beta     100.374
_cell_angle_gamma    110.788

_space_group_name_H-M_alt    "P 1"
_space_group_IT_number       1

loop_
  _space_group_symop_operation_xyz
  'x, y, z'

loop_
  _atom_site_type_symbol
  _atom_site_label
  _atom_site_symmetry_multiplicity
  _atom_site_fract_x
  _atom_site_fract_y
  _atom_site_fract_z
  _atom_site_occupancy
  Co  Co1       1.0  0.53700  0.78700  0.07420  1.0000
  Co  Co2       1.0  0.21300  0.46300  0.42600  1.0000
  Co  Co3       1.0  0.78700  0.53700  0.57400  1.0000
  Co  Co4       1.0  0.46300  0.21300  0.92600  1.0000
  Li  Li1       1.0  0.04320  0.29300  0.08630  1.0000
  Li  Li2       1.0  0.62500  0.37500  0.25000  1.0000
  Li  Li3       1.0  0.70700  0.95700  0.41400  1.0000
  Li  Li4       1.0  0.29300  0.04320  0.58600  1.0000
  Li  Li5       1.0  0.37500  0.62500  0.75000  1.0000
  Li  Li6       1.0  0.95700  0.70700  0.91400  1.0000
  O   O1        1.0  0.29100  0.03170  0.08970  1.0000
  O   O2        1.0  0.79800  0.55800  0.08970  1.0000
  O   O3        1.0  0.89100  0.10900  0.25000  1.0000
  O   O4        1.0  0.35900  0.64100  0.25000  1.0000
  O   O5        1.0  0.44200  0.20200  0.41000  1.0000
  O   O6        1.0  0.96800  0.70900  0.41000  1.0000
  O   O7        1.0  0.03170  0.29100  0.59000  1.0000
  O   O8        1.0  0.55800  0.79800  0.59000  1.0000
  O   O9        1.0  0.64100  0.35900  0.75000  1.0000
  O   O10       1.0  0.10900  0.89100  0.75000  1.0000
  O   O11       1.0  0.20200  0.44200  0.91000  1.0000
  O   O12       1.0  0.70900  0.96800  0.91000  1.0000
  Ta  Ta1       1.0  0.12500  0.87500  0.25000  1.0000
  Ta  Ta2       1.0  0.87500  0.12500  0.75000  1.0000
