data_image0
_chemical_formula_structural       Cr12Ni8Si4
_chemical_formula_sum              "Cr12 Ni8 Si4"
_cell_length_a       7.31802
_cell_length_b       7.31802
_cell_length_c       7.31802
_cell_angle_alpha    120
_cell_angle_beta     90
_cell_angle_gamma    120

_space_group_name_H-M_alt    "P 1"
_space_group_IT_number       1

loop_
  _space_group_symop_operation_xyz
  'x, y, z'

loop_
  _atom_site_type_symbol
  _atom_site_label
  _atom_site_symmetry_multiplicity
  _atom_site_fract_x
  _atom_site_fract_y
  _atom_site_fract_z
  _atom_site_occupancy
  Cr  Cr1       1.0  0.82900  0.00000  0.17100  1.0000
  Cr  Cr2       1.0  0.17100  0.00000  0.17100  1.0000
  Cr  Cr3       1.0  0.17100  0.34100  0.17100  1.0000
  Cr  Cr4       1.0  0.07940  0.15900  0.57900  1.0000
  Cr  Cr5       1.0  0.07940  0.50000  0.57900  1.0000
  Cr  Cr6       1.0  0.42100  0.50000  0.57900  1.0000
  Cr  Cr7       1.0  0.82900  0.00000  0.82900  1.0000
  Cr  Cr8       1.0  0.17100  0.00000  0.82900  1.0000
  Cr  Cr9       1.0  0.82900  0.65900  0.82900  1.0000
  Cr  Cr10      1.0  0.07940  0.50000  0.92100  1.0000
  Cr  Cr11      1.0  0.42100  0.50000  0.92100  1.0000
  Cr  Cr12      1.0  0.42100  0.84100  0.92100  1.0000
  Ni  Ni1       1.0  0.49600  0.33100  0.16500  1.0000
  Ni  Ni2       1.0  0.83500  0.33100  0.16500  1.0000
  Ni  Ni3       1.0  0.83500  0.66900  0.16500  1.0000
  Ni  Ni4       1.0  0.41500  0.83100  0.24600  1.0000
  Ni  Ni5       1.0  0.83500  0.66900  0.50400  1.0000
  Ni  Ni6       1.0  0.75400  0.16900  0.58500  1.0000
  Ni  Ni7       1.0  0.41500  0.16900  0.58500  1.0000
  Ni  Ni8       1.0  0.41500  0.83100  0.58500  1.0000
  Si  Si1       1.0  0.62500  0.25000  0.37500  1.0000
  Si  Si2       1.0  0.12500  0.75000  0.37500  1.0000
  Si  Si3       1.0  0.62500  0.75000  0.37500  1.0000
  Si  Si4       1.0  0.62500  0.25000  0.87500  1.0000
