data_image0
_chemical_formula_structural       Al2Co2Dy6S14
_chemical_formula_sum              "Al2 Co2 Dy6 S14"
_cell_length_a       9.52125
_cell_length_b       9.52125
_cell_length_c       6.12948
_cell_angle_alpha    90
_cell_angle_beta     90
_cell_angle_gamma    120

_space_group_name_H-M_alt    "P 1"
_space_group_IT_number       1

loop_
  _space_group_symop_operation_xyz
  'x, y, z'

loop_
  _atom_site_type_symbol
  _atom_site_label
  _atom_site_symmetry_multiplicity
  _atom_site_fract_x
  _atom_site_fract_y
  _atom_site_fract_z
  _atom_site_occupancy
  Al  Al1       1.0  0.66700  0.33300  0.15200  1.0000
  Al  Al2       1.0  0.33300  0.66700  0.65200  1.0000
  Co  Co1       1.0  0.00000  0.00000  0.06550  1.0000
  Co  Co2       1.0  0.00000  0.00000  0.56500  1.0000
  Dy  Dy1       1.0  0.15300  0.37400  0.22600  1.0000
  Dy  Dy2       1.0  0.62600  0.77900  0.22600  1.0000
  Dy  Dy3       1.0  0.22100  0.84700  0.22600  1.0000
  Dy  Dy4       1.0  0.77900  0.15300  0.72600  1.0000
  Dy  Dy5       1.0  0.84700  0.62600  0.72600  1.0000
  Dy  Dy6       1.0  0.37400  0.22100  0.72600  1.0000
  S   S1        1.0  0.33300  0.66700  0.01580  1.0000
  S   S2        1.0  0.87100  0.09450  0.32000  1.0000
  S   S3        1.0  0.22300  0.12900  0.32000  1.0000
  S   S4        1.0  0.90600  0.77700  0.32000  1.0000
  S   S5        1.0  0.43100  0.51900  0.49800  1.0000
  S   S6        1.0  0.08800  0.56900  0.49800  1.0000
  S   S7        1.0  0.48100  0.91200  0.49800  1.0000
  S   S8        1.0  0.66700  0.33300  0.51600  1.0000
  S   S9        1.0  0.09450  0.22300  0.82000  1.0000
  S   S10       1.0  0.12900  0.90600  0.82000  1.0000
  S   S11       1.0  0.77700  0.87100  0.82000  1.0000
  S   S12       1.0  0.56900  0.48100  0.99800  1.0000
  S   S13       1.0  0.51900  0.08800  0.99800  1.0000
  S   S14       1.0  0.91200  0.43100  0.99800  1.0000
