data_image0
_chemical_formula_structural       B16U4V4
_chemical_formula_sum              "B16 U4 V4"
_cell_length_a       5.89584
_cell_length_b       11.4143
_cell_length_c       3.53864
_cell_angle_alpha    90
_cell_angle_beta     90
_cell_angle_gamma    90

_space_group_name_H-M_alt    "P 1"
_space_group_IT_number       1

loop_
  _space_group_symop_operation_xyz
  'x, y, z'

loop_
  _atom_site_type_symbol
  _atom_site_label
  _atom_site_symmetry_multiplicity
  _atom_site_fract_x
  _atom_site_fract_y
  _atom_site_fract_z
  _atom_site_occupancy
  B   B1        1.0  0.86600  0.03290  0.50000  1.0000
  B   B2        1.0  0.38500  0.04690  0.50000  1.0000
  B   B3        1.0  0.78500  0.18700  0.50000  1.0000
  B   B4        1.0  0.47300  0.19300  0.50000  1.0000
  B   B5        1.0  0.97300  0.30700  0.50000  1.0000
  B   B6        1.0  0.28500  0.31300  0.50000  1.0000
  B   B7        1.0  0.88500  0.45300  0.50000  1.0000
  B   B8        1.0  0.36600  0.46700  0.50000  1.0000
  B   B9        1.0  0.63400  0.53300  0.50000  1.0000
  B   B10       1.0  0.11500  0.54700  0.50000  1.0000
  B   B11       1.0  0.71500  0.68700  0.50000  1.0000
  B   B12       1.0  0.02740  0.69300  0.50000  1.0000
  B   B13       1.0  0.52700  0.80700  0.50000  1.0000
  B   B14       1.0  0.21500  0.81300  0.50000  1.0000
  B   B15       1.0  0.61500  0.95300  0.50000  1.0000
  B   B16       1.0  0.13400  0.96700  0.50000  1.0000
  U   U1        1.0  0.12500  0.15100  0.00000  1.0000
  U   U2        1.0  0.62500  0.34900  0.00000  1.0000
  U   U3        1.0  0.37500  0.65100  0.00000  1.0000
  U   U4        1.0  0.87500  0.84900  0.00000  1.0000
  V   V1        1.0  0.62700  0.08420  0.00000  1.0000
  V   V2        1.0  0.12700  0.41600  0.00000  1.0000
  V   V3        1.0  0.87300  0.58400  0.00000  1.0000
  V   V4        1.0  0.37300  0.91600  0.00000  1.0000
