data_image0
_chemical_formula_structural       Cu4La4Se12Sr4
_chemical_formula_sum              "Cu4 La4 Se12 Sr4"
_cell_length_a       8.54274
_cell_length_b       4.28668
_cell_length_c       16.6131
_cell_angle_alpha    90
_cell_angle_beta     90
_cell_angle_gamma    90

_space_group_name_H-M_alt    "P 1"
_space_group_IT_number       1

loop_
  _space_group_symop_operation_xyz
  'x, y, z'

loop_
  _atom_site_type_symbol
  _atom_site_label
  _atom_site_symmetry_multiplicity
  _atom_site_fract_x
  _atom_site_fract_y
  _atom_site_fract_z
  _atom_site_occupancy
  Cu  Cu1       1.0  0.62200  0.25000  0.13400  1.0000
  Cu  Cu2       1.0  0.12200  0.25000  0.36600  1.0000
  Cu  Cu3       1.0  0.87800  0.75000  0.63400  1.0000
  Cu  Cu4       1.0  0.37800  0.75000  0.86600  1.0000
  La  La1       1.0  0.25800  0.25000  0.04040  1.0000
  La  La2       1.0  0.75800  0.25000  0.46000  1.0000
  La  La3       1.0  0.24200  0.75000  0.54000  1.0000
  La  La4       1.0  0.74200  0.75000  0.96000  1.0000
  Se  Se1       1.0  0.87800  0.25000  0.06420  1.0000
  Se  Se2       1.0  0.49100  0.75000  0.09720  1.0000
  Se  Se3       1.0  0.17800  0.25000  0.21900  1.0000
  Se  Se4       1.0  0.67800  0.25000  0.28100  1.0000
  Se  Se5       1.0  0.99100  0.75000  0.40300  1.0000
  Se  Se6       1.0  0.37800  0.25000  0.43600  1.0000
  Se  Se7       1.0  0.62200  0.75000  0.56400  1.0000
  Se  Se8       1.0  0.00865  0.25000  0.59700  1.0000
  Se  Se9       1.0  0.32200  0.75000  0.71900  1.0000
  Se  Se10      1.0  0.82200  0.75000  0.78100  1.0000
  Se  Se11      1.0  0.50900  0.25000  0.90300  1.0000
  Se  Se12      1.0  0.12200  0.75000  0.93600  1.0000
  Sr  Sr1       1.0  0.90900  0.75000  0.21500  1.0000
  Sr  Sr2       1.0  0.40900  0.75000  0.28500  1.0000
  Sr  Sr3       1.0  0.59100  0.25000  0.71500  1.0000
  Sr  Sr4       1.0  0.09090  0.25000  0.78500  1.0000
