data_image0
_chemical_formula_structural       Cu4La4Pb4S12
_chemical_formula_sum              "Cu4 La4 Pb4 S12"
_cell_length_a       8.09207
_cell_length_b       4.13774
_cell_length_c       15.9725
_cell_angle_alpha    90
_cell_angle_beta     90
_cell_angle_gamma    90

_space_group_name_H-M_alt    "P 1"
_space_group_IT_number       1

loop_
  _space_group_symop_operation_xyz
  'x, y, z'

loop_
  _atom_site_type_symbol
  _atom_site_label
  _atom_site_symmetry_multiplicity
  _atom_site_fract_x
  _atom_site_fract_y
  _atom_site_fract_z
  _atom_site_occupancy
  Cu  Cu1       1.0  0.62600  0.25000  0.13100  1.0000
  Cu  Cu2       1.0  0.12600  0.25000  0.36900  1.0000
  Cu  Cu3       1.0  0.87400  0.75000  0.63100  1.0000
  Cu  Cu4       1.0  0.37400  0.75000  0.86900  1.0000
  La  La1       1.0  0.25000  0.25000  0.04010  1.0000
  La  La2       1.0  0.75000  0.25000  0.46000  1.0000
  La  La3       1.0  0.25000  0.75000  0.54000  1.0000
  La  La4       1.0  0.75000  0.75000  0.96000  1.0000
  Pb  Pb1       1.0  0.91200  0.75000  0.22100  1.0000
  Pb  Pb2       1.0  0.41200  0.75000  0.27900  1.0000
  Pb  Pb3       1.0  0.58800  0.25000  0.72100  1.0000
  Pb  Pb4       1.0  0.08850  0.25000  0.77900  1.0000
  S   S1        1.0  0.87800  0.25000  0.06270  1.0000
  S   S2        1.0  0.49000  0.75000  0.09800  1.0000
  S   S3        1.0  0.18000  0.25000  0.22100  1.0000
  S   S4        1.0  0.68000  0.25000  0.27900  1.0000
  S   S5        1.0  0.99000  0.75000  0.40200  1.0000
  S   S6        1.0  0.37800  0.25000  0.43700  1.0000
  S   S7        1.0  0.62200  0.75000  0.56300  1.0000
  S   S8        1.0  0.00991  0.25000  0.59800  1.0000
  S   S9        1.0  0.32000  0.75000  0.72100  1.0000
  S   S10       1.0  0.82000  0.75000  0.77900  1.0000
  S   S11       1.0  0.51000  0.25000  0.90200  1.0000
  S   S12       1.0  0.12200  0.75000  0.93700  1.0000
