data_image0
_chemical_formula_structural       Ce4Cu4Se12Sr4
_chemical_formula_sum              "Ce4 Cu4 Se12 Sr4"
_cell_length_a       8.61101
_cell_length_b       4.17202
_cell_length_c       16.9481
_cell_angle_alpha    90
_cell_angle_beta     90
_cell_angle_gamma    90

_space_group_name_H-M_alt    "P 1"
_space_group_IT_number       1

loop_
  _space_group_symop_operation_xyz
  'x, y, z'

loop_
  _atom_site_type_symbol
  _atom_site_label
  _atom_site_symmetry_multiplicity
  _atom_site_fract_x
  _atom_site_fract_y
  _atom_site_fract_z
  _atom_site_occupancy
  Ce  Ce1       1.0  0.09140  0.25000  0.21300  1.0000
  Ce  Ce2       1.0  0.59100  0.25000  0.28700  1.0000
  Ce  Ce3       1.0  0.40900  0.75000  0.71300  1.0000
  Ce  Ce4       1.0  0.90900  0.75000  0.78700  1.0000
  Cu  Cu1       1.0  0.37700  0.75000  0.13600  1.0000
  Cu  Cu2       1.0  0.87700  0.75000  0.36400  1.0000
  Cu  Cu3       1.0  0.12300  0.25000  0.63600  1.0000
  Cu  Cu4       1.0  0.62300  0.25000  0.86400  1.0000
  Se  Se1       1.0  0.11200  0.75000  0.07930  1.0000
  Se  Se2       1.0  0.51400  0.25000  0.10700  1.0000
  Se  Se3       1.0  0.81800  0.75000  0.22000  1.0000
  Se  Se4       1.0  0.31800  0.75000  0.28000  1.0000
  Se  Se5       1.0  0.01440  0.25000  0.39300  1.0000
  Se  Se6       1.0  0.61200  0.75000  0.42100  1.0000
  Se  Se7       1.0  0.38800  0.25000  0.57900  1.0000
  Se  Se8       1.0  0.98600  0.75000  0.60700  1.0000
  Se  Se9       1.0  0.68200  0.25000  0.72000  1.0000
  Se  Se10      1.0  0.18200  0.25000  0.78000  1.0000
  Se  Se11      1.0  0.48600  0.75000  0.89300  1.0000
  Se  Se12      1.0  0.88800  0.25000  0.92100  1.0000
  Sr  Sr1       1.0  0.73700  0.75000  0.03230  1.0000
  Sr  Sr2       1.0  0.23700  0.75000  0.46800  1.0000
  Sr  Sr3       1.0  0.76300  0.25000  0.53200  1.0000
  Sr  Sr4       1.0  0.26300  0.25000  0.96800  1.0000
