data_image0
_chemical_formula_structural       Bi2O8P2
_chemical_formula_sum              "Bi2 O8 P2"
_cell_length_a       4.77141
_cell_length_b       7.12576
_cell_length_c       4.6809
_cell_angle_alpha    90
_cell_angle_beta     95.5896
_cell_angle_gamma    90

_space_group_name_H-M_alt    "P 1"
_space_group_IT_number       1

loop_
  _space_group_symop_operation_xyz
  'x, y, z'

loop_
  _atom_site_type_symbol
  _atom_site_label
  _atom_site_symmetry_multiplicity
  _atom_site_fract_x
  _atom_site_fract_y
  _atom_site_fract_z
  _atom_site_occupancy
  Bi  Bi1       1.0  0.14200  0.00066  0.13600  1.0000
  Bi  Bi2       1.0  0.85800  0.50100  0.86400  1.0000
  O   O1        1.0  0.18600  0.67000  0.20100  1.0000
  O   O2        1.0  0.18400  0.33000  0.20400  1.0000
  O   O3        1.0  0.66000  0.49900  0.30700  1.0000
  O   O4        1.0  0.67300  0.00101  0.32200  1.0000
  O   O5        1.0  0.32700  0.50100  0.67800  1.0000
  O   O6        1.0  0.34000  0.99900  0.69300  1.0000
  O   O7        1.0  0.81600  0.83000  0.79600  1.0000
  O   O8        1.0  0.81400  0.17000  0.79900  1.0000
  P   P1        1.0  0.34300  0.50000  0.35000  1.0000
  P   P2        1.0  0.65700  0.00000  0.65000  1.0000
