data_image0
_chemical_formula_structural       La10N2O4S8
_chemical_formula_sum              "La10 N2 O4 S8"
_cell_length_a       4.08864
_cell_length_b       8.11125
_cell_length_c       16.7396
_cell_angle_alpha    100.779
_cell_angle_beta     90
_cell_angle_gamma    104.598

_space_group_name_H-M_alt    "P 1"
_space_group_IT_number       1

loop_
  _space_group_symop_operation_xyz
  'x, y, z'

loop_
  _atom_site_type_symbol
  _atom_site_label
  _atom_site_symmetry_multiplicity
  _atom_site_fract_x
  _atom_site_fract_y
  _atom_site_fract_z
  _atom_site_occupancy
  La  La1       1.0  0.12500  0.25000  0.02420  1.0000
  La  La2       1.0  0.51800  0.03540  0.16800  1.0000
  La  La3       1.0  0.76800  0.53600  0.20700  1.0000
  La  La4       1.0  0.42200  0.84300  0.40600  1.0000
  La  La5       1.0  0.14100  0.28100  0.41400  1.0000
  La  La6       1.0  0.85900  0.71900  0.58600  1.0000
  La  La7       1.0  0.57800  0.15700  0.59400  1.0000
  La  La8       1.0  0.23200  0.46400  0.79300  1.0000
  La  La9       1.0  0.48200  0.96500  0.83200  1.0000
  La  La10      1.0  0.87500  0.75000  0.97600  1.0000
  N   N1        1.0  0.57300  0.14600  0.45000  1.0000
  N   N2        1.0  0.42700  0.85400  0.55000  1.0000
  O   O1        1.0  0.99700  0.99400  0.08620  1.0000
  O   O2        1.0  0.63900  0.27800  0.09650  1.0000
  O   O3        1.0  0.36100  0.72200  0.90400  1.0000
  O   O4        1.0  0.00277  0.00553  0.91400  1.0000
  S   S1        1.0  0.32300  0.64500  0.09980  1.0000
  S   S2        1.0  0.15900  0.31800  0.24400  1.0000
  S   S3        1.0  0.95400  0.90900  0.28400  1.0000
  S   S4        1.0  0.78700  0.57400  0.40600  1.0000
  S   S5        1.0  0.21300  0.42600  0.59400  1.0000
  S   S6        1.0  0.04560  0.09110  0.71600  1.0000
  S   S7        1.0  0.84100  0.68200  0.75600  1.0000
  S   S8        1.0  0.67700  0.35500  0.90000  1.0000
