data_image0
_chemical_formula_structural       Cu2Pr8S14
_chemical_formula_sum              "Cu2 Pr8 S14"
_cell_length_a       10.2683
_cell_length_b       10.2674
_cell_length_c       6.02013
_cell_angle_alpha    90
_cell_angle_beta     90
_cell_angle_gamma    120.046

_space_group_name_H-M_alt    "P 1"
_space_group_IT_number       1

loop_
  _space_group_symop_operation_xyz
  'x, y, z'

loop_
  _atom_site_type_symbol
  _atom_site_label
  _atom_site_symmetry_multiplicity
  _atom_site_fract_x
  _atom_site_fract_y
  _atom_site_fract_z
  _atom_site_occupancy
  Cu  Cu1       1.0  0.00000  0.00000  0.26700  1.0000
  Cu  Cu2       1.0  0.00000  0.00000  0.76700  1.0000
  Pr  Pr1       1.0  0.66700  0.33300  0.18700  1.0000
  Pr  Pr2       1.0  0.20600  0.84800  0.24200  1.0000
  Pr  Pr3       1.0  0.15200  0.35800  0.24200  1.0000
  Pr  Pr4       1.0  0.64200  0.79400  0.24300  1.0000
  Pr  Pr5       1.0  0.33300  0.66700  0.68700  1.0000
  Pr  Pr6       1.0  0.79400  0.15200  0.74200  1.0000
  Pr  Pr7       1.0  0.84800  0.64200  0.74200  1.0000
  Pr  Pr8       1.0  0.35800  0.20600  0.74300  1.0000
  S   S1        1.0  0.33300  0.66700  0.13600  1.0000
  S   S2        1.0  0.85500  0.11100  0.26200  1.0000
  S   S3        1.0  0.25700  0.14500  0.26200  1.0000
  S   S4        1.0  0.88900  0.74300  0.26200  1.0000
  S   S5        1.0  0.04610  0.53900  0.49700  1.0000
  S   S6        1.0  0.49200  0.95300  0.49700  1.0000
  S   S7        1.0  0.45900  0.50800  0.49800  1.0000
  S   S8        1.0  0.66700  0.33300  0.63600  1.0000
  S   S9        1.0  0.14500  0.88900  0.76200  1.0000
  S   S10       1.0  0.74300  0.85500  0.76200  1.0000
  S   S11       1.0  0.11100  0.25700  0.76200  1.0000
  S   S12       1.0  0.95400  0.46100  0.99700  1.0000
  S   S13       1.0  0.50800  0.04740  0.99700  1.0000
  S   S14       1.0  0.54100  0.49200  0.99800  1.0000
