data_image0
_chemical_formula_structural       Ge4Ni8Zn12
_chemical_formula_sum              "Ge4 Ni8 Zn12"
_cell_length_a       7.70872
_cell_length_b       7.70872
_cell_length_c       7.70872
_cell_angle_alpha    120
_cell_angle_beta     90
_cell_angle_gamma    120

_space_group_name_H-M_alt    "P 1"
_space_group_IT_number       1

loop_
  _space_group_symop_operation_xyz
  'x, y, z'

loop_
  _atom_site_type_symbol
  _atom_site_label
  _atom_site_symmetry_multiplicity
  _atom_site_fract_x
  _atom_site_fract_y
  _atom_site_fract_z
  _atom_site_occupancy
  Ge  Ge1       1.0  0.12500  0.75000  0.37500  1.0000
  Ge  Ge2       1.0  0.62500  0.25000  0.37500  1.0000
  Ge  Ge3       1.0  0.62500  0.75000  0.37500  1.0000
  Ge  Ge4       1.0  0.62500  0.25000  0.87500  1.0000
  Ni  Ni1       1.0  0.48400  0.32300  0.16100  1.0000
  Ni  Ni2       1.0  0.83900  0.32300  0.16100  1.0000
  Ni  Ni3       1.0  0.83900  0.67700  0.16100  1.0000
  Ni  Ni4       1.0  0.41100  0.82300  0.23400  1.0000
  Ni  Ni5       1.0  0.83900  0.67700  0.51600  1.0000
  Ni  Ni6       1.0  0.41100  0.82300  0.58900  1.0000
  Ni  Ni7       1.0  0.41100  0.17700  0.58900  1.0000
  Ni  Ni8       1.0  0.76600  0.17700  0.58900  1.0000
  Zn  Zn1       1.0  0.18400  0.00000  0.18400  1.0000
  Zn  Zn2       1.0  0.18400  0.36800  0.18400  1.0000
  Zn  Zn3       1.0  0.81600  0.00000  0.18400  1.0000
  Zn  Zn4       1.0  0.06620  0.50000  0.56600  1.0000
  Zn  Zn5       1.0  0.06620  0.13200  0.56600  1.0000
  Zn  Zn6       1.0  0.43400  0.50000  0.56600  1.0000
  Zn  Zn7       1.0  0.81600  0.00000  0.81600  1.0000
  Zn  Zn8       1.0  0.18400  0.00000  0.81600  1.0000
  Zn  Zn9       1.0  0.81600  0.63200  0.81600  1.0000
  Zn  Zn10      1.0  0.06620  0.50000  0.93400  1.0000
  Zn  Zn11      1.0  0.43400  0.50000  0.93400  1.0000
  Zn  Zn12      1.0  0.43400  0.86800  0.93400  1.0000
