data_image0
_chemical_formula_structural       B4F16In4
_chemical_formula_sum              "B4 F16 In4"
_cell_length_a       5.30326
_cell_length_b       6.93656
_cell_length_c       8.70557
_cell_angle_alpha    90
_cell_angle_beta     90
_cell_angle_gamma    90

_space_group_name_H-M_alt    "P 1"
_space_group_IT_number       1

loop_
  _space_group_symop_operation_xyz
  'x, y, z'

loop_
  _atom_site_type_symbol
  _atom_site_label
  _atom_site_symmetry_multiplicity
  _atom_site_fract_x
  _atom_site_fract_y
  _atom_site_fract_z
  _atom_site_occupancy
  B   B1        1.0  0.25000  0.69200  0.06570  1.0000
  B   B2        1.0  0.75000  0.19200  0.43400  1.0000
  B   B3        1.0  0.25000  0.80800  0.56600  1.0000
  B   B4        1.0  0.75000  0.30800  0.93400  1.0000
  F   F1        1.0  0.75000  0.40200  0.07620  1.0000
  F   F2        1.0  0.03340  0.81200  0.07800  1.0000
  F   F3        1.0  0.46700  0.81200  0.07800  1.0000
  F   F4        1.0  0.25000  0.56000  0.18900  1.0000
  F   F5        1.0  0.75000  0.06040  0.31100  1.0000
  F   F6        1.0  0.53300  0.31200  0.42200  1.0000
  F   F7        1.0  0.96700  0.31200  0.42200  1.0000
  F   F8        1.0  0.25000  0.90200  0.42400  1.0000
  F   F9        1.0  0.75000  0.09840  0.57600  1.0000
  F   F10       1.0  0.03340  0.68800  0.57800  1.0000
  F   F11       1.0  0.46700  0.68800  0.57800  1.0000
  F   F12       1.0  0.25000  0.94000  0.68900  1.0000
  F   F13       1.0  0.75000  0.44000  0.81100  1.0000
  F   F14       1.0  0.53300  0.18800  0.92200  1.0000
  F   F15       1.0  0.96700  0.18800  0.92200  1.0000
  F   F16       1.0  0.25000  0.59800  0.92400  1.0000
  In  In1       1.0  0.25000  0.16600  0.18300  1.0000
  In  In2       1.0  0.75000  0.66600  0.31700  1.0000
  In  In3       1.0  0.25000  0.33400  0.68300  1.0000
  In  In4       1.0  0.75000  0.83400  0.81700  1.0000
