data_image0
_chemical_formula_structural       Ba2Np2O16P4
_chemical_formula_sum              "Ba2 Np2 O16 P4"
_cell_length_a       5.3747
_cell_length_b       6.85461
_cell_length_c       9.40068
_cell_angle_alpha    101.542
_cell_angle_beta     90
_cell_angle_gamma    113.082

_space_group_name_H-M_alt    "P 1"
_space_group_IT_number       1

loop_
  _space_group_symop_operation_xyz
  'x, y, z'

loop_
  _atom_site_type_symbol
  _atom_site_label
  _atom_site_symmetry_multiplicity
  _atom_site_fract_x
  _atom_site_fract_y
  _atom_site_fract_z
  _atom_site_occupancy
  Ba  Ba1       1.0  0.50000  0.50000  0.00000  1.0000
  Ba  Ba2       1.0  0.00000  0.50000  0.50000  1.0000
  Np  Np1       1.0  0.18000  0.00000  0.25000  1.0000
  Np  Np2       1.0  0.82000  0.00000  0.75000  1.0000
  O   O1        1.0  0.15500  0.74800  0.03630  1.0000
  O   O2        1.0  0.78300  0.94000  0.08930  1.0000
  O   O3        1.0  0.59100  0.22300  0.18500  1.0000
  O   O4        1.0  0.10100  0.30900  0.20700  1.0000
  O   O5        1.0  0.79200  0.69100  0.29300  1.0000
  O   O6        1.0  0.36800  0.77700  0.31500  1.0000
  O   O7        1.0  0.84300  0.06010  0.41100  1.0000
  O   O8        1.0  0.40700  0.25200  0.46400  1.0000
  O   O9        1.0  0.59300  0.74800  0.53600  1.0000
  O   O10       1.0  0.15700  0.94000  0.58900  1.0000
  O   O11       1.0  0.63200  0.22300  0.68500  1.0000
  O   O12       1.0  0.20800  0.30900  0.70700  1.0000
  O   O13       1.0  0.89900  0.69100  0.79300  1.0000
  O   O14       1.0  0.40900  0.77700  0.81500  1.0000
  O   O15       1.0  0.21700  0.06010  0.91100  1.0000
  O   O16       1.0  0.84500  0.25200  0.96400  1.0000
  P   P1        1.0  0.82700  0.18100  0.11100  1.0000
  P   P2        1.0  0.64600  0.81900  0.38900  1.0000
  P   P3        1.0  0.35400  0.18100  0.61100  1.0000
  P   P4        1.0  0.17300  0.81900  0.88900  1.0000
