data_image0
_chemical_formula_structural       O16P4Pb2Ti2
_chemical_formula_sum              "O16 P4 Pb2 Ti2"
_cell_length_a       5.18409
_cell_length_b       8.15806
_cell_length_c       8.64296
_cell_angle_alpha    115.052
_cell_angle_beta     107.452
_cell_angle_gamma    90

_space_group_name_H-M_alt    "P 1"
_space_group_IT_number       1

loop_
  _space_group_symop_operation_xyz
  'x, y, z'

loop_
  _atom_site_type_symbol
  _atom_site_label
  _atom_site_symmetry_multiplicity
  _atom_site_fract_x
  _atom_site_fract_y
  _atom_site_fract_z
  _atom_site_occupancy
  O   O1        1.0  0.76100  0.10600  0.09420  1.0000
  O   O2        1.0  0.33300  0.60600  0.09420  1.0000
  O   O3        1.0  0.17000  0.35300  0.28900  1.0000
  O   O4        1.0  0.11900  0.85300  0.28900  1.0000
  O   O5        1.0  0.71100  0.40400  0.33100  1.0000
  O   O6        1.0  0.62100  0.90400  0.33100  1.0000
  O   O7        1.0  0.98700  0.19300  0.43300  1.0000
  O   O8        1.0  0.44600  0.69300  0.43300  1.0000
  O   O9        1.0  0.55400  0.30700  0.56700  1.0000
  O   O10       1.0  0.01290  0.80700  0.56700  1.0000
  O   O11       1.0  0.37900  0.09600  0.66900  1.0000
  O   O12       1.0  0.28900  0.59600  0.66900  1.0000
  O   O13       1.0  0.88100  0.14700  0.71100  1.0000
  O   O14       1.0  0.83000  0.64700  0.71100  1.0000
  O   O15       1.0  0.66700  0.39400  0.90600  1.0000
  O   O16       1.0  0.23900  0.89400  0.90600  1.0000
  P   P1        1.0  0.90500  0.25800  0.28300  1.0000
  P   P2        1.0  0.37800  0.75800  0.28300  1.0000
  P   P3        1.0  0.62200  0.24200  0.71700  1.0000
  P   P4        1.0  0.09480  0.74200  0.71700  1.0000
  Pb  Pb1       1.0  0.32400  0.25000  0.00000  1.0000
  Pb  Pb2       1.0  0.67600  0.75000  0.00000  1.0000
  Ti  Ti1       1.0  0.00000  0.00000  0.50000  1.0000
  Ti  Ti2       1.0  0.50000  0.50000  0.50000  1.0000
