data_image0
_chemical_formula_structural       O18S4U2
_chemical_formula_sum              "O18 S4 U2"
_cell_length_a       6.36463
_cell_length_b       6.78104
_cell_length_c       7.90517
_cell_angle_alpha    87.639
_cell_angle_beta     77.6734
_cell_angle_gamma    75.9057

_space_group_name_H-M_alt    "P 1"
_space_group_IT_number       1

loop_
  _space_group_symop_operation_xyz
  'x, y, z'

loop_
  _atom_site_type_symbol
  _atom_site_label
  _atom_site_symmetry_multiplicity
  _atom_site_fract_x
  _atom_site_fract_y
  _atom_site_fract_z
  _atom_site_occupancy
  O   O1        1.0  0.00586  0.29900  0.02390  1.0000
  O   O2        1.0  0.45300  0.19900  0.10400  1.0000
  O   O3        1.0  0.14900  0.90600  0.13400  1.0000
  O   O4        1.0  0.60200  0.57900  0.23500  1.0000
  O   O5        1.0  0.11000  0.57400  0.24100  1.0000
  O   O6        1.0  0.78800  0.86400  0.25700  1.0000
  O   O7        1.0  0.40200  0.90700  0.38100  1.0000
  O   O8        1.0  0.95900  0.21300  0.40700  1.0000
  O   O9        1.0  0.33900  0.33300  0.48500  1.0000
  O   O10       1.0  0.66100  0.66700  0.51500  1.0000
  O   O11       1.0  0.04110  0.78700  0.59300  1.0000
  O   O12       1.0  0.59800  0.09280  0.61900  1.0000
  O   O13       1.0  0.21200  0.13600  0.74300  1.0000
  O   O14       1.0  0.89000  0.42600  0.75900  1.0000
  O   O15       1.0  0.39800  0.42100  0.76500  1.0000
  O   O16       1.0  0.85100  0.09390  0.86600  1.0000
  O   O17       1.0  0.54700  0.80100  0.89600  1.0000
  O   O18       1.0  0.99400  0.70100  0.97600  1.0000
  S   S1        1.0  0.02550  0.75200  0.14400  1.0000
  S   S2        1.0  0.59600  0.73600  0.35200  1.0000
  S   S3        1.0  0.40400  0.26400  0.64800  1.0000
  S   S4        1.0  0.97500  0.24800  0.85600  1.0000
  U   U1        1.0  0.20600  0.20600  0.25500  1.0000
  U   U2        1.0  0.79400  0.79400  0.74500  1.0000
