data_image0
_chemical_formula_structural       Cr2Fe2O16V4
_chemical_formula_sum              "Cr2 Fe2 O16 V4"
_cell_length_a       6.64944
_cell_length_b       6.64944
_cell_length_c       6.86018
_cell_angle_alpha    103.107
_cell_angle_beta     76.8929
_cell_angle_gamma    95.9173

_space_group_name_H-M_alt    "P 1"
_space_group_IT_number       1

loop_
  _space_group_symop_operation_xyz
  'x, y, z'

loop_
  _atom_site_type_symbol
  _atom_site_label
  _atom_site_symmetry_multiplicity
  _atom_site_fract_x
  _atom_site_fract_y
  _atom_site_fract_z
  _atom_site_occupancy
  Cr  Cr1       1.0  0.20300  0.79700  0.14300  1.0000
  Cr  Cr2       1.0  0.79700  0.20300  0.85700  1.0000
  Fe  Fe1       1.0  0.18500  0.18500  0.50000  1.0000
  Fe  Fe2       1.0  0.81500  0.81500  0.50000  1.0000
  O   O1        1.0  0.20600  0.49800  0.11300  1.0000
  O   O2        1.0  0.50200  0.79400  0.11300  1.0000
  O   O3        1.0  0.79700  0.20300  0.13900  1.0000
  O   O4        1.0  0.19700  0.10700  0.20200  1.0000
  O   O5        1.0  0.89300  0.80300  0.20200  1.0000
  O   O6        1.0  0.14100  0.85900  0.45700  1.0000
  O   O7        1.0  0.47700  0.20400  0.47800  1.0000
  O   O8        1.0  0.79600  0.52300  0.47800  1.0000
  O   O9        1.0  0.20400  0.47700  0.52200  1.0000
  O   O10       1.0  0.52300  0.79600  0.52200  1.0000
  O   O11       1.0  0.85900  0.14100  0.54300  1.0000
  O   O12       1.0  0.10700  0.19700  0.79800  1.0000
  O   O13       1.0  0.80300  0.89300  0.79800  1.0000
  O   O14       1.0  0.20300  0.79700  0.86100  1.0000
  O   O15       1.0  0.49800  0.20600  0.88700  1.0000
  O   O16       1.0  0.79400  0.50200  0.88700  1.0000
  V   V1        1.0  0.24900  0.24900  0.00000  1.0000
  V   V2        1.0  0.75100  0.75100  0.00000  1.0000
  V   V3        1.0  0.72900  0.27100  0.39900  1.0000
  V   V4        1.0  0.27100  0.72900  0.60100  1.0000
