data_image0
_chemical_formula_structural       Er16In4Ir4
_chemical_formula_sum              "Er16 In4 Ir4"
_cell_length_a       9.57014
_cell_length_b       9.57014
_cell_length_c       9.57014
_cell_angle_alpha    120
_cell_angle_beta     90
_cell_angle_gamma    120

_space_group_name_H-M_alt    "P 1"
_space_group_IT_number       1

loop_
  _space_group_symop_operation_xyz
  'x, y, z'

loop_
  _atom_site_type_symbol
  _atom_site_label
  _atom_site_symmetry_multiplicity
  _atom_site_fract_x
  _atom_site_fract_y
  _atom_site_fract_z
  _atom_site_occupancy
  Er  Er1       1.0  0.19100  0.00000  0.19100  1.0000
  Er  Er2       1.0  0.80900  0.00000  0.19100  1.0000
  Er  Er3       1.0  0.19100  0.38300  0.19100  1.0000
  Er  Er4       1.0  0.65000  0.30100  0.34900  1.0000
  Er  Er5       1.0  0.04850  0.69900  0.34900  1.0000
  Er  Er6       1.0  0.65000  0.69900  0.34900  1.0000
  Er  Er7       1.0  0.06040  0.50000  0.56000  1.0000
  Er  Er8       1.0  0.44000  0.50000  0.56000  1.0000
  Er  Er9       1.0  0.06040  0.12100  0.56000  1.0000
  Er  Er10      1.0  0.19100  1.00000  0.80900  1.0000
  Er  Er11      1.0  0.80900  1.00000  0.80900  1.0000
  Er  Er12      1.0  0.80900  0.61700  0.80900  1.0000
  Er  Er13      1.0  0.06040  0.50000  0.94000  1.0000
  Er  Er14      1.0  0.44000  0.50000  0.94000  1.0000
  Er  Er15      1.0  0.44000  0.87900  0.94000  1.0000
  Er  Er16      1.0  0.65000  0.30100  0.95100  1.0000
  In  In1       1.0  0.41700  0.83400  0.25000  1.0000
  In  In2       1.0  0.41700  0.16600  0.58300  1.0000
  In  In3       1.0  0.75000  0.16600  0.58300  1.0000
  In  In4       1.0  0.41700  0.83400  0.58300  1.0000
  Ir  Ir1       1.0  0.42400  0.28300  0.14100  1.0000
  Ir  Ir2       1.0  0.85900  0.28300  0.14100  1.0000
  Ir  Ir3       1.0  0.85900  0.71700  0.14100  1.0000
  Ir  Ir4       1.0  0.85900  0.71700  0.57600  1.0000
