data_image0
_chemical_formula_structural       Al8N4Nb12
_chemical_formula_sum              "Al8 N4 Nb12"
_cell_length_a       7.06703
_cell_length_b       7.06703
_cell_length_c       7.06703
_cell_angle_alpha    90
_cell_angle_beta     90
_cell_angle_gamma    90

_space_group_name_H-M_alt    "P 1"
_space_group_IT_number       1

loop_
  _space_group_symop_operation_xyz
  'x, y, z'

loop_
  _atom_site_type_symbol
  _atom_site_label
  _atom_site_symmetry_multiplicity
  _atom_site_fract_x
  _atom_site_fract_y
  _atom_site_fract_z
  _atom_site_occupancy
  Al  Al1       1.0  0.07120  0.07120  0.07120  1.0000
  Al  Al2       1.0  0.82100  0.32100  0.17900  1.0000
  Al  Al3       1.0  0.17900  0.82100  0.32100  1.0000
  Al  Al4       1.0  0.92900  0.57100  0.42900  1.0000
  Al  Al5       1.0  0.42900  0.92900  0.57100  1.0000
  Al  Al6       1.0  0.67900  0.67900  0.67900  1.0000
  Al  Al7       1.0  0.32100  0.17900  0.82100  1.0000
  Al  Al8       1.0  0.57100  0.42900  0.92900  1.0000
  N   N1        1.0  0.62500  0.87500  0.12500  1.0000
  N   N2        1.0  0.37500  0.37500  0.37500  1.0000
  N   N3        1.0  0.87500  0.12500  0.62500  1.0000
  N   N4        1.0  0.12500  0.62500  0.87500  1.0000
  Nb  Nb1       1.0  0.87500  0.70500  0.04510  1.0000
  Nb  Nb2       1.0  0.20500  0.45500  0.12500  1.0000
  Nb  Nb3       1.0  0.45500  0.12500  0.20500  1.0000
  Nb  Nb4       1.0  0.54500  0.62500  0.29500  1.0000
  Nb  Nb5       1.0  0.79500  0.95500  0.37500  1.0000
  Nb  Nb6       1.0  0.12500  0.20500  0.45500  1.0000
  Nb  Nb7       1.0  0.62500  0.29500  0.54500  1.0000
  Nb  Nb8       1.0  0.29500  0.54500  0.62500  1.0000
  Nb  Nb9       1.0  0.04510  0.87500  0.70500  1.0000
  Nb  Nb10      1.0  0.95500  0.37500  0.79500  1.0000
  Nb  Nb11      1.0  0.70500  0.04510  0.87500  1.0000
  Nb  Nb12      1.0  0.37500  0.79500  0.95500  1.0000
