data_image0
_chemical_formula_structural       Al2Fe2Pr6S14
_chemical_formula_sum              "Al2 Fe2 Pr6 S14"
_cell_length_a       10.1379
_cell_length_b       10.1152
_cell_length_c       6.00938
_cell_angle_alpha    90
_cell_angle_beta     90
_cell_angle_gamma    120.361

_space_group_name_H-M_alt    "P 1"
_space_group_IT_number       1

loop_
  _space_group_symop_operation_xyz
  'x, y, z'

loop_
  _atom_site_type_symbol
  _atom_site_label
  _atom_site_symmetry_multiplicity
  _atom_site_fract_x
  _atom_site_fract_y
  _atom_site_fract_z
  _atom_site_occupancy
  Al  Al1       1.0  0.66700  0.33400  0.16300  1.0000
  Al  Al2       1.0  0.33300  0.66600  0.66300  1.0000
  Fe  Fe1       1.0  0.00000  0.00000  0.02430  1.0000
  Fe  Fe2       1.0  0.00030  0.00019  0.52400  1.0000
  Pr  Pr1       1.0  0.23300  0.85700  0.24300  1.0000
  Pr  Pr2       1.0  0.14000  0.37200  0.24300  1.0000
  Pr  Pr3       1.0  0.62700  0.76900  0.24300  1.0000
  Pr  Pr4       1.0  0.76700  0.14300  0.74300  1.0000
  Pr  Pr5       1.0  0.86000  0.62800  0.74300  1.0000
  Pr  Pr6       1.0  0.37300  0.23100  0.74300  1.0000
  S   S1        1.0  0.58100  0.48300  0.01670  1.0000
  S   S2        1.0  0.51700  0.09870  0.01680  1.0000
  S   S3        1.0  0.90200  0.42100  0.01690  1.0000
  S   S4        1.0  0.33400  0.66600  0.03240  1.0000
  S   S5        1.0  0.91100  0.76800  0.28700  1.0000
  S   S6        1.0  0.23200  0.14200  0.28800  1.0000
  S   S7        1.0  0.85500  0.09070  0.28800  1.0000
  S   S8        1.0  0.41900  0.51700  0.51700  1.0000
  S   S9        1.0  0.48300  0.90100  0.51700  1.0000
  S   S10       1.0  0.09770  0.57900  0.51700  1.0000
  S   S11       1.0  0.66600  0.33400  0.53200  1.0000
  S   S12       1.0  0.08860  0.23200  0.78700  1.0000
  S   S13       1.0  0.76800  0.85800  0.78800  1.0000
  S   S14       1.0  0.14500  0.90900  0.78800  1.0000
