data_image0
_chemical_formula_structural       B3Ba3O15P3
_chemical_formula_sum              "B3 Ba3 O15 P3"
_cell_length_a       7.09304
_cell_length_b       7.09303
_cell_length_c       6.97449
_cell_angle_alpha    90.0001
_cell_angle_beta     90.0001
_cell_angle_gamma    120

_space_group_name_H-M_alt    "P 1"
_space_group_IT_number       1

loop_
  _space_group_symop_operation_xyz
  'x, y, z'

loop_
  _atom_site_type_symbol
  _atom_site_label
  _atom_site_symmetry_multiplicity
  _atom_site_fract_x
  _atom_site_fract_y
  _atom_site_fract_z
  _atom_site_occupancy
  B   B1        1.0  0.09420  0.09420  0.00000  1.0000
  B   B2        1.0  0.90600  0.00000  0.33300  1.0000
  B   B3        1.0  0.00000  0.90600  0.66700  1.0000
  Ba  Ba1       1.0  0.60600  0.60600  0.00000  1.0000
  Ba  Ba2       1.0  0.39400  0.00000  0.33300  1.0000
  Ba  Ba3       1.0  0.00000  0.39400  0.66700  1.0000
  O   O1        1.0  0.85700  0.43000  0.03090  1.0000
  O   O2        1.0  0.14200  0.32500  0.03720  1.0000
  O   O3        1.0  0.00000  0.95800  0.16700  1.0000
  O   O4        1.0  0.85800  0.18300  0.29600  1.0000
  O   O5        1.0  0.14300  0.57400  0.30200  1.0000
  O   O6        1.0  0.57000  0.42600  0.36400  1.0000
  O   O7        1.0  0.67500  0.81700  0.37100  1.0000
  O   O8        1.0  0.04240  0.04240  0.50000  1.0000
  O   O9        1.0  0.81700  0.67500  0.62900  1.0000
  O   O10       1.0  0.42600  0.57000  0.63600  1.0000
  O   O11       1.0  0.57400  0.14300  0.69800  1.0000
  O   O12       1.0  0.18300  0.85800  0.70400  1.0000
  O   O13       1.0  0.95800  0.00000  0.83300  1.0000
  O   O14       1.0  0.32500  0.14200  0.96300  1.0000
  O   O15       1.0  0.43000  0.85700  0.96900  1.0000
  P   P1        1.0  0.00000  0.39200  0.16700  1.0000
  P   P2        1.0  0.60800  0.60800  0.50000  1.0000
  P   P3        1.0  0.39200  0.00000  0.83300  1.0000
