data_image0
_chemical_formula_structural       Ga4I16Tl4
_chemical_formula_sum              "Ga4 I16 Tl4"
_cell_length_a       8.34421
_cell_length_b       8.05444
_cell_length_c       16.3781
_cell_angle_alpha    90
_cell_angle_beta     95.5436
_cell_angle_gamma    90

_space_group_name_H-M_alt    "P 1"
_space_group_IT_number       1

loop_
  _space_group_symop_operation_xyz
  'x, y, z'

loop_
  _atom_site_type_symbol
  _atom_site_label
  _atom_site_symmetry_multiplicity
  _atom_site_fract_x
  _atom_site_fract_y
  _atom_site_fract_z
  _atom_site_occupancy
  Ga  Ga1       1.0  0.24400  0.85800  0.13900  1.0000
  Ga  Ga2       1.0  0.75600  0.35800  0.36100  1.0000
  Ga  Ga3       1.0  0.24400  0.64200  0.63900  1.0000
  Ga  Ga4       1.0  0.75600  0.14200  0.86100  1.0000
  I   I1        1.0  0.42100  0.73800  0.03130  1.0000
  I   I2        1.0  0.13600  0.14600  0.08910  1.0000
  I   I3        1.0  0.01240  0.65200  0.16100  1.0000
  I   I4        1.0  0.58100  0.39100  0.22200  1.0000
  I   I5        1.0  0.41900  0.89100  0.27800  1.0000
  I   I6        1.0  0.98800  0.15200  0.33900  1.0000
  I   I7        1.0  0.86400  0.64600  0.41100  1.0000
  I   I8        1.0  0.57900  0.23800  0.46900  1.0000
  I   I9        1.0  0.42100  0.76200  0.53100  1.0000
  I   I10       1.0  0.13600  0.35400  0.58900  1.0000
  I   I11       1.0  0.01240  0.84800  0.66100  1.0000
  I   I12       1.0  0.58100  0.10900  0.72200  1.0000
  I   I13       1.0  0.41900  0.60900  0.77800  1.0000
  I   I14       1.0  0.98800  0.34800  0.83900  1.0000
  I   I15       1.0  0.86400  0.85400  0.91100  1.0000
  I   I16       1.0  0.57900  0.26200  0.96900  1.0000
  Tl  Tl1       1.0  0.74400  0.00491  0.13800  1.0000
  Tl  Tl2       1.0  0.25600  0.50500  0.36200  1.0000
  Tl  Tl3       1.0  0.74400  0.49500  0.63800  1.0000
  Tl  Tl4       1.0  0.25600  0.99500  0.86200  1.0000
