data_image0
_chemical_formula_structural       Ag4Mn4O16
_chemical_formula_sum              "Ag4 Mn4 O16"
_cell_length_a       5.49348
_cell_length_b       8.14995
_cell_length_c       7.00173
_cell_angle_alpha    90
_cell_angle_beta     92.5955
_cell_angle_gamma    90

_space_group_name_H-M_alt    "P 1"
_space_group_IT_number       1

loop_
  _space_group_symop_operation_xyz
  'x, y, z'

loop_
  _atom_site_type_symbol
  _atom_site_label
  _atom_site_symmetry_multiplicity
  _atom_site_fract_x
  _atom_site_fract_y
  _atom_site_fract_z
  _atom_site_occupancy
  Ag  Ag1       1.0  0.25200  0.03320  0.16600  1.0000
  Ag  Ag2       1.0  0.24800  0.53300  0.33400  1.0000
  Ag  Ag3       1.0  0.75200  0.46700  0.66600  1.0000
  Ag  Ag4       1.0  0.74800  0.96700  0.83400  1.0000
  Mn  Mn1       1.0  0.75600  0.31300  0.16000  1.0000
  Mn  Mn2       1.0  0.74400  0.81300  0.34000  1.0000
  Mn  Mn3       1.0  0.25600  0.18700  0.66000  1.0000
  Mn  Mn4       1.0  0.24400  0.68700  0.84000  1.0000
  O   O1        1.0  0.24700  0.55200  0.00955  1.0000
  O   O2        1.0  0.89200  0.14500  0.09170  1.0000
  O   O3        1.0  0.58800  0.88300  0.15100  1.0000
  O   O4        1.0  0.47800  0.27500  0.21900  1.0000
  O   O5        1.0  0.02190  0.77500  0.28100  1.0000
  O   O6        1.0  0.91200  0.38300  0.34900  1.0000
  O   O7        1.0  0.60800  0.64500  0.40800  1.0000
  O   O8        1.0  0.25300  0.05190  0.49000  1.0000
  O   O9        1.0  0.74700  0.94800  0.51000  1.0000
  O   O10       1.0  0.39200  0.35500  0.59200  1.0000
  O   O11       1.0  0.08820  0.61700  0.65100  1.0000
  O   O12       1.0  0.97800  0.22500  0.71900  1.0000
  O   O13       1.0  0.52200  0.72500  0.78100  1.0000
  O   O14       1.0  0.41200  0.11700  0.84900  1.0000
  O   O15       1.0  0.10800  0.85500  0.90800  1.0000
  O   O16       1.0  0.75300  0.44800  0.99000  1.0000
