data_image0
_chemical_formula_structural       Mg4N12Ta8
_chemical_formula_sum              "Mg4 N12 Ta8"
_cell_length_a       5.2196
_cell_length_b       5.2196
_cell_length_c       10.4386
_cell_angle_alpha    90
_cell_angle_beta     90
_cell_angle_gamma    120

_space_group_name_H-M_alt    "P 1"
_space_group_IT_number       1

loop_
  _space_group_symop_operation_xyz
  'x, y, z'

loop_
  _atom_site_type_symbol
  _atom_site_label
  _atom_site_symmetry_multiplicity
  _atom_site_fract_x
  _atom_site_fract_y
  _atom_site_fract_z
  _atom_site_occupancy
  Mg  Mg1       1.0  0.66700  0.33300  0.00000  1.0000
  Mg  Mg2       1.0  0.33300  0.66700  0.00000  1.0000
  Mg  Mg3       1.0  0.66700  0.33300  0.50000  1.0000
  Mg  Mg4       1.0  0.33300  0.66700  0.50000  1.0000
  N   N1        1.0  0.66900  0.00000  0.12000  1.0000
  N   N2        1.0  1.00000  0.66900  0.12000  1.0000
  N   N3        1.0  0.33100  0.33100  0.12000  1.0000
  N   N4        1.0  0.66900  0.00000  0.38000  1.0000
  N   N5        1.0  0.33100  0.33100  0.38000  1.0000
  N   N6        1.0  1.00000  0.66900  0.38000  1.0000
  N   N7        1.0  0.33100  0.00000  0.62000  1.0000
  N   N8        1.0  0.00000  0.33100  0.62000  1.0000
  N   N9        1.0  0.66900  0.66900  0.62000  1.0000
  N   N10       1.0  0.33100  0.00000  0.88000  1.0000
  N   N11       1.0  0.00000  0.33100  0.88000  1.0000
  N   N12       1.0  0.66900  0.66900  0.88000  1.0000
  Ta  Ta1       1.0  0.00000  0.00000  0.00000  1.0000
  Ta  Ta2       1.0  0.33600  0.00000  0.25000  1.0000
  Ta  Ta3       1.0  0.00000  0.33600  0.25000  1.0000
  Ta  Ta4       1.0  0.66400  0.66400  0.25000  1.0000
  Ta  Ta5       1.0  0.00000  0.00000  0.50000  1.0000
  Ta  Ta6       1.0  0.66400  0.00000  0.75000  1.0000
  Ta  Ta7       1.0  0.33600  0.33600  0.75000  1.0000
  Ta  Ta8       1.0  0.00000  0.66400  0.75000  1.0000
