data_image0
_chemical_formula_structural       CoNa2O14P4Zr
_chemical_formula_sum              "Co1 Na2 O14 P4 Zr1"
_cell_length_a       6.51216
_cell_length_b       7.22279
_cell_length_c       6.5881
_cell_angle_alpha    123.645
_cell_angle_beta     93.8183
_cell_angle_gamma    93.4295

_space_group_name_H-M_alt    "P 1"
_space_group_IT_number       1

loop_
  _space_group_symop_operation_xyz
  'x, y, z'

loop_
  _atom_site_type_symbol
  _atom_site_label
  _atom_site_symmetry_multiplicity
  _atom_site_fract_x
  _atom_site_fract_y
  _atom_site_fract_z
  _atom_site_occupancy
  Co  Co1       1.0  0.69600  0.21300  0.76600  1.0000
  Na  Na1       1.0  0.50000  0.40100  0.35600  1.0000
  Na  Na2       1.0  0.25700  0.83000  0.40200  1.0000
  O   O1        1.0  0.32800  0.01660  0.07930  1.0000
  O   O2        1.0  0.75100  0.50600  0.11900  1.0000
  O   O3        1.0  0.30200  0.47500  0.12500  1.0000
  O   O4        1.0  0.93600  0.86000  0.18500  1.0000
  O   O5        1.0  0.05300  0.33000  0.34800  1.0000
  O   O6        1.0  0.65600  0.89600  0.44900  1.0000
  O   O7        1.0  0.75700  0.36700  0.58900  1.0000
  O   O8        1.0  0.40500  0.73000  0.64700  1.0000
  O   O9        1.0  0.96100  0.71700  0.66900  1.0000
  O   O10       1.0  0.37800  0.20500  0.68100  1.0000
  O   O11       1.0  0.13000  0.50100  0.79900  1.0000
  O   O12       1.0  0.02900  0.16200  0.80400  1.0000
  O   O13       1.0  0.68300  0.04920  0.97100  1.0000
  O   O14       1.0  0.56400  0.72400  0.99700  1.0000
  P   P1        1.0  0.73300  0.74600  0.20500  1.0000
  P   P2        1.0  0.96500  0.47400  0.59200  1.0000
  P   P3        1.0  0.22400  0.33300  0.86000  1.0000
  P   P4        1.0  0.49100  0.87700  0.90900  1.0000
  Zr  Zr1       1.0  0.01130  0.02390  0.01740  1.0000
