data_image0
_chemical_formula_structural       Be8Na6O11
_chemical_formula_sum              "Be8 Na6 O11"
_cell_length_a       5.21856
_cell_length_b       6.36883
_cell_length_c       8.25328
_cell_angle_alpha    102.044
_cell_angle_beta     95.0245
_cell_angle_gamma    105.233

_space_group_name_H-M_alt    "P 1"
_space_group_IT_number       1

loop_
  _space_group_symop_operation_xyz
  'x, y, z'

loop_
  _atom_site_type_symbol
  _atom_site_label
  _atom_site_symmetry_multiplicity
  _atom_site_fract_x
  _atom_site_fract_y
  _atom_site_fract_z
  _atom_site_occupancy
  Be  Be1       1.0  0.17500  0.97600  0.14900  1.0000
  Be  Be2       1.0  0.47700  0.74200  0.25200  1.0000
  Be  Be3       1.0  0.45000  0.43100  0.36300  1.0000
  Be  Be4       1.0  0.47900  0.13900  0.45100  1.0000
  Be  Be5       1.0  0.52100  0.86100  0.54900  1.0000
  Be  Be6       1.0  0.55000  0.56900  0.63700  1.0000
  Be  Be7       1.0  0.52300  0.25800  0.74800  1.0000
  Be  Be8       1.0  0.82500  0.02360  0.85100  1.0000
  Na  Na1       1.0  0.22200  0.38600  0.00219  1.0000
  Na  Na2       1.0  0.80200  0.23100  0.20600  1.0000
  Na  Na3       1.0  0.96800  0.74500  0.43000  1.0000
  Na  Na4       1.0  0.03160  0.25500  0.57000  1.0000
  Na  Na5       1.0  0.19800  0.76900  0.79400  1.0000
  Na  Na6       1.0  0.77800  0.61400  0.99800  1.0000
  O   O1        1.0  0.00000  0.00000  0.00000  1.0000
  O   O2        1.0  0.23800  0.75100  0.13300  1.0000
  O   O3        1.0  0.58400  0.53200  0.22100  1.0000
  O   O4        1.0  0.26300  0.16900  0.31000  1.0000
  O   O5        1.0  0.64300  0.95800  0.39000  1.0000
  O   O6        1.0  0.32600  0.60500  0.48600  1.0000
  O   O7        1.0  0.67400  0.39500  0.51400  1.0000
  O   O8        1.0  0.35700  0.04170  0.61000  1.0000
  O   O9        1.0  0.73700  0.83100  0.69000  1.0000
  O   O10       1.0  0.41600  0.46800  0.77900  1.0000
  O   O11       1.0  0.76200  0.24900  0.86700  1.0000
