data_image0
_chemical_formula_structural       Ag4Fe8S12
_chemical_formula_sum              "Ag4 Fe8 S12"
_cell_length_a       6.2975
_cell_length_b       6.40607
_cell_length_c       12.7579
_cell_angle_alpha    90
_cell_angle_beta     90
_cell_angle_gamma    120.572

_space_group_name_H-M_alt    "P 1"
_space_group_IT_number       1

loop_
  _space_group_symop_operation_xyz
  'x, y, z'

loop_
  _atom_site_type_symbol
  _atom_site_label
  _atom_site_symmetry_multiplicity
  _atom_site_fract_x
  _atom_site_fract_y
  _atom_site_fract_z
  _atom_site_occupancy
  Ag  Ag1       1.0  0.00000  0.65000  0.20800  1.0000
  Ag  Ag2       1.0  0.00000  0.15000  0.29200  1.0000
  Ag  Ag3       1.0  0.00000  0.85000  0.70800  1.0000
  Ag  Ag4       1.0  0.00000  0.35000  0.79200  1.0000
  Fe  Fe1       1.0  0.33600  0.33400  0.05910  1.0000
  Fe  Fe2       1.0  0.66400  0.99800  0.05910  1.0000
  Fe  Fe3       1.0  0.66400  0.49800  0.44100  1.0000
  Fe  Fe4       1.0  0.33600  0.83400  0.44100  1.0000
  Fe  Fe5       1.0  0.66400  0.16600  0.55900  1.0000
  Fe  Fe6       1.0  0.33600  0.50200  0.55900  1.0000
  Fe  Fe7       1.0  0.33600  0.00232  0.94100  1.0000
  Fe  Fe8       1.0  0.66400  0.66600  0.94100  1.0000
  S   S1        1.0  0.35500  0.02320  0.10900  1.0000
  S   S2        1.0  0.64500  0.66800  0.10900  1.0000
  S   S3        1.0  0.00000  0.30300  0.11300  1.0000
  S   S4        1.0  0.00000  0.80300  0.38700  1.0000
  S   S5        1.0  0.64500  0.16800  0.39100  1.0000
  S   S6        1.0  0.35500  0.52300  0.39100  1.0000
  S   S7        1.0  0.64500  0.47700  0.60900  1.0000
  S   S8        1.0  0.35500  0.83200  0.60900  1.0000
  S   S9        1.0  0.00000  0.19700  0.61300  1.0000
  S   S10       1.0  0.00000  0.69700  0.88700  1.0000
  S   S11       1.0  0.35500  0.33200  0.89100  1.0000
  S   S12       1.0  0.64500  0.97700  0.89100  1.0000
