data_image0
_chemical_formula_structural       Br4In4O12Te4
_chemical_formula_sum              "Br4 In4 O12 Te4"
_cell_length_a       8.53367
_cell_length_b       6.91209
_cell_length_c       7.20689
_cell_angle_alpha    90
_cell_angle_beta     103.307
_cell_angle_gamma    90

_space_group_name_H-M_alt    "P 1"
_space_group_IT_number       1

loop_
  _space_group_symop_operation_xyz
  'x, y, z'

loop_
  _atom_site_type_symbol
  _atom_site_label
  _atom_site_symmetry_multiplicity
  _atom_site_fract_x
  _atom_site_fract_y
  _atom_site_fract_z
  _atom_site_occupancy
  Br  Br1       1.0  0.91900  0.79600  0.11600  1.0000
  Br  Br2       1.0  0.08110  0.29600  0.38400  1.0000
  Br  Br3       1.0  0.91900  0.70400  0.61600  1.0000
  Br  Br4       1.0  0.08110  0.20400  0.88400  1.0000
  In  In1       1.0  0.32500  0.25000  0.20200  1.0000
  In  In2       1.0  0.67500  0.75000  0.29800  1.0000
  In  In3       1.0  0.32500  0.25000  0.70200  1.0000
  In  In4       1.0  0.67500  0.75000  0.79800  1.0000
  O   O1        1.0  0.53000  0.78600  0.00818  1.0000
  O   O2        1.0  0.31700  0.55700  0.15500  1.0000
  O   O3        1.0  0.32100  0.94300  0.24500  1.0000
  O   O4        1.0  0.67900  0.44300  0.25500  1.0000
  O   O5        1.0  0.68300  0.05660  0.34500  1.0000
  O   O6        1.0  0.47000  0.28600  0.49200  1.0000
  O   O7        1.0  0.53000  0.71400  0.50800  1.0000
  O   O8        1.0  0.31700  0.94300  0.65500  1.0000
  O   O9        1.0  0.32100  0.55700  0.74500  1.0000
  O   O10       1.0  0.67900  0.05710  0.75500  1.0000
  O   O11       1.0  0.68300  0.44300  0.84500  1.0000
  O   O12       1.0  0.47000  0.21400  0.99200  1.0000
  Te  Te1       1.0  0.70100  0.26600  0.05540  1.0000
  Te  Te2       1.0  0.29900  0.76600  0.44500  1.0000
  Te  Te3       1.0  0.70100  0.23400  0.55500  1.0000
  Te  Te4       1.0  0.29900  0.73400  0.94500  1.0000
