data_image0
_chemical_formula_structural       As4Cu6Hg3S12
_chemical_formula_sum              "As4 Cu6 Hg3 S12"
_cell_length_a       8.58643
_cell_length_b       8.58643
_cell_length_c       8.58643
_cell_angle_alpha    107.48
_cell_angle_beta     107.48
_cell_angle_gamma    107.48

_space_group_name_H-M_alt    "P 1"
_space_group_IT_number       1

loop_
  _space_group_symop_operation_xyz
  'x, y, z'

loop_
  _atom_site_type_symbol
  _atom_site_label
  _atom_site_symmetry_multiplicity
  _atom_site_fract_x
  _atom_site_fract_y
  _atom_site_fract_z
  _atom_site_occupancy
  As  As1       1.0  0.61400  0.83500  0.55200  1.0000
  As  As2       1.0  0.83500  0.55200  0.61400  1.0000
  As  As3       1.0  0.55200  0.61400  0.83500  1.0000
  As  As4       1.0  0.98500  0.98500  0.98500  1.0000
  Cu  Cu1       1.0  0.23700  0.71100  0.07920  1.0000
  Cu  Cu2       1.0  0.45200  0.40000  0.19400  1.0000
  Cu  Cu3       1.0  0.71100  0.07920  0.23700  1.0000
  Cu  Cu4       1.0  0.19400  0.45200  0.40000  1.0000
  Cu  Cu5       1.0  0.40000  0.19400  0.45200  1.0000
  Cu  Cu6       1.0  0.07920  0.23700  0.71100  1.0000
  Hg  Hg1       1.0  0.92500  0.78000  0.30900  1.0000
  Hg  Hg2       1.0  0.30900  0.92500  0.78000  1.0000
  Hg  Hg3       1.0  0.78000  0.30900  0.92500  1.0000
  S   S1        1.0  0.46900  0.82000  0.00240  1.0000
  S   S2        1.0  0.63000  0.50500  0.04980  1.0000
  S   S3        1.0  0.93600  0.21100  0.16100  1.0000
  S   S4        1.0  0.16100  0.93600  0.21100  1.0000
  S   S5        1.0  0.36100  0.61800  0.29500  1.0000
  S   S6        1.0  0.61800  0.29500  0.36100  1.0000
  S   S7        1.0  0.82000  0.00240  0.46900  1.0000
  S   S8        1.0  0.04980  0.63000  0.50500  1.0000
  S   S9        1.0  0.29500  0.36100  0.61800  1.0000
  S   S10       1.0  0.50500  0.04980  0.63000  1.0000
  S   S11       1.0  0.00240  0.46900  0.82000  1.0000
  S   S12       1.0  0.21100  0.16100  0.93600  1.0000
