data_image0
_chemical_formula_structural       Co12P7U2
_chemical_formula_sum              "Co12 P7 U2"
_cell_length_a       8.95106
_cell_length_b       8.95355
_cell_length_c       3.60156
_cell_angle_alpha    90
_cell_angle_beta     90
_cell_angle_gamma    119.994

_space_group_name_H-M_alt    "P 1"
_space_group_IT_number       1

loop_
  _space_group_symop_operation_xyz
  'x, y, z'

loop_
  _atom_site_type_symbol
  _atom_site_label
  _atom_site_symmetry_multiplicity
  _atom_site_fract_x
  _atom_site_fract_y
  _atom_site_fract_z
  _atom_site_occupancy
  Co  Co1       1.0  0.44100  0.06270  0.00000  1.0000
  Co  Co2       1.0  0.15500  0.27500  0.00000  1.0000
  Co  Co3       1.0  0.93700  0.37800  0.00000  1.0000
  Co  Co4       1.0  0.62200  0.55900  0.00000  1.0000
  Co  Co5       1.0  0.12000  0.84500  0.00000  1.0000
  Co  Co6       1.0  0.72500  0.88000  0.00000  1.0000
  Co  Co7       1.0  0.22000  0.09680  0.50000  1.0000
  Co  Co8       1.0  0.90300  0.12300  0.50000  1.0000
  Co  Co9       1.0  0.38100  0.43700  0.50000  1.0000
  Co  Co10      1.0  0.05560  0.61900  0.50000  1.0000
  Co  Co11      1.0  0.87700  0.78000  0.50000  1.0000
  Co  Co12      1.0  0.56300  0.94400  0.50000  1.0000
  P   P1        1.0  0.00000  0.00000  0.00000  1.0000
  P   P2        1.0  0.71200  0.11300  0.00000  1.0000
  P   P3        1.0  0.40100  0.28800  0.00000  1.0000
  P   P4        1.0  0.88700  0.59900  0.00000  1.0000
  P   P5        1.0  0.10700  0.39800  0.50000  1.0000
  P   P6        1.0  0.60200  0.70900  0.50000  1.0000
  P   P7        1.0  0.29100  0.89300  0.50000  1.0000
  U   U1        1.0  0.33300  0.66700  0.00000  1.0000
  U   U2        1.0  0.66700  0.33300  0.50000  1.0000
