data_image0
_chemical_formula_structural       Li6Mg4Nb2O12
_chemical_formula_sum              "Li6 Mg4 Nb2 O12"
_cell_length_a       5.20918
_cell_length_b       5.20918
_cell_length_c       9.22585
_cell_angle_alpha    100.194
_cell_angle_beta     100.194
_cell_angle_gamma    111.908

_space_group_name_H-M_alt    "P 1"
_space_group_IT_number       1

loop_
  _space_group_symop_operation_xyz
  'x, y, z'

loop_
  _atom_site_type_symbol
  _atom_site_label
  _atom_site_symmetry_multiplicity
  _atom_site_fract_x
  _atom_site_fract_y
  _atom_site_fract_z
  _atom_site_occupancy
  Li  Li1       1.0  0.04260  0.29300  0.08520  1.0000
  Li  Li2       1.0  0.62500  0.37500  0.25000  1.0000
  Li  Li3       1.0  0.70700  0.95700  0.41500  1.0000
  Li  Li4       1.0  0.29300  0.04260  0.58500  1.0000
  Li  Li5       1.0  0.37500  0.62500  0.75000  1.0000
  Li  Li6       1.0  0.95700  0.70700  0.91500  1.0000
  Mg  Mg1       1.0  0.53900  0.78900  0.07820  1.0000
  Mg  Mg2       1.0  0.21100  0.46100  0.42200  1.0000
  Mg  Mg3       1.0  0.78900  0.53900  0.57800  1.0000
  Mg  Mg4       1.0  0.46100  0.21100  0.92200  1.0000
  Nb  Nb1       1.0  0.12500  0.87500  0.25000  1.0000
  Nb  Nb2       1.0  0.87500  0.12500  0.75000  1.0000
  O   O1        1.0  0.30000  0.02750  0.08730  1.0000
  O   O2        1.0  0.78800  0.56000  0.08730  1.0000
  O   O3        1.0  0.89200  0.10800  0.25000  1.0000
  O   O4        1.0  0.35800  0.64200  0.25000  1.0000
  O   O5        1.0  0.44000  0.21200  0.41300  1.0000
  O   O6        1.0  0.97200  0.70000  0.41300  1.0000
  O   O7        1.0  0.02750  0.30000  0.58700  1.0000
  O   O8        1.0  0.56000  0.78800  0.58700  1.0000
  O   O9        1.0  0.64200  0.35800  0.75000  1.0000
  O   O10       1.0  0.10800  0.89200  0.75000  1.0000
  O   O11       1.0  0.21200  0.44000  0.91300  1.0000
  O   O12       1.0  0.70000  0.97200  0.91300  1.0000
