data_image0
_chemical_formula_structural       Li4Mn2O6
_chemical_formula_sum              "Li4 Mn2 O6"
_cell_length_a       4.92777
_cell_length_b       4.92777
_cell_length_c       4.99392
_cell_angle_alpha    99.6338
_cell_angle_beta     99.6338
_cell_angle_gamma    119.928

_space_group_name_H-M_alt    "P 1"
_space_group_IT_number       1

loop_
  _space_group_symop_operation_xyz
  'x, y, z'

loop_
  _atom_site_type_symbol
  _atom_site_label
  _atom_site_symmetry_multiplicity
  _atom_site_fract_x
  _atom_site_fract_y
  _atom_site_fract_z
  _atom_site_occupancy
  Li  Li1       1.0  0.50000  0.50000  0.00000  1.0000
  Li  Li2       1.0  0.00000  0.00000  0.50000  1.0000
  Li  Li3       1.0  0.66000  0.34000  0.50000  1.0000
  Li  Li4       1.0  0.34000  0.66000  0.50000  1.0000
  Mn  Mn1       1.0  0.83300  0.16700  1.00000  1.0000
  Mn  Mn2       1.0  0.16700  0.83300  0.00000  1.0000
  O   O1        1.0  0.93100  0.57700  0.22800  1.0000
  O   O2        1.0  0.57700  0.93100  0.22800  1.0000
  O   O3        1.0  0.22300  0.22300  0.23100  1.0000
  O   O4        1.0  0.77700  0.77700  0.76900  1.0000
  O   O5        1.0  0.42300  0.06890  0.77200  1.0000
  O   O6        1.0  0.06890  0.42300  0.77200  1.0000
