data_image0
_chemical_formula_structural       Cl8F10N2Te2W2
_chemical_formula_sum              "Cl8 F10 N2 Te2 W2"
_cell_length_a       5.68591
_cell_length_b       5.70269
_cell_length_c       13.3383
_cell_angle_alpha    86.999
_cell_angle_beta     89.1049
_cell_angle_gamma    82.3603

_space_group_name_H-M_alt    "P 1"
_space_group_IT_number       1

loop_
  _space_group_symop_operation_xyz
  'x, y, z'

loop_
  _atom_site_type_symbol
  _atom_site_label
  _atom_site_symmetry_multiplicity
  _atom_site_fract_x
  _atom_site_fract_y
  _atom_site_fract_z
  _atom_site_occupancy
  Cl  Cl1       1.0  0.85600  0.77600  0.02350  1.0000
  Cl  Cl2       1.0  0.64100  0.29000  0.09850  1.0000
  Cl  Cl3       1.0  0.33100  0.80700  0.14400  1.0000
  Cl  Cl4       1.0  0.12400  0.32200  0.22300  1.0000
  Cl  Cl5       1.0  0.87600  0.67800  0.77700  1.0000
  Cl  Cl6       1.0  0.66900  0.19300  0.85600  1.0000
  Cl  Cl7       1.0  0.35900  0.71000  0.90100  1.0000
  Cl  Cl8       1.0  0.14400  0.22400  0.97600  1.0000
  F   F1        1.0  0.62900  0.51800  0.33000  1.0000
  F   F2        1.0  0.42600  0.95300  0.36000  1.0000
  F   F3        1.0  0.02900  0.61900  0.40800  1.0000
  F   F4        1.0  0.82200  0.05720  0.43600  1.0000
  F   F5        1.0  0.37200  0.31000  0.49100  1.0000
  F   F6        1.0  0.62800  0.69000  0.50900  1.0000
  F   F7        1.0  0.17800  0.94300  0.56400  1.0000
  F   F8        1.0  0.97100  0.38100  0.59200  1.0000
  F   F9        1.0  0.57400  0.04680  0.64000  1.0000
  F   F10       1.0  0.37100  0.48200  0.67000  1.0000
  N   N1        1.0  0.84100  0.89200  0.25000  1.0000
  N   N2        1.0  0.15900  0.10800  0.75000  1.0000
  Te  Te1       1.0  0.72900  0.78700  0.38300  1.0000
  Te  Te2       1.0  0.27100  0.21300  0.61700  1.0000
  W   W1        1.0  0.96800  0.03430  0.14700  1.0000
  W   W2        1.0  0.03230  0.96600  0.85300  1.0000
