data_image0
_chemical_formula_structural       Cl17PW6
_chemical_formula_sum              "Cl17 P1 W6"
_cell_length_a       6.80502
_cell_length_b       10.1098
_cell_length_c       10.1098
_cell_angle_alpha    105.161
_cell_angle_beta     109.667
_cell_angle_gamma    109.667

_space_group_name_H-M_alt    "P 1"
_space_group_IT_number       1

loop_
  _space_group_symop_operation_xyz
  'x, y, z'

loop_
  _atom_site_type_symbol
  _atom_site_label
  _atom_site_symmetry_multiplicity
  _atom_site_fract_x
  _atom_site_fract_y
  _atom_site_fract_z
  _atom_site_occupancy
  Cl  Cl1       1.0  0.31200  0.93000  0.23600  1.0000
  Cl  Cl2       1.0  0.85400  0.93000  0.23600  1.0000
  Cl  Cl3       1.0  0.23800  0.23800  0.23800  1.0000
  Cl  Cl4       1.0  0.15300  0.55900  0.26300  1.0000
  Cl  Cl5       1.0  0.67000  0.55900  0.26300  1.0000
  Cl  Cl6       1.0  0.73400  0.94600  0.52200  1.0000
  Cl  Cl7       1.0  0.54000  0.54000  0.54000  1.0000
  Cl  Cl8       1.0  0.15300  0.26300  0.55900  1.0000
  Cl  Cl9       1.0  0.67000  0.26300  0.55900  1.0000
  Cl  Cl10      1.0  0.07420  0.57400  0.57400  1.0000
  Cl  Cl11      1.0  0.30700  0.98200  0.63200  1.0000
  Cl  Cl12      1.0  0.11400  0.86000  0.86000  1.0000
  Cl  Cl13      1.0  0.60700  0.86000  0.86000  1.0000
  Cl  Cl14      1.0  0.31200  0.23600  0.93000  1.0000
  Cl  Cl15      1.0  0.85400  0.23600  0.93000  1.0000
  Cl  Cl16      1.0  0.73400  0.52200  0.94600  1.0000
  Cl  Cl17      1.0  0.30700  0.63200  0.98200  1.0000
  P   P1        1.0  0.68300  0.18300  0.18300  1.0000
  W   W1        1.0  0.48200  0.90200  0.06280  1.0000
  W   W2        1.0  0.73900  0.38200  0.09590  1.0000
  W   W3        1.0  0.08500  0.38200  0.38200  1.0000
  W   W4        1.0  0.67800  0.38200  0.38200  1.0000
  W   W5        1.0  0.73900  0.09590  0.38200  1.0000
  W   W6        1.0  0.48200  0.06280  0.90200  1.0000
