data_image0
_chemical_formula_structural       Ce2Cu18In4
_chemical_formula_sum              "Ce2 Cu18 In4"
_cell_length_a       8.51113
_cell_length_b       8.51113
_cell_length_c       5.00294
_cell_angle_alpha    90
_cell_angle_beta     90
_cell_angle_gamma    90

_space_group_name_H-M_alt    "P 1"
_space_group_IT_number       1

loop_
  _space_group_symop_operation_xyz
  'x, y, z'

loop_
  _atom_site_type_symbol
  _atom_site_label
  _atom_site_symmetry_multiplicity
  _atom_site_fract_x
  _atom_site_fract_y
  _atom_site_fract_z
  _atom_site_occupancy
  Ce  Ce1       1.0  0.00000  0.00000  0.00000  1.0000
  Ce  Ce2       1.0  0.50000  0.50000  0.00000  1.0000
  Cu  Cu1       1.0  0.67600  0.17600  0.24800  1.0000
  Cu  Cu2       1.0  0.17600  0.32400  0.24800  1.0000
  Cu  Cu3       1.0  0.82400  0.67600  0.24800  1.0000
  Cu  Cu4       1.0  0.32400  0.82400  0.24800  1.0000
  Cu  Cu5       1.0  0.50000  0.00000  0.50000  1.0000
  Cu  Cu6       1.0  0.20700  0.06590  0.50000  1.0000
  Cu  Cu7       1.0  0.93400  0.20700  0.50000  1.0000
  Cu  Cu8       1.0  0.43400  0.29300  0.50000  1.0000
  Cu  Cu9       1.0  0.70700  0.43400  0.50000  1.0000
  Cu  Cu10      1.0  0.00000  0.50000  0.50000  1.0000
  Cu  Cu11      1.0  0.29300  0.56600  0.50000  1.0000
  Cu  Cu12      1.0  0.56600  0.70700  0.50000  1.0000
  Cu  Cu13      1.0  0.06590  0.79300  0.50000  1.0000
  Cu  Cu14      1.0  0.79300  0.93400  0.50000  1.0000
  Cu  Cu15      1.0  0.67600  0.17600  0.75200  1.0000
  Cu  Cu16      1.0  0.17600  0.32400  0.75200  1.0000
  Cu  Cu17      1.0  0.82400  0.67600  0.75200  1.0000
  Cu  Cu18      1.0  0.32400  0.82400  0.75200  1.0000
  In  In1       1.0  0.37600  0.12400  0.00000  1.0000
  In  In2       1.0  0.87600  0.37600  0.00000  1.0000
  In  In3       1.0  0.12400  0.62400  0.00000  1.0000
  In  In4       1.0  0.62400  0.87600  0.00000  1.0000
