data_image0
_chemical_formula_structural       Eu3Li6O12Si3
_chemical_formula_sum              "Eu3 Li6 O12 Si3"
_cell_length_a       4.92861
_cell_length_b       4.92862
_cell_length_c       12.202
_cell_angle_alpha    89.9984
_cell_angle_beta     90.0017
_cell_angle_gamma    120

_space_group_name_H-M_alt    "P 1"
_space_group_IT_number       1

loop_
  _space_group_symop_operation_xyz
  'x, y, z'

loop_
  _atom_site_type_symbol
  _atom_site_label
  _atom_site_symmetry_multiplicity
  _atom_site_fract_x
  _atom_site_fract_y
  _atom_site_fract_z
  _atom_site_occupancy
  Eu  Eu1       1.0  0.00000  0.42400  0.16700  1.0000
  Eu  Eu2       1.0  0.57600  0.57600  0.50000  1.0000
  Eu  Eu3       1.0  0.42400  0.00000  0.83300  1.0000
  Li  Li1       1.0  0.41000  0.07650  0.07840  1.0000
  Li  Li2       1.0  0.58900  0.66600  0.25500  1.0000
  Li  Li3       1.0  0.92300  0.33400  0.41200  1.0000
  Li  Li4       1.0  0.33400  0.92300  0.58800  1.0000
  Li  Li5       1.0  0.66600  0.58900  0.74500  1.0000
  Li  Li6       1.0  0.07650  0.41000  0.92200  1.0000
  O   O1        1.0  0.76300  0.07560  0.00364  1.0000
  O   O2        1.0  0.54500  0.51100  0.10900  1.0000
  O   O3        1.0  0.45500  0.96700  0.22500  1.0000
  O   O4        1.0  0.23700  0.31300  0.33000  1.0000
  O   O5        1.0  0.92400  0.68700  0.33700  1.0000
  O   O6        1.0  0.48900  0.03350  0.44200  1.0000
  O   O7        1.0  0.03350  0.48900  0.55800  1.0000
  O   O8        1.0  0.68700  0.92400  0.66300  1.0000
  O   O9        1.0  0.31300  0.23700  0.67000  1.0000
  O   O10       1.0  0.96700  0.45500  0.77500  1.0000
  O   O11       1.0  0.51100  0.54500  0.89100  1.0000
  O   O12       1.0  0.07560  0.76300  0.99600  1.0000
  Si  Si1       1.0  0.72300  0.72300  0.00000  1.0000
  Si  Si2       1.0  0.27700  0.00000  0.33300  1.0000
  Si  Si3       1.0  0.00000  0.27700  0.66700  1.0000
