data_image0
_chemical_formula_structural       F12O8Re4
_chemical_formula_sum              "F12 O8 Re4"
_cell_length_a       5.1
_cell_length_b       4.64201
_cell_length_c       11.7918
_cell_angle_alpha    90.0077
_cell_angle_beta     97.7659
_cell_angle_gamma    90.0146

_space_group_name_H-M_alt    "P 1"
_space_group_IT_number       1

loop_
  _space_group_symop_operation_xyz
  'x, y, z'

loop_
  _atom_site_type_symbol
  _atom_site_label
  _atom_site_symmetry_multiplicity
  _atom_site_fract_x
  _atom_site_fract_y
  _atom_site_fract_z
  _atom_site_occupancy
  F   F1        1.0  0.64700  0.58400  0.10600  1.0000
  F   F2        1.0  0.55100  0.05190  0.20700  1.0000
  F   F3        1.0  0.06960  0.89000  0.20900  1.0000
  F   F4        1.0  0.93000  0.39000  0.29100  1.0000
  F   F5        1.0  0.44900  0.55200  0.29300  1.0000
  F   F6        1.0  0.35300  0.08390  0.39500  1.0000
  F   F7        1.0  0.64800  0.91600  0.60600  1.0000
  F   F8        1.0  0.55100  0.44800  0.70700  1.0000
  F   F9        1.0  0.06960  0.61000  0.70900  1.0000
  F   F10       1.0  0.93000  0.11000  0.79000  1.0000
  F   F11       1.0  0.44900  0.94800  0.79300  1.0000
  F   F12       1.0  0.35300  0.41600  0.89500  1.0000
  O   O1        1.0  0.25100  0.91100  0.00566  1.0000
  O   O2        1.0  0.14500  0.40600  0.09560  1.0000
  O   O3        1.0  0.85500  0.90600  0.40400  1.0000
  O   O4        1.0  0.74900  0.41100  0.49400  1.0000
  O   O5        1.0  0.25100  0.58900  0.50600  1.0000
  O   O6        1.0  0.14600  0.09430  0.59600  1.0000
  O   O7        1.0  0.85500  0.59400  0.90400  1.0000
  O   O8        1.0  0.74900  0.08900  0.99400  1.0000
  Re  Re1       1.0  0.31300  0.71600  0.12900  1.0000
  Re  Re2       1.0  0.68600  0.21700  0.37100  1.0000
  Re  Re3       1.0  0.31400  0.78300  0.62900  1.0000
  Re  Re4       1.0  0.68600  0.28300  0.87100  1.0000
