data_image0
_chemical_formula_structural       F10I2N4O8
_chemical_formula_sum              "F10 I2 N4 O8"
_cell_length_a       4.52473
_cell_length_b       7.33849
_cell_length_c       8.87013
_cell_angle_alpha    69.0943
_cell_angle_beta     81.6292
_cell_angle_gamma    88.3245

_space_group_name_H-M_alt    "P 1"
_space_group_IT_number       1

loop_
  _space_group_symop_operation_xyz
  'x, y, z'

loop_
  _atom_site_type_symbol
  _atom_site_label
  _atom_site_symmetry_multiplicity
  _atom_site_fract_x
  _atom_site_fract_y
  _atom_site_fract_z
  _atom_site_occupancy
  F   F1        1.0  0.89700  0.26900  0.00425  1.0000
  F   F2        1.0  0.35200  0.36100  0.08110  1.0000
  F   F3        1.0  0.21900  1.00000  0.10300  1.0000
  F   F4        1.0  0.83100  0.40100  0.22300  1.0000
  F   F5        1.0  0.65600  0.03090  0.27200  1.0000
  F   F6        1.0  0.34400  0.96900  0.72800  1.0000
  F   F7        1.0  0.16900  0.59900  0.77700  1.0000
  F   F8        1.0  0.78100  0.00025  0.89700  1.0000
  F   F9        1.0  0.64800  0.63900  0.91900  1.0000
  F   F10       1.0  0.10300  0.73100  0.99600  1.0000
  I   I1        1.0  0.04080  0.17900  0.20300  1.0000
  I   I2        1.0  0.95900  0.82100  0.79700  1.0000
  N   N1        1.0  0.44200  0.63200  0.32400  1.0000
  N   N2        1.0  0.90100  0.72600  0.47800  1.0000
  N   N3        1.0  0.09940  0.27400  0.52200  1.0000
  N   N4        1.0  0.55800  0.36800  0.67600  1.0000
  O   O1        1.0  0.48200  0.69300  0.18800  1.0000
  O   O2        1.0  0.89400  0.64700  0.37200  1.0000
  O   O3        1.0  0.30800  0.30500  0.40500  1.0000
  O   O4        1.0  0.12000  0.83700  0.46400  1.0000
  O   O5        1.0  0.88000  0.16300  0.53600  1.0000
  O   O6        1.0  0.69200  0.69500  0.59500  1.0000
  O   O7        1.0  0.10600  0.35300  0.62800  1.0000
  O   O8        1.0  0.51800  0.30700  0.81200  1.0000
