data_image0
_chemical_formula_structural       Mn6O12Rb6
_chemical_formula_sum              "Mn6 O12 Rb6"
_cell_length_a       6.51923
_cell_length_b       7.64807
_cell_length_c       8.58836
_cell_angle_alpha    77.192
_cell_angle_beta     88.6274
_cell_angle_gamma    79.6111

_space_group_name_H-M_alt    "P 1"
_space_group_IT_number       1

loop_
  _space_group_symop_operation_xyz
  'x, y, z'

loop_
  _atom_site_type_symbol
  _atom_site_label
  _atom_site_symmetry_multiplicity
  _atom_site_fract_x
  _atom_site_fract_y
  _atom_site_fract_z
  _atom_site_occupancy
  Mn  Mn1       1.0  0.59700  0.32000  0.11800  1.0000
  Mn  Mn2       1.0  0.41600  0.68200  0.21500  1.0000
  Mn  Mn3       1.0  0.60000  0.32400  0.45000  1.0000
  Mn  Mn4       1.0  0.40000  0.67600  0.55000  1.0000
  Mn  Mn5       1.0  0.58400  0.31800  0.78500  1.0000
  Mn  Mn6       1.0  0.40300  0.68000  0.88200  1.0000
  O   O1        1.0  0.22600  0.77500  0.03650  1.0000
  O   O2        1.0  0.61400  0.62200  0.05410  1.0000
  O   O3        1.0  0.39400  0.36900  0.27900  1.0000
  O   O4        1.0  0.79100  0.23200  0.29900  1.0000
  O   O5        1.0  0.22600  0.78300  0.36300  1.0000
  O   O6        1.0  0.61300  0.62000  0.39300  1.0000
  O   O7        1.0  0.38700  0.38000  0.60700  1.0000
  O   O8        1.0  0.77400  0.21700  0.63700  1.0000
  O   O9        1.0  0.20900  0.76800  0.70100  1.0000
  O   O10       1.0  0.60600  0.63100  0.72100  1.0000
  O   O11       1.0  0.38600  0.37800  0.94600  1.0000
  O   O12       1.0  0.77400  0.22500  0.96400  1.0000
  Rb  Rb1       1.0  0.15300  0.11300  0.11900  1.0000
  Rb  Rb2       1.0  0.98100  0.54400  0.23400  1.0000
  Rb  Rb3       1.0  0.82700  0.87100  0.47100  1.0000
  Rb  Rb4       1.0  0.17300  0.12900  0.52900  1.0000
  Rb  Rb5       1.0  0.01860  0.45600  0.76600  1.0000
  Rb  Rb6       1.0  0.84700  0.88700  0.88100  1.0000
