data_image0
_chemical_formula_structural       Al2Co2Pr6S14
_chemical_formula_sum              "Al2 Co2 Pr6 S14"
_cell_length_a       9.92277
_cell_length_b       9.92213
_cell_length_c       6.16871
_cell_angle_alpha    90
_cell_angle_beta     90
_cell_angle_gamma    119.999

_space_group_name_H-M_alt    "P 1"
_space_group_IT_number       1

loop_
  _space_group_symop_operation_xyz
  'x, y, z'

loop_
  _atom_site_type_symbol
  _atom_site_label
  _atom_site_symmetry_multiplicity
  _atom_site_fract_x
  _atom_site_fract_y
  _atom_site_fract_z
  _atom_site_occupancy
  Al  Al1       1.0  0.66700  0.33300  0.15100  1.0000
  Al  Al2       1.0  0.33300  0.66700  0.65100  1.0000
  Co  Co1       1.0  0.00000  0.00000  0.05710  1.0000
  Co  Co2       1.0  0.00000  0.00000  0.55700  1.0000
  Pr  Pr1       1.0  0.15100  0.37300  0.22800  1.0000
  Pr  Pr2       1.0  0.22200  0.84900  0.22800  1.0000
  Pr  Pr3       1.0  0.62700  0.77800  0.22800  1.0000
  Pr  Pr4       1.0  0.77800  0.15100  0.72800  1.0000
  Pr  Pr5       1.0  0.84900  0.62700  0.72800  1.0000
  Pr  Pr6       1.0  0.37300  0.22200  0.72800  1.0000
  S   S1        1.0  0.90600  0.42700  0.00841  1.0000
  S   S2        1.0  0.57300  0.47900  0.00842  1.0000
  S   S3        1.0  0.52100  0.09370  0.00842  1.0000
  S   S4        1.0  0.33300  0.66700  0.01240  1.0000
  S   S5        1.0  0.21600  0.12700  0.31100  1.0000
  S   S6        1.0  0.87300  0.08870  0.31100  1.0000
  S   S7        1.0  0.91100  0.78400  0.31100  1.0000
  S   S8        1.0  0.09360  0.57300  0.50800  1.0000
  S   S9        1.0  0.42700  0.52100  0.50800  1.0000
  S   S10       1.0  0.47900  0.90600  0.50800  1.0000
  S   S11       1.0  0.66700  0.33300  0.51200  1.0000
  S   S12       1.0  0.78400  0.87300  0.81100  1.0000
  S   S13       1.0  0.12700  0.91100  0.81100  1.0000
  S   S14       1.0  0.08870  0.21600  0.81100  1.0000
