data_image0
_chemical_formula_structural       O16V4Zn6
_chemical_formula_sum              "O16 V4 Zn6"
_cell_length_a       6.06563
_cell_length_b       6.51994
_cell_length_c       8.28098
_cell_angle_alpha    90
_cell_angle_beta     90
_cell_angle_gamma    62.2794

_space_group_name_H-M_alt    "P 1"
_space_group_IT_number       1

loop_
  _space_group_symop_operation_xyz
  'x, y, z'

loop_
  _atom_site_type_symbol
  _atom_site_label
  _atom_site_symmetry_multiplicity
  _atom_site_fract_x
  _atom_site_fract_y
  _atom_site_fract_z
  _atom_site_occupancy
  O   O1        1.0  0.38700  0.76100  0.00070  1.0000
  O   O2        1.0  0.85200  0.76100  0.00070  1.0000
  O   O3        1.0  0.74900  0.50100  0.23100  1.0000
  O   O4        1.0  0.99900  0.00246  0.24600  1.0000
  O   O5        1.0  0.49900  0.00246  0.25400  1.0000
  O   O6        1.0  0.24900  0.50100  0.26900  1.0000
  O   O7        1.0  0.35200  0.76100  0.49900  1.0000
  O   O8        1.0  0.88700  0.76100  0.49900  1.0000
  O   O9        1.0  0.11300  0.23900  0.50100  1.0000
  O   O10       1.0  0.64800  0.23900  0.50100  1.0000
  O   O11       1.0  0.75100  0.49900  0.73100  1.0000
  O   O12       1.0  0.50100  0.99800  0.74600  1.0000
  O   O13       1.0  0.00123  0.99800  0.75400  1.0000
  O   O14       1.0  0.25100  0.49900  0.76900  1.0000
  O   O15       1.0  0.14800  0.23900  0.99900  1.0000
  O   O16       1.0  0.61300  0.23900  0.99900  1.0000
  V   V1        1.0  0.62200  0.75600  0.12000  1.0000
  V   V2        1.0  0.12200  0.75600  0.38000  1.0000
  V   V3        1.0  0.87800  0.24400  0.62000  1.0000
  V   V4        1.0  0.37800  0.24400  0.88000  1.0000
  Zn  Zn1       1.0  0.00000  0.00000  0.00000  1.0000
  Zn  Zn2       1.0  0.11400  0.27200  0.25000  1.0000
  Zn  Zn3       1.0  0.61400  0.27200  0.25000  1.0000
  Zn  Zn4       1.0  0.50000  0.00000  0.50000  1.0000
  Zn  Zn5       1.0  0.38600  0.72800  0.75000  1.0000
  Zn  Zn6       1.0  0.88600  0.72800  0.75000  1.0000
