data_image0
_chemical_formula_structural       As12Ca10Sn4
_chemical_formula_sum              "As12 Ca10 Sn4"
_cell_length_a       13.6551
_cell_length_b       11.9186
_cell_length_c       4.17064
_cell_angle_alpha    90
_cell_angle_beta     90
_cell_angle_gamma    90

_space_group_name_H-M_alt    "P 1"
_space_group_IT_number       1

loop_
  _space_group_symop_operation_xyz
  'x, y, z'

loop_
  _atom_site_type_symbol
  _atom_site_label
  _atom_site_symmetry_multiplicity
  _atom_site_fract_x
  _atom_site_fract_y
  _atom_site_fract_z
  _atom_site_occupancy
  As  As1       1.0  0.20300  0.12500  0.00000  1.0000
  As  As2       1.0  0.70300  0.37500  0.00000  1.0000
  As  As3       1.0  0.29700  0.62500  0.00000  1.0000
  As  As4       1.0  0.79700  0.87500  0.00000  1.0000
  As  As5       1.0  0.61100  0.06600  0.50000  1.0000
  As  As6       1.0  0.91800  0.16900  0.50000  1.0000
  As  As7       1.0  0.41800  0.33100  0.50000  1.0000
  As  As8       1.0  0.11100  0.43400  0.50000  1.0000
  As  As9       1.0  0.88900  0.56600  0.50000  1.0000
  As  As10      1.0  0.58200  0.66900  0.50000  1.0000
  As  As11      1.0  0.08210  0.83100  0.50000  1.0000
  As  As12      1.0  0.38900  0.93400  0.50000  1.0000
  Ca  Ca1       1.0  0.00000  0.00000  0.00000  1.0000
  Ca  Ca2       1.0  0.75900  0.12400  0.00000  1.0000
  Ca  Ca3       1.0  0.43500  0.13000  0.00000  1.0000
  Ca  Ca4       1.0  0.93500  0.37000  0.00000  1.0000
  Ca  Ca5       1.0  0.25900  0.37600  0.00000  1.0000
  Ca  Ca6       1.0  0.50000  0.50000  0.00000  1.0000
  Ca  Ca7       1.0  0.74100  0.62400  0.00000  1.0000
  Ca  Ca8       1.0  0.06520  0.63000  0.00000  1.0000
  Ca  Ca9       1.0  0.56500  0.87000  0.00000  1.0000
  Ca  Ca10      1.0  0.24100  0.87600  0.00000  1.0000
  Sn  Sn1       1.0  0.10800  0.21400  0.50000  1.0000
  Sn  Sn2       1.0  0.60800  0.28600  0.50000  1.0000
  Sn  Sn3       1.0  0.39200  0.71400  0.50000  1.0000
  Sn  Sn4       1.0  0.89200  0.78600  0.50000  1.0000
