data_image0
_chemical_formula_structural       Cs3Te22
_chemical_formula_sum              "Cs3 Te22"
_cell_length_a       9.6717
_cell_length_b       9.6717
_cell_length_c       12.4751
_cell_angle_alpha    112.808
_cell_angle_beta     112.808
_cell_angle_gamma    90

_space_group_name_H-M_alt    "P 1"
_space_group_IT_number       1

loop_
  _space_group_symop_operation_xyz
  'x, y, z'

loop_
  _atom_site_type_symbol
  _atom_site_label
  _atom_site_symmetry_multiplicity
  _atom_site_fract_x
  _atom_site_fract_y
  _atom_site_fract_z
  _atom_site_occupancy
  Cs  Cs1       1.0  0.50000  0.50000  0.00000  1.0000
  Cs  Cs2       1.0  0.17800  0.17800  0.35500  1.0000
  Cs  Cs3       1.0  0.82200  0.82200  0.64500  1.0000
  Te  Te1       1.0  0.50000  0.00000  0.00000  1.0000
  Te  Te2       1.0  0.19400  0.10100  0.00000  1.0000
  Te  Te3       1.0  0.89900  0.19400  0.00000  1.0000
  Te  Te4       1.0  0.00000  0.50000  0.00000  1.0000
  Te  Te5       1.0  0.10100  0.80600  0.00000  1.0000
  Te  Te6       1.0  0.80600  0.89900  0.00000  1.0000
  Te  Te7       1.0  0.75700  0.32900  0.23200  1.0000
  Te  Te8       1.0  0.32900  0.47500  0.23200  1.0000
  Te  Te9       1.0  0.90300  0.75700  0.23200  1.0000
  Te  Te10      1.0  0.47500  0.90300  0.23200  1.0000
  Te  Te11      1.0  0.59100  0.39200  0.38200  1.0000
  Te  Te12      1.0  0.99100  0.59100  0.38200  1.0000
  Te  Te13      1.0  0.39200  0.79100  0.38200  1.0000
  Te  Te14      1.0  0.79100  0.99100  0.38200  1.0000
  Te  Te15      1.0  0.20900  0.00930  0.61800  1.0000
  Te  Te16      1.0  0.60800  0.20900  0.61800  1.0000
  Te  Te17      1.0  0.00930  0.40900  0.61800  1.0000
  Te  Te18      1.0  0.40900  0.60800  0.61800  1.0000
  Te  Te19      1.0  0.52500  0.09680  0.76800  1.0000
  Te  Te20      1.0  0.09680  0.24300  0.76800  1.0000
  Te  Te21      1.0  0.67100  0.52500  0.76800  1.0000
  Te  Te22      1.0  0.24300  0.67100  0.76800  1.0000
