data_image0
_chemical_formula_structural       K6Li2Na4O12Te2
_chemical_formula_sum              "K6 Li2 Na4 O12 Te2"
_cell_length_a       6.77485
_cell_length_b       7.5206
_cell_length_c       7.5206
_cell_angle_alpha    103.953
_cell_angle_beta     92.2826
_cell_angle_gamma    92.2826

_space_group_name_H-M_alt    "P 1"
_space_group_IT_number       1

loop_
  _space_group_symop_operation_xyz
  'x, y, z'

loop_
  _atom_site_type_symbol
  _atom_site_label
  _atom_site_symmetry_multiplicity
  _atom_site_fract_x
  _atom_site_fract_y
  _atom_site_fract_z
  _atom_site_occupancy
  K   K1        1.0  0.75400  0.29700  0.21800  1.0000
  K   K2        1.0  0.25400  0.21800  0.29700  1.0000
  K   K3        1.0  0.74000  0.61800  0.59900  1.0000
  K   K4        1.0  0.24000  0.59900  0.61800  1.0000
  K   K5        1.0  0.07400  0.98700  0.89200  1.0000
  K   K6        1.0  0.57400  0.89200  0.98700  1.0000
  Li  Li1       1.0  0.25100  0.97000  0.52600  1.0000
  Li  Li2       1.0  0.75100  0.52600  0.97000  1.0000
  Na  Na1       1.0  0.40500  0.57100  0.14000  1.0000
  Na  Na2       1.0  0.60200  0.92600  0.39000  1.0000
  Na  Na3       1.0  0.90500  0.14000  0.57100  1.0000
  Na  Na4       1.0  0.10200  0.39000  0.92600  1.0000
  O   O1        1.0  0.89900  0.99500  0.23400  1.0000
  O   O2        1.0  0.72400  0.65400  0.23400  1.0000
  O   O3        1.0  0.27600  0.85800  0.25500  1.0000
  O   O4        1.0  0.09770  0.51700  0.25600  1.0000
  O   O5        1.0  0.00315  0.83700  0.51500  1.0000
  O   O6        1.0  0.59800  0.25600  0.51700  1.0000
  O   O7        1.0  0.22400  0.23400  0.65400  1.0000
  O   O8        1.0  0.48600  0.96900  0.67800  1.0000
  O   O9        1.0  0.50300  0.51500  0.83700  1.0000
  O   O10       1.0  0.77600  0.25500  0.85800  1.0000
  O   O11       1.0  0.98600  0.67800  0.96900  1.0000
  O   O12       1.0  0.39900  0.23400  0.99500  1.0000
  Te  Te1       1.0  0.00011  0.75700  0.24300  1.0000
  Te  Te2       1.0  0.50000  0.24300  0.75700  1.0000
