data_image0
_chemical_formula_structural       Nb4O16Zn6
_chemical_formula_sum              "Nb4 O16 Zn6"
_cell_length_a       5.2234
_cell_length_b       5.93674
_cell_length_c       9.97582
_cell_angle_alpha    107.311
_cell_angle_beta     90.1985
_cell_angle_gamma    90

_space_group_name_H-M_alt    "P 1"
_space_group_IT_number       1

loop_
  _space_group_symop_operation_xyz
  'x, y, z'

loop_
  _atom_site_type_symbol
  _atom_site_label
  _atom_site_symmetry_multiplicity
  _atom_site_fract_x
  _atom_site_fract_y
  _atom_site_fract_z
  _atom_site_occupancy
  Nb  Nb1       1.0  0.26000  0.27900  0.22800  1.0000
  Nb  Nb2       1.0  0.76000  0.94900  0.22800  1.0000
  Nb  Nb3       1.0  0.74000  0.72100  0.77200  1.0000
  Nb  Nb4       1.0  0.24000  0.05080  0.77200  1.0000
  O   O1        1.0  0.91600  0.67900  0.11700  1.0000
  O   O2        1.0  0.41600  0.43800  0.11700  1.0000
  O   O3        1.0  0.92200  0.18300  0.13700  1.0000
  O   O4        1.0  0.42200  0.95400  0.13700  1.0000
  O   O5        1.0  0.55400  0.28100  0.36200  1.0000
  O   O6        1.0  0.05420  0.08110  0.36200  1.0000
  O   O7        1.0  0.62700  0.83500  0.38500  1.0000
  O   O8        1.0  0.12700  0.55000  0.38500  1.0000
  O   O9        1.0  0.87300  0.45000  0.61500  1.0000
  O   O10       1.0  0.37300  0.16500  0.61500  1.0000
  O   O11       1.0  0.94600  0.91900  0.63800  1.0000
  O   O12       1.0  0.44600  0.71900  0.63800  1.0000
  O   O13       1.0  0.57800  0.04620  0.86300  1.0000
  O   O14       1.0  0.07850  0.81700  0.86300  1.0000
  O   O15       1.0  0.58400  0.56200  0.88300  1.0000
  O   O16       1.0  0.08440  0.32100  0.88300  1.0000
  Zn  Zn1       1.0  0.75000  0.34700  0.00000  1.0000
  Zn  Zn2       1.0  0.25000  0.65300  0.00000  1.0000
  Zn  Zn3       1.0  0.75800  0.56700  0.44300  1.0000
  Zn  Zn4       1.0  0.25800  0.87600  0.44300  1.0000
  Zn  Zn5       1.0  0.74200  0.12400  0.55700  1.0000
  Zn  Zn6       1.0  0.24200  0.43300  0.55700  1.0000
