data_image0
_chemical_formula_structural       Ba4Cu6O13Y2
_chemical_formula_sum              "Ba4 Cu6 O13 Y2"
_cell_length_a       7.66439
_cell_length_b       3.86867
_cell_length_c       11.703
_cell_angle_alpha    90
_cell_angle_beta     90
_cell_angle_gamma    90

_space_group_name_H-M_alt    "P 1"
_space_group_IT_number       1

loop_
  _space_group_symop_operation_xyz
  'x, y, z'

loop_
  _atom_site_type_symbol
  _atom_site_label
  _atom_site_symmetry_multiplicity
  _atom_site_fract_x
  _atom_site_fract_y
  _atom_site_fract_z
  _atom_site_occupancy
  Ba  Ba1       1.0  0.24400  0.50000  0.18700  1.0000
  Ba  Ba2       1.0  0.75600  0.50000  0.18700  1.0000
  Ba  Ba3       1.0  0.24400  0.50000  0.81300  1.0000
  Ba  Ba4       1.0  0.75600  0.50000  0.81300  1.0000
  Cu  Cu1       1.0  0.00000  0.00000  0.00000  1.0000
  Cu  Cu2       1.0  0.50000  0.00000  0.00000  1.0000
  Cu  Cu3       1.0  0.50000  0.00000  0.35300  1.0000
  Cu  Cu4       1.0  0.00000  0.00000  0.35900  1.0000
  Cu  Cu5       1.0  0.00000  0.00000  0.64100  1.0000
  Cu  Cu6       1.0  0.50000  0.00000  0.64700  1.0000
  O   O1        1.0  0.00000  0.50000  0.00000  1.0000
  O   O2        1.0  0.50000  0.00000  0.15200  1.0000
  O   O3        1.0  0.00000  0.00000  0.15900  1.0000
  O   O4        1.0  0.24800  0.00000  0.37800  1.0000
  O   O5        1.0  0.75200  0.00000  0.37800  1.0000
  O   O6        1.0  0.00000  0.50000  0.37800  1.0000
  O   O7        1.0  0.50000  0.50000  0.37900  1.0000
  O   O8        1.0  0.50000  0.50000  0.62100  1.0000
  O   O9        1.0  0.00000  0.50000  0.62200  1.0000
  O   O10       1.0  0.24800  0.00000  0.62200  1.0000
  O   O11       1.0  0.75200  0.00000  0.62200  1.0000
  O   O12       1.0  0.00000  0.00000  0.84100  1.0000
  O   O13       1.0  0.50000  0.00000  0.84800  1.0000
  Y   Y1        1.0  0.25200  0.50000  0.50000  1.0000
  Y   Y2        1.0  0.74800  0.50000  0.50000  1.0000
