data_image0
_chemical_formula_structural       Al2La6Ni2S14
_chemical_formula_sum              "Al2 La6 Ni2 S14"
_cell_length_a       10.0719
_cell_length_b       10.0721
_cell_length_c       6.14852
_cell_angle_alpha    90
_cell_angle_beta     90
_cell_angle_gamma    119.999

_space_group_name_H-M_alt    "P 1"
_space_group_IT_number       1

loop_
  _space_group_symop_operation_xyz
  'x, y, z'

loop_
  _atom_site_type_symbol
  _atom_site_label
  _atom_site_symmetry_multiplicity
  _atom_site_fract_x
  _atom_site_fract_y
  _atom_site_fract_z
  _atom_site_occupancy
  Al  Al1       1.0  0.66700  0.33300  0.14200  1.0000
  Al  Al2       1.0  0.33300  0.66700  0.64200  1.0000
  La  La1       1.0  0.62700  0.77300  0.21900  1.0000
  La  La2       1.0  0.22700  0.85400  0.21900  1.0000
  La  La3       1.0  0.14600  0.37300  0.21900  1.0000
  La  La4       1.0  0.37300  0.22700  0.71900  1.0000
  La  La5       1.0  0.77300  0.14600  0.71900  1.0000
  La  La6       1.0  0.85400  0.62700  0.71900  1.0000
  Ni  Ni1       1.0  0.00000  0.00000  0.02620  1.0000
  Ni  Ni2       1.0  0.00000  0.00000  0.52600  1.0000
  S   S1        1.0  0.33300  0.66700  0.00514  1.0000
  S   S2        1.0  0.91200  0.77800  0.28500  1.0000
  S   S3        1.0  0.86600  0.08840  0.28500  1.0000
  S   S4        1.0  0.22200  0.13400  0.28500  1.0000
  S   S5        1.0  0.42400  0.52100  0.49900  1.0000
  S   S6        1.0  0.47900  0.90300  0.49900  1.0000
  S   S7        1.0  0.09710  0.57600  0.49900  1.0000
  S   S8        1.0  0.66700  0.33300  0.50500  1.0000
  S   S9        1.0  0.08840  0.22200  0.78500  1.0000
  S   S10       1.0  0.13400  0.91200  0.78500  1.0000
  S   S11       1.0  0.77800  0.86600  0.78500  1.0000
  S   S12       1.0  0.57600  0.47900  0.99900  1.0000
  S   S13       1.0  0.52100  0.09700  0.99900  1.0000
  S   S14       1.0  0.90300  0.42400  0.99900  1.0000
