data_image0
_chemical_formula_structural       C12Rh5Y8
_chemical_formula_sum              "C12 Rh5 Y8"
_cell_length_a       3.56493
_cell_length_b       7.39798
_cell_length_c       14.1295
_cell_angle_alpha    93.8548
_cell_angle_beta     97.2455
_cell_angle_gamma    90.0007

_space_group_name_H-M_alt    "P 1"
_space_group_IT_number       1

loop_
  _space_group_symop_operation_xyz
  'x, y, z'

loop_
  _atom_site_type_symbol
  _atom_site_label
  _atom_site_symmetry_multiplicity
  _atom_site_fract_x
  _atom_site_fract_y
  _atom_site_fract_z
  _atom_site_occupancy
  C   C1        1.0  0.02280  0.75500  0.04570  1.0000
  C   C2        1.0  0.04790  0.61300  0.09570  1.0000
  C   C3        1.0  0.15900  0.87600  0.31700  1.0000
  C   C4        1.0  0.16800  0.34600  0.33600  1.0000
  C   C5        1.0  0.20700  0.86800  0.41300  1.0000
  C   C6        1.0  0.21600  0.36500  0.43200  1.0000
  C   C7        1.0  0.78400  0.63500  0.56800  1.0000
  C   C8        1.0  0.79300  0.13200  0.58700  1.0000
  C   C9        1.0  0.83200  0.65400  0.66400  1.0000
  C   C10       1.0  0.84100  0.12400  0.68300  1.0000
  C   C11       1.0  0.95200  0.38700  0.90400  1.0000
  C   C12       1.0  0.97700  0.24500  0.95400  1.0000
  Rh  Rh1       1.0  0.00000  0.00000  0.00000  1.0000
  Rh  Rh2       1.0  0.11000  0.49300  0.22000  1.0000
  Rh  Rh3       1.0  0.11700  0.12800  0.23300  1.0000
  Rh  Rh4       1.0  0.88300  0.87200  0.76700  1.0000
  Rh  Rh5       1.0  0.89000  0.50700  0.78000  1.0000
  Y   Y1        1.0  0.54700  0.29700  0.09310  1.0000
  Y   Y2        1.0  0.58800  0.82800  0.17600  1.0000
  Y   Y3        1.0  0.70000  0.60900  0.40000  1.0000
  Y   Y4        1.0  0.70700  0.11700  0.41300  1.0000
  Y   Y5        1.0  0.29300  0.88300  0.58700  1.0000
  Y   Y6        1.0  0.30000  0.39100  0.60000  1.0000
  Y   Y7        1.0  0.41200  0.17200  0.82400  1.0000
  Y   Y8        1.0  0.45300  0.70300  0.90700  1.0000
