data_image0
_chemical_formula_structural       Cr2Li14N8O
_chemical_formula_sum              "Cr2 Li14 N8 O1"
_cell_length_a       5.75565
_cell_length_b       5.75566
_cell_length_c       8.15695
_cell_angle_alpha    90.0001
_cell_angle_beta     89.9997
_cell_angle_gamma    120

_space_group_name_H-M_alt    "P 1"
_space_group_IT_number       1

loop_
  _space_group_symop_operation_xyz
  'x, y, z'

loop_
  _atom_site_type_symbol
  _atom_site_label
  _atom_site_symmetry_multiplicity
  _atom_site_fract_x
  _atom_site_fract_y
  _atom_site_fract_z
  _atom_site_occupancy
  Cr  Cr1       1.0  0.33300  0.66700  0.23900  1.0000
  Cr  Cr2       1.0  0.66700  0.33300  0.76100  1.0000
  Li  Li1       1.0  0.69600  0.62400  0.09000  1.0000
  Li  Li2       1.0  0.37600  0.07230  0.09000  1.0000
  Li  Li3       1.0  0.92800  0.30400  0.09000  1.0000
  Li  Li4       1.0  0.00000  0.00000  0.25600  1.0000
  Li  Li5       1.0  0.96000  0.64800  0.41400  1.0000
  Li  Li6       1.0  0.35200  0.31200  0.41400  1.0000
  Li  Li7       1.0  0.68800  0.04040  0.41400  1.0000
  Li  Li8       1.0  0.31200  0.96000  0.58600  1.0000
  Li  Li9       1.0  0.64800  0.68800  0.58600  1.0000
  Li  Li10      1.0  0.04040  0.35200  0.58600  1.0000
  Li  Li11      1.0  0.00000  0.00000  0.74400  1.0000
  Li  Li12      1.0  0.07230  0.69600  0.91000  1.0000
  Li  Li13      1.0  0.62400  0.92800  0.91000  1.0000
  Li  Li14      1.0  0.30400  0.37600  0.91000  1.0000
  N   N1        1.0  0.05980  0.69300  0.16800  1.0000
  N   N2        1.0  0.30700  0.36700  0.16800  1.0000
  N   N3        1.0  0.63300  0.94000  0.16800  1.0000
  N   N4        1.0  0.33300  0.66700  0.45300  1.0000
  N   N5        1.0  0.66700  0.33300  0.54700  1.0000
  N   N6        1.0  0.36700  0.05980  0.83200  1.0000
  N   N7        1.0  0.69300  0.63300  0.83200  1.0000
  N   N8        1.0  0.94000  0.30700  0.83200  1.0000
  O   O1        1.0  0.00000  0.00000  0.50000  1.0000
