data_image0
_chemical_formula_structural       Ba10In4Sb12
_chemical_formula_sum              "Ba10 In4 Sb12"
_cell_length_a       15.5374
_cell_length_b       13.5262
_cell_length_c       4.8464
_cell_angle_alpha    90
_cell_angle_beta     90
_cell_angle_gamma    90

_space_group_name_H-M_alt    "P 1"
_space_group_IT_number       1

loop_
  _space_group_symop_operation_xyz
  'x, y, z'

loop_
  _atom_site_type_symbol
  _atom_site_label
  _atom_site_symmetry_multiplicity
  _atom_site_fract_x
  _atom_site_fract_y
  _atom_site_fract_z
  _atom_site_occupancy
  Ba  Ba1       1.0  0.50000  0.00000  0.50000  1.0000
  Ba  Ba2       1.0  0.75200  0.08720  0.50000  1.0000
  Ba  Ba3       1.0  0.01740  0.17200  0.50000  1.0000
  Ba  Ba4       1.0  0.51700  0.32800  0.50000  1.0000
  Ba  Ba5       1.0  0.25200  0.41300  0.50000  1.0000
  Ba  Ba6       1.0  0.00000  0.50000  0.50000  1.0000
  Ba  Ba7       1.0  0.74800  0.58700  0.50000  1.0000
  Ba  Ba8       1.0  0.48300  0.67200  0.50000  1.0000
  Ba  Ba9       1.0  0.98300  0.82800  0.50000  1.0000
  Ba  Ba10      1.0  0.24800  0.91300  0.50000  1.0000
  In  In1       1.0  0.21100  0.17400  0.00000  1.0000
  In  In2       1.0  0.71100  0.32600  0.00000  1.0000
  In  In3       1.0  0.28900  0.67400  0.00000  1.0000
  In  In4       1.0  0.78900  0.82600  0.00000  1.0000
  Sb  Sb1       1.0  0.90800  0.01410  0.00000  1.0000
  Sb  Sb2       1.0  0.59700  0.15600  0.00000  1.0000
  Sb  Sb3       1.0  0.09660  0.34400  0.00000  1.0000
  Sb  Sb4       1.0  0.40800  0.48600  0.00000  1.0000
  Sb  Sb5       1.0  0.59200  0.51400  0.00000  1.0000
  Sb  Sb6       1.0  0.90300  0.65600  0.00000  1.0000
  Sb  Sb7       1.0  0.40300  0.84400  0.00000  1.0000
  Sb  Sb8       1.0  0.09250  0.98600  0.00000  1.0000
  Sb  Sb9       1.0  0.31800  0.16300  0.50000  1.0000
  Sb  Sb10      1.0  0.81800  0.33700  0.50000  1.0000
  Sb  Sb11      1.0  0.18200  0.66300  0.50000  1.0000
  Sb  Sb12      1.0  0.68200  0.83700  0.50000  1.0000
