data_image0
_chemical_formula_structural       La4Li4O12Sr4
_chemical_formula_sum              "La4 Li4 O12 Sr4"
_cell_length_a       13.4233
_cell_length_b       6.87732
_cell_length_c       3.56368
_cell_angle_alpha    90
_cell_angle_beta     90
_cell_angle_gamma    90

_space_group_name_H-M_alt    "P 1"
_space_group_IT_number       1

loop_
  _space_group_symop_operation_xyz
  'x, y, z'

loop_
  _atom_site_type_symbol
  _atom_site_label
  _atom_site_symmetry_multiplicity
  _atom_site_fract_x
  _atom_site_fract_y
  _atom_site_fract_z
  _atom_site_occupancy
  La  La1       1.0  0.04300  0.24500  0.25000  1.0000
  La  La2       1.0  0.45700  0.74500  0.25000  1.0000
  La  La3       1.0  0.54300  0.25500  0.75000  1.0000
  La  La4       1.0  0.95700  0.75500  0.75000  1.0000
  Li  Li1       1.0  0.36500  0.12300  0.25000  1.0000
  Li  Li2       1.0  0.13500  0.62300  0.25000  1.0000
  Li  Li3       1.0  0.86500  0.37700  0.75000  1.0000
  Li  Li4       1.0  0.63500  0.87700  0.75000  1.0000
  O   O1        1.0  0.59700  0.00876  0.25000  1.0000
  O   O2        1.0  0.22100  0.18100  0.25000  1.0000
  O   O3        1.0  0.43700  0.36800  0.25000  1.0000
  O   O4        1.0  0.90300  0.50900  0.25000  1.0000
  O   O5        1.0  0.27900  0.68100  0.25000  1.0000
  O   O6        1.0  0.06290  0.86800  0.25000  1.0000
  O   O7        1.0  0.93700  0.13200  0.75000  1.0000
  O   O8        1.0  0.72100  0.31900  0.75000  1.0000
  O   O9        1.0  0.09690  0.49100  0.75000  1.0000
  O   O10       1.0  0.56300  0.63200  0.75000  1.0000
  O   O11       1.0  0.77900  0.81900  0.75000  1.0000
  O   O12       1.0  0.40300  0.99100  0.75000  1.0000
  Sr  Sr1       1.0  0.78200  0.08840  0.25000  1.0000
  Sr  Sr2       1.0  0.71800  0.58800  0.25000  1.0000
  Sr  Sr3       1.0  0.28200  0.41200  0.75000  1.0000
  Sr  Sr4       1.0  0.21800  0.91200  0.75000  1.0000
