data_image0
_chemical_formula_structural       Cu20Sb6
_chemical_formula_sum              "Cu20 Sb6"
_cell_length_a       10.0122
_cell_length_b       10.0122
_cell_length_c       4.31371
_cell_angle_alpha    90
_cell_angle_beta     90
_cell_angle_gamma    120.001

_space_group_name_H-M_alt    "P 1"
_space_group_IT_number       1

loop_
  _space_group_symop_operation_xyz
  'x, y, z'

loop_
  _atom_site_type_symbol
  _atom_site_label
  _atom_site_symmetry_multiplicity
  _atom_site_fract_x
  _atom_site_fract_y
  _atom_site_fract_z
  _atom_site_occupancy
  Cu  Cu1       1.0  0.58200  0.02300  0.25000  1.0000
  Cu  Cu2       1.0  0.11600  0.16700  0.25000  1.0000
  Cu  Cu3       1.0  0.66700  0.33300  0.25000  1.0000
  Cu  Cu4       1.0  0.44100  0.41800  0.25000  1.0000
  Cu  Cu5       1.0  0.20900  0.50300  0.25000  1.0000
  Cu  Cu6       1.0  0.97700  0.55900  0.25000  1.0000
  Cu  Cu7       1.0  0.49700  0.70600  0.25000  1.0000
  Cu  Cu8       1.0  0.29400  0.79100  0.25000  1.0000
  Cu  Cu9       1.0  0.05100  0.88400  0.25000  1.0000
  Cu  Cu10      1.0  0.83300  0.94900  0.25000  1.0000
  Cu  Cu11      1.0  0.16700  0.05100  0.75000  1.0000
  Cu  Cu12      1.0  0.94900  0.11600  0.75000  1.0000
  Cu  Cu13      1.0  0.70600  0.20900  0.75000  1.0000
  Cu  Cu14      1.0  0.50300  0.29400  0.75000  1.0000
  Cu  Cu15      1.0  0.02300  0.44100  0.75000  1.0000
  Cu  Cu16      1.0  0.79100  0.49700  0.75000  1.0000
  Cu  Cu17      1.0  0.55900  0.58200  0.75000  1.0000
  Cu  Cu18      1.0  0.33300  0.66700  0.75000  1.0000
  Cu  Cu19      1.0  0.88400  0.83300  0.75000  1.0000
  Cu  Cu20      1.0  0.41800  0.97700  0.75000  1.0000
  Sb  Sb1       1.0  0.36200  0.10600  0.25000  1.0000
  Sb  Sb2       1.0  0.89400  0.25600  0.25000  1.0000
  Sb  Sb3       1.0  0.74400  0.63800  0.25000  1.0000
  Sb  Sb4       1.0  0.25600  0.36200  0.75000  1.0000
  Sb  Sb5       1.0  0.10600  0.74400  0.75000  1.0000
  Sb  Sb6       1.0  0.63800  0.89400  0.75000  1.0000
