data_image0
_chemical_formula_structural       Eu2N14Si8Yb2
_chemical_formula_sum              "Eu2 N14 Si8 Yb2"
_cell_length_a       5.99971
_cell_length_b       5.99971
_cell_length_c       9.78606
_cell_angle_alpha    90
_cell_angle_beta     90
_cell_angle_gamma    120

_space_group_name_H-M_alt    "P 1"
_space_group_IT_number       1

loop_
  _space_group_symop_operation_xyz
  'x, y, z'

loop_
  _atom_site_type_symbol
  _atom_site_label
  _atom_site_symmetry_multiplicity
  _atom_site_fract_x
  _atom_site_fract_y
  _atom_site_fract_z
  _atom_site_occupancy
  Eu  Eu1       1.0  0.33300  0.66700  0.40800  1.0000
  Eu  Eu2       1.0  0.66700  0.33300  0.90800  1.0000
  N   N1        1.0  0.00000  0.00000  0.16200  1.0000
  N   N2        1.0  0.50900  0.49100  0.19200  1.0000
  N   N3        1.0  0.98100  0.49100  0.19200  1.0000
  N   N4        1.0  0.50900  0.01870  0.19200  1.0000
  N   N5        1.0  0.30400  0.15200  0.41200  1.0000
  N   N6        1.0  0.84800  0.15200  0.41200  1.0000
  N   N7        1.0  0.84800  0.69600  0.41200  1.0000
  N   N8        1.0  0.00000  0.00000  0.66200  1.0000
  N   N9        1.0  0.01880  0.50900  0.69200  1.0000
  N   N10       1.0  0.49100  0.50900  0.69200  1.0000
  N   N11       1.0  0.49100  0.98100  0.69200  1.0000
  N   N12       1.0  0.15200  0.84800  0.91200  1.0000
  N   N13       1.0  0.69600  0.84800  0.91200  1.0000
  N   N14       1.0  0.15200  0.30400  0.91200  1.0000
  Si  Si1       1.0  0.34700  0.17400  0.23900  1.0000
  Si  Si2       1.0  0.82600  0.17400  0.23900  1.0000
  Si  Si3       1.0  0.82600  0.65300  0.23900  1.0000
  Si  Si4       1.0  0.00000  0.00000  0.47400  1.0000
  Si  Si5       1.0  0.17400  0.34700  0.73900  1.0000
  Si  Si6       1.0  0.17400  0.82600  0.73900  1.0000
  Si  Si7       1.0  0.65300  0.82600  0.73900  1.0000
  Si  Si8       1.0  0.00000  0.00000  0.97400  1.0000
  Yb  Yb1       1.0  0.33300  0.66700  0.05000  1.0000
  Yb  Yb2       1.0  0.66700  0.33300  0.55000  1.0000
