data_image0
_chemical_formula_structural       Ba6Fe6Se14
_chemical_formula_sum              "Ba6 Fe6 Se14"
_cell_length_a       10.9864
_cell_length_b       10.9882
_cell_length_c       7.32592
_cell_angle_alpha    90
_cell_angle_beta     90
_cell_angle_gamma    119.995

_space_group_name_H-M_alt    "P 1"
_space_group_IT_number       1

loop_
  _space_group_symop_operation_xyz
  'x, y, z'

loop_
  _atom_site_type_symbol
  _atom_site_label
  _atom_site_symmetry_multiplicity
  _atom_site_fract_x
  _atom_site_fract_y
  _atom_site_fract_z
  _atom_site_occupancy
  Ba  Ba1       1.0  0.18600  0.37200  0.00410  1.0000
  Ba  Ba2       1.0  0.18600  0.81400  0.00411  1.0000
  Ba  Ba3       1.0  0.62800  0.81400  0.00411  1.0000
  Ba  Ba4       1.0  0.81400  0.62800  0.50400  1.0000
  Ba  Ba5       1.0  0.37200  0.18600  0.50400  1.0000
  Ba  Ba6       1.0  0.81400  0.18600  0.50400  1.0000
  Fe  Fe1       1.0  0.25500  0.50900  0.48800  1.0000
  Fe  Fe2       1.0  0.25400  0.74600  0.48800  1.0000
  Fe  Fe3       1.0  0.49100  0.74600  0.48800  1.0000
  Fe  Fe4       1.0  0.74500  0.49100  0.98800  1.0000
  Fe  Fe5       1.0  0.50900  0.25400  0.98800  1.0000
  Fe  Fe6       1.0  0.74600  0.25400  0.98800  1.0000
  Se  Se1       1.0  0.86400  0.72700  0.07550  1.0000
  Se  Se2       1.0  0.27300  0.13600  0.07550  1.0000
  Se  Se3       1.0  0.86400  0.13600  0.07550  1.0000
  Se  Se4       1.0  0.66700  0.33300  0.24800  1.0000
  Se  Se5       1.0  0.08890  0.54400  0.31500  1.0000
  Se  Se6       1.0  0.45600  0.54400  0.31500  1.0000
  Se  Se7       1.0  0.45600  0.91100  0.31500  1.0000
  Se  Se8       1.0  0.13600  0.27300  0.57600  1.0000
  Se  Se9       1.0  0.13600  0.86400  0.57600  1.0000
  Se  Se10      1.0  0.72700  0.86400  0.57600  1.0000
  Se  Se11      1.0  0.33300  0.66700  0.74800  1.0000
  Se  Se12      1.0  0.54400  0.45600  0.81500  1.0000
  Se  Se13      1.0  0.91100  0.45600  0.81500  1.0000
  Se  Se14      1.0  0.54400  0.08890  0.81500  1.0000
