data_image0
_chemical_formula_structural       As8Na16Ti2
_chemical_formula_sum              "As8 Na16 Ti2"
_cell_length_a       9.66504
_cell_length_b       9.66504
_cell_length_c       9.66504
_cell_angle_alpha    120
_cell_angle_beta     90
_cell_angle_gamma    120

_space_group_name_H-M_alt    "P 1"
_space_group_IT_number       1

loop_
  _space_group_symop_operation_xyz
  'x, y, z'

loop_
  _atom_site_type_symbol
  _atom_site_label
  _atom_site_symmetry_multiplicity
  _atom_site_fract_x
  _atom_site_fract_y
  _atom_site_fract_z
  _atom_site_occupancy
  As  As1       1.0  0.23100  0.46100  0.19200  1.0000
  As  As2       1.0  0.19200  0.96100  0.23100  1.0000
  As  As3       1.0  0.76900  0.96100  0.23100  1.0000
  As  As4       1.0  0.76900  0.53900  0.23100  1.0000
  As  As5       1.0  0.23100  0.46100  0.76900  1.0000
  As  As6       1.0  0.23100  0.03870  0.76900  1.0000
  As  As7       1.0  0.80800  0.03870  0.76900  1.0000
  As  As8       1.0  0.76900  0.53900  0.80800  1.0000
  Na  Na1       1.0  0.00000  0.00000  0.00000  1.0000
  Na  Na2       1.0  0.00000  0.50000  0.00000  1.0000
  Na  Na3       1.0  0.50000  0.50000  0.00000  1.0000
  Na  Na4       1.0  0.84500  0.25000  0.15500  1.0000
  Na  Na5       1.0  0.40500  0.25000  0.15500  1.0000
  Na  Na6       1.0  0.40500  0.81000  0.15500  1.0000
  Na  Na7       1.0  0.15500  0.31000  0.40500  1.0000
  Na  Na8       1.0  0.15500  0.75000  0.40500  1.0000
  Na  Na9       1.0  0.59500  0.75000  0.40500  1.0000
  Na  Na10      1.0  0.00000  0.00000  0.50000  1.0000
  Na  Na11      1.0  0.40500  0.25000  0.59500  1.0000
  Na  Na12      1.0  0.84500  0.69000  0.59500  1.0000
  Na  Na13      1.0  0.84500  0.25000  0.59500  1.0000
  Na  Na14      1.0  0.59500  0.19000  0.84500  1.0000
  Na  Na15      1.0  0.15500  0.75000  0.84500  1.0000
  Na  Na16      1.0  0.59500  0.75000  0.84500  1.0000
  Ti  Ti1       1.0  0.87500  0.75000  0.12500  1.0000
  Ti  Ti2       1.0  0.12500  0.25000  0.87500  1.0000
