data_image0
_chemical_formula_structural       Cl16Ir2K6Sn2
_chemical_formula_sum              "Cl16 Ir2 K6 Sn2"
_cell_length_a       9.54058
_cell_length_b       9.61396
_cell_length_c       7.904
_cell_angle_alpha    90
_cell_angle_beta     90
_cell_angle_gamma    90

_space_group_name_H-M_alt    "P 1"
_space_group_IT_number       1

loop_
  _space_group_symop_operation_xyz
  'x, y, z'

loop_
  _atom_site_type_symbol
  _atom_site_label
  _atom_site_symmetry_multiplicity
  _atom_site_fract_x
  _atom_site_fract_y
  _atom_site_fract_z
  _atom_site_occupancy
  Cl  Cl1       1.0  0.00000  0.18700  0.08240  1.0000
  Cl  Cl2       1.0  0.50000  0.56000  0.10100  1.0000
  Cl  Cl3       1.0  0.00000  0.52900  0.17900  1.0000
  Cl  Cl4       1.0  0.30900  0.93400  0.21900  1.0000
  Cl  Cl5       1.0  0.69100  0.93400  0.21900  1.0000
  Cl  Cl6       1.0  0.25000  0.31400  0.33600  1.0000
  Cl  Cl7       1.0  0.75000  0.31400  0.33600  1.0000
  Cl  Cl8       1.0  0.00000  0.85300  0.42600  1.0000
  Cl  Cl9       1.0  0.50000  0.81300  0.58200  1.0000
  Cl  Cl10      1.0  0.00000  0.44000  0.60100  1.0000
  Cl  Cl11      1.0  0.50000  0.47100  0.67900  1.0000
  Cl  Cl12      1.0  0.19100  0.06580  0.71900  1.0000
  Cl  Cl13      1.0  0.80900  0.06580  0.71900  1.0000
  Cl  Cl14      1.0  0.25000  0.68600  0.83600  1.0000
  Cl  Cl15      1.0  0.75000  0.68600  0.83600  1.0000
  Cl  Cl16      1.0  0.50000  0.14700  0.92600  1.0000
  Ir  Ir1       1.0  0.00000  0.31100  0.34100  1.0000
  Ir  Ir2       1.0  0.50000  0.68900  0.84100  1.0000
  K   K1        1.0  0.00000  0.86200  0.00307  1.0000
  K   K2        1.0  0.25900  0.62700  0.43400  1.0000
  K   K3        1.0  0.74100  0.62700  0.43400  1.0000
  K   K4        1.0  0.50000  0.13800  0.50300  1.0000
  K   K5        1.0  0.24100  0.37300  0.93400  1.0000
  K   K6        1.0  0.75900  0.37300  0.93400  1.0000
  Sn  Sn1       1.0  0.50000  0.90600  0.02080  1.0000
  Sn  Sn2       1.0  0.00000  0.09440  0.52100  1.0000
