data_image0
_chemical_formula_structural       B4Ca2H8O12
_chemical_formula_sum              "B4 Ca2 H8 O12"
_cell_length_a       4.39782
_cell_length_b       6.83107
_cell_length_c       6.83107
_cell_angle_alpha    86.9725
_cell_angle_beta     91.0078
_cell_angle_gamma    91.0078

_space_group_name_H-M_alt    "P 1"
_space_group_IT_number       1

loop_
  _space_group_symop_operation_xyz
  'x, y, z'

loop_
  _atom_site_type_symbol
  _atom_site_label
  _atom_site_symmetry_multiplicity
  _atom_site_fract_x
  _atom_site_fract_y
  _atom_site_fract_z
  _atom_site_occupancy
  B   B1        1.0  0.31400  0.27900  0.13900  1.0000
  B   B2        1.0  0.81400  0.13900  0.27900  1.0000
  B   B3        1.0  0.18600  0.86100  0.72100  1.0000
  B   B4        1.0  0.68600  0.72100  0.86100  1.0000
  Ca  Ca1       1.0  0.25000  0.78800  0.21200  1.0000
  Ca  Ca2       1.0  0.75000  0.21200  0.78800  1.0000
  H   H1        1.0  0.77600  0.50900  0.07880  1.0000
  H   H2        1.0  0.12700  0.40700  0.36600  1.0000
  H   H3        1.0  0.62700  0.36600  0.40700  1.0000
  H   H4        1.0  0.72400  0.92100  0.49100  1.0000
  H   H5        1.0  0.27600  0.07880  0.50900  1.0000
  H   H6        1.0  0.37300  0.63400  0.59300  1.0000
  H   H7        1.0  0.87300  0.59300  0.63400  1.0000
  H   H8        1.0  0.22400  0.49100  0.92100  1.0000
  O   O1        1.0  0.79500  0.65200  0.05960  1.0000
  O   O2        1.0  0.62800  0.21800  0.11600  1.0000
  O   O3        1.0  0.12800  0.11600  0.21800  1.0000
  O   O4        1.0  0.30500  0.44200  0.28100  1.0000
  O   O5        1.0  0.70500  0.94000  0.34800  1.0000
  O   O6        1.0  0.80500  0.28100  0.44200  1.0000
  O   O7        1.0  0.19500  0.71900  0.55800  1.0000
  O   O8        1.0  0.29500  0.05960  0.65200  1.0000
  O   O9        1.0  0.69500  0.55800  0.71900  1.0000
  O   O10       1.0  0.87200  0.88400  0.78200  1.0000
  O   O11       1.0  0.37200  0.78200  0.88400  1.0000
  O   O12       1.0  0.20500  0.34800  0.94000  1.0000
