data_image0
_chemical_formula_structural       Al4Ca10Sb12
_chemical_formula_sum              "Al4 Ca10 Sb12"
_cell_length_a       14.1348
_cell_length_b       12.1158
_cell_length_c       4.49907
_cell_angle_alpha    90
_cell_angle_beta     90
_cell_angle_gamma    90

_space_group_name_H-M_alt    "P 1"
_space_group_IT_number       1

loop_
  _space_group_symop_operation_xyz
  'x, y, z'

loop_
  _atom_site_type_symbol
  _atom_site_label
  _atom_site_symmetry_multiplicity
  _atom_site_fract_x
  _atom_site_fract_y
  _atom_site_fract_z
  _atom_site_occupancy
  Al  Al1       1.0  0.21100  0.16900  0.00000  1.0000
  Al  Al2       1.0  0.71100  0.33100  0.00000  1.0000
  Al  Al3       1.0  0.28900  0.66900  0.00000  1.0000
  Al  Al4       1.0  0.78900  0.83100  0.00000  1.0000
  Ca  Ca1       1.0  0.50000  0.00000  0.50000  1.0000
  Ca  Ca2       1.0  0.74700  0.09260  0.50000  1.0000
  Ca  Ca3       1.0  0.01380  0.17300  0.50000  1.0000
  Ca  Ca4       1.0  0.51400  0.32700  0.50000  1.0000
  Ca  Ca5       1.0  0.24700  0.40700  0.50000  1.0000
  Ca  Ca6       1.0  0.00000  0.50000  0.50000  1.0000
  Ca  Ca7       1.0  0.75300  0.59300  0.50000  1.0000
  Ca  Ca8       1.0  0.48600  0.67300  0.50000  1.0000
  Ca  Ca9       1.0  0.98600  0.82700  0.50000  1.0000
  Ca  Ca10      1.0  0.25300  0.90700  0.50000  1.0000
  Sb  Sb1       1.0  0.90000  0.02560  0.00000  1.0000
  Sb  Sb2       1.0  0.59300  0.15600  0.00000  1.0000
  Sb  Sb3       1.0  0.09310  0.34400  0.00000  1.0000
  Sb  Sb4       1.0  0.40000  0.47400  0.00000  1.0000
  Sb  Sb5       1.0  0.60000  0.52600  0.00000  1.0000
  Sb  Sb6       1.0  0.90700  0.65600  0.00000  1.0000
  Sb  Sb7       1.0  0.40700  0.84400  0.00000  1.0000
  Sb  Sb8       1.0  0.10000  0.97400  0.00000  1.0000
  Sb  Sb9       1.0  0.32200  0.16100  0.50000  1.0000
  Sb  Sb10      1.0  0.82200  0.33900  0.50000  1.0000
  Sb  Sb11      1.0  0.17800  0.66100  0.50000  1.0000
  Sb  Sb12      1.0  0.67800  0.83900  0.50000  1.0000
