data_image0
_chemical_formula_structural       Ge8Li18
_chemical_formula_sum              "Ge8 Li18"
_cell_length_a       4.39983
_cell_length_b       4.42749
_cell_length_c       23.5173
_cell_angle_alpha    90
_cell_angle_beta     90
_cell_angle_gamma    60.2064

_space_group_name_H-M_alt    "P 1"
_space_group_IT_number       1

loop_
  _space_group_symop_operation_xyz
  'x, y, z'

loop_
  _atom_site_type_symbol
  _atom_site_label
  _atom_site_symmetry_multiplicity
  _atom_site_fract_x
  _atom_site_fract_y
  _atom_site_fract_z
  _atom_site_occupancy
  Ge  Ge1       1.0  0.49600  0.00796  0.05460  1.0000
  Ge  Ge2       1.0  0.82000  0.35900  0.19900  1.0000
  Ge  Ge3       1.0  0.82000  0.35900  0.30100  1.0000
  Ge  Ge4       1.0  0.49600  0.00796  0.44500  1.0000
  Ge  Ge5       1.0  0.50400  0.99200  0.55500  1.0000
  Ge  Ge6       1.0  0.18000  0.64100  0.69900  1.0000
  Ge  Ge7       1.0  0.18000  0.64100  0.80100  1.0000
  Ge  Ge8       1.0  0.50400  0.99200  0.94500  1.0000
  Li  Li1       1.0  0.16400  0.67100  0.01680  1.0000
  Li  Li2       1.0  0.82600  0.34800  0.09300  1.0000
  Li  Li3       1.0  0.15600  0.68900  0.13100  1.0000
  Li  Li4       1.0  0.48800  0.02410  0.17500  1.0000
  Li  Li5       1.0  0.15300  0.69300  0.25000  1.0000
  Li  Li6       1.0  0.48800  0.02410  0.32500  1.0000
  Li  Li7       1.0  0.15600  0.68900  0.36900  1.0000
  Li  Li8       1.0  0.82600  0.34800  0.40700  1.0000
  Li  Li9       1.0  0.16400  0.67100  0.48300  1.0000
  Li  Li10      1.0  0.83600  0.32900  0.51700  1.0000
  Li  Li11      1.0  0.17400  0.65200  0.59300  1.0000
  Li  Li12      1.0  0.84400  0.31100  0.63100  1.0000
  Li  Li13      1.0  0.51200  0.97600  0.67500  1.0000
  Li  Li14      1.0  0.84700  0.30700  0.75000  1.0000
  Li  Li15      1.0  0.51200  0.97600  0.82500  1.0000
  Li  Li16      1.0  0.84400  0.31100  0.86900  1.0000
  Li  Li17      1.0  0.17400  0.65200  0.90700  1.0000
  Li  Li18      1.0  0.83600  0.32900  0.98300  1.0000
