data_image0
_chemical_formula_structural       As4Ba2Cu4O16
_chemical_formula_sum              "As4 Ba2 Cu4 O16"
_cell_length_a       4.75231
_cell_length_b       8.48095
_cell_length_c       8.9037
_cell_angle_alpha    90
_cell_angle_beta     93.4378
_cell_angle_gamma    90

_space_group_name_H-M_alt    "P 1"
_space_group_IT_number       1

loop_
  _space_group_symop_operation_xyz
  'x, y, z'

loop_
  _atom_site_type_symbol
  _atom_site_label
  _atom_site_symmetry_multiplicity
  _atom_site_fract_x
  _atom_site_fract_y
  _atom_site_fract_z
  _atom_site_occupancy
  As  As1       1.0  0.46900  0.31000  0.07410  1.0000
  As  As2       1.0  0.03110  0.81000  0.42600  1.0000
  As  As3       1.0  0.96900  0.19000  0.57400  1.0000
  As  As4       1.0  0.53100  0.69000  0.92600  1.0000
  Ba  Ba1       1.0  0.00000  0.00000  0.00000  1.0000
  Ba  Ba2       1.0  0.50000  0.50000  0.50000  1.0000
  Cu  Cu1       1.0  0.03190  0.57400  0.15400  1.0000
  Cu  Cu2       1.0  0.46800  0.07370  0.34600  1.0000
  Cu  Cu3       1.0  0.53200  0.92600  0.65400  1.0000
  Cu  Cu4       1.0  0.96800  0.42600  0.84600  1.0000
  O   O1        1.0  0.79700  0.38100  0.04080  1.0000
  O   O2        1.0  0.73600  0.72000  0.09040  1.0000
  O   O3        1.0  0.51300  0.11600  0.13400  1.0000
  O   O4        1.0  0.32500  0.42100  0.21200  1.0000
  O   O5        1.0  0.17500  0.92100  0.28800  1.0000
  O   O6        1.0  0.98700  0.61600  0.36600  1.0000
  O   O7        1.0  0.76400  0.22000  0.41000  1.0000
  O   O8        1.0  0.70300  0.88100  0.45900  1.0000
  O   O9        1.0  0.29700  0.11900  0.54100  1.0000
  O   O10       1.0  0.23600  0.78000  0.59000  1.0000
  O   O11       1.0  0.01310  0.38400  0.63400  1.0000
  O   O12       1.0  0.82500  0.07920  0.71200  1.0000
  O   O13       1.0  0.67500  0.57900  0.78800  1.0000
  O   O14       1.0  0.48700  0.88400  0.86600  1.0000
  O   O15       1.0  0.26400  0.28000  0.91000  1.0000
  O   O16       1.0  0.20300  0.61900  0.95900  1.0000
