data_image0
_chemical_formula_structural       Al2La6S14Zn2
_chemical_formula_sum              "Al2 La6 S14 Zn2"
_cell_length_a       10.1995
_cell_length_b       10.2001
_cell_length_c       6.19971
_cell_angle_alpha    90
_cell_angle_beta     90
_cell_angle_gamma    119.999

_space_group_name_H-M_alt    "P 1"
_space_group_IT_number       1

loop_
  _space_group_symop_operation_xyz
  'x, y, z'

loop_
  _atom_site_type_symbol
  _atom_site_label
  _atom_site_symmetry_multiplicity
  _atom_site_fract_x
  _atom_site_fract_y
  _atom_site_fract_z
  _atom_site_occupancy
  Al  Al1       1.0  0.66700  0.33300  0.16200  1.0000
  Al  Al2       1.0  0.33300  0.66700  0.66200  1.0000
  La  La1       1.0  0.14400  0.37600  0.24200  1.0000
  La  La2       1.0  0.23200  0.85600  0.24200  1.0000
  La  La3       1.0  0.62400  0.76800  0.24200  1.0000
  La  La4       1.0  0.85600  0.62400  0.74200  1.0000
  La  La5       1.0  0.76800  0.14400  0.74200  1.0000
  La  La6       1.0  0.37600  0.23200  0.74200  1.0000
  S   S1        1.0  0.89900  0.42100  0.01520  1.0000
  S   S2        1.0  0.57900  0.47800  0.01520  1.0000
  S   S3        1.0  0.52200  0.10100  0.01520  1.0000
  S   S4        1.0  0.33300  0.66700  0.02440  1.0000
  S   S5        1.0  0.84700  0.09920  0.29300  1.0000
  S   S6        1.0  0.90100  0.74800  0.29300  1.0000
  S   S7        1.0  0.25200  0.15300  0.29300  1.0000
  S   S8        1.0  0.10100  0.57900  0.51500  1.0000
  S   S9        1.0  0.42100  0.52200  0.51500  1.0000
  S   S10       1.0  0.47800  0.89900  0.51500  1.0000
  S   S11       1.0  0.66700  0.33300  0.52400  1.0000
  S   S12       1.0  0.15300  0.90100  0.79300  1.0000
  S   S13       1.0  0.09920  0.25200  0.79300  1.0000
  S   S14       1.0  0.74800  0.84700  0.79300  1.0000
  Zn  Zn1       1.0  0.00000  0.00000  0.34400  1.0000
  Zn  Zn2       1.0  0.00000  0.00000  0.84400  1.0000
