data_image0
_chemical_formula_structural       F16O4Os4
_chemical_formula_sum              "F16 O4 Os4"
_cell_length_a       4.98134
_cell_length_b       12.0409
_cell_length_c       5.30086
_cell_angle_alpha    90.0006
_cell_angle_beta     118.813
_cell_angle_gamma    89.9997

_space_group_name_H-M_alt    "P 1"
_space_group_IT_number       1

loop_
  _space_group_symop_operation_xyz
  'x, y, z'

loop_
  _atom_site_type_symbol
  _atom_site_label
  _atom_site_symmetry_multiplicity
  _atom_site_fract_x
  _atom_site_fract_y
  _atom_site_fract_z
  _atom_site_occupancy
  F   F1        1.0  0.00246  0.20400  0.05190  1.0000
  F   F2        1.0  0.47100  0.29400  0.05850  1.0000
  F   F3        1.0  0.74900  0.91600  0.20000  1.0000
  F   F4        1.0  0.74900  0.50800  0.24300  1.0000
  F   F5        1.0  0.25100  0.00810  0.25700  1.0000
  F   F6        1.0  0.25100  0.41600  0.30000  1.0000
  F   F7        1.0  0.52900  0.79400  0.44200  1.0000
  F   F8        1.0  0.99800  0.70400  0.44800  1.0000
  F   F9        1.0  0.00245  0.29600  0.55200  1.0000
  F   F10       1.0  0.47100  0.20600  0.55900  1.0000
  F   F11       1.0  0.74900  0.58400  0.70000  1.0000
  F   F12       1.0  0.74900  0.99200  0.74300  1.0000
  F   F13       1.0  0.25100  0.49200  0.75700  1.0000
  F   F14       1.0  0.25100  0.08430  0.80000  1.0000
  F   F15       1.0  0.52900  0.70600  0.94200  1.0000
  F   F16       1.0  0.99800  0.79600  0.94800  1.0000
  O   O1        1.0  0.23500  0.61200  0.18100  1.0000
  O   O2        1.0  0.76500  0.11200  0.31900  1.0000
  O   O3        1.0  0.23500  0.88800  0.68100  1.0000
  O   O4        1.0  0.76500  0.38800  0.81900  1.0000
  Os  Os1       1.0  0.39100  0.14000  0.17200  1.0000
  Os  Os2       1.0  0.60800  0.64000  0.32800  1.0000
  Os  Os3       1.0  0.39100  0.36000  0.67200  1.0000
  Os  Os4       1.0  0.60800  0.86000  0.82800  1.0000
