data_image0
_chemical_formula_structural       Cu4Ga2O14Sm2Sr4
_chemical_formula_sum              "Cu4 Ga2 O14 Sm2 Sr4"
_cell_length_a       5.3914
_cell_length_b       5.50473
_cell_length_c       12.0888
_cell_angle_alpha    103.161
_cell_angle_beta     102.885
_cell_angle_gamma    90

_space_group_name_H-M_alt    "P 1"
_space_group_IT_number       1

loop_
  _space_group_symop_operation_xyz
  'x, y, z'

loop_
  _atom_site_type_symbol
  _atom_site_label
  _atom_site_symmetry_multiplicity
  _atom_site_fract_x
  _atom_site_fract_y
  _atom_site_fract_z
  _atom_site_occupancy
  Cu  Cu1       1.0  0.57300  0.07560  0.15000  1.0000
  Cu  Cu2       1.0  0.07310  0.57400  0.15000  1.0000
  Cu  Cu3       1.0  0.92400  0.42600  0.85000  1.0000
  Cu  Cu4       1.0  0.42400  0.92400  0.85000  1.0000
  Ga  Ga1       1.0  0.78500  0.31800  0.50000  1.0000
  Ga  Ga2       1.0  0.28500  0.68200  0.50000  1.0000
  O   O1        1.0  0.31400  0.81300  0.12900  1.0000
  O   O2        1.0  0.81400  0.81600  0.12900  1.0000
  O   O3        1.0  0.81500  0.31700  0.13300  1.0000
  O   O4        1.0  0.31500  0.31700  0.13300  1.0000
  O   O5        1.0  0.64500  0.13000  0.35300  1.0000
  O   O6        1.0  0.14500  0.72300  0.35300  1.0000
  O   O7        1.0  0.13500  0.36800  0.50000  1.0000
  O   O8        1.0  0.63500  0.63200  0.50000  1.0000
  O   O9        1.0  0.79200  0.27700  0.64700  1.0000
  O   O10       1.0  0.29200  0.87000  0.64700  1.0000
  O   O11       1.0  0.18200  0.68300  0.86700  1.0000
  O   O12       1.0  0.68200  0.68300  0.86700  1.0000
  O   O13       1.0  0.68500  0.18400  0.87100  1.0000
  O   O14       1.0  0.18500  0.18700  0.87100  1.0000
  Sm  Sm1       1.0  0.99900  0.00000  0.00000  1.0000
  Sm  Sm2       1.0  0.49900  0.50000  0.00000  1.0000
  Sr  Sr1       1.0  0.15300  0.13600  0.30300  1.0000
  Sr  Sr2       1.0  0.65300  0.66800  0.30300  1.0000
  Sr  Sr3       1.0  0.34900  0.33200  0.69700  1.0000
  Sr  Sr4       1.0  0.84900  0.86400  0.69700  1.0000
