data_image0
_chemical_formula_structural       Ba2Hg3O14Pd7
_chemical_formula_sum              "Ba2 Hg3 O14 Pd7"
_cell_length_a       6.14165
_cell_length_b       6.14165
_cell_length_c       11.075
_cell_angle_alpha    90.4385
_cell_angle_beta     90.4385
_cell_angle_gamma    61.073

_space_group_name_H-M_alt    "P 1"
_space_group_IT_number       1

loop_
  _space_group_symop_operation_xyz
  'x, y, z'

loop_
  _atom_site_type_symbol
  _atom_site_label
  _atom_site_symmetry_multiplicity
  _atom_site_fract_x
  _atom_site_fract_y
  _atom_site_fract_z
  _atom_site_occupancy
  Ba  Ba1       1.0  0.50500  0.50500  0.29400  1.0000
  Ba  Ba2       1.0  0.49500  0.49500  0.70600  1.0000
  Hg  Hg1       1.0  0.17500  0.17500  0.19400  1.0000
  Hg  Hg2       1.0  0.00000  0.00000  0.50000  1.0000
  Hg  Hg3       1.0  0.82500  0.82500  0.80600  1.0000
  O   O1        1.0  0.68500  0.68500  0.10100  1.0000
  O   O2        1.0  0.68900  0.13000  0.10400  1.0000
  O   O3        1.0  0.13000  0.68900  0.10400  1.0000
  O   O4        1.0  0.99500  0.99500  0.31400  1.0000
  O   O5        1.0  0.98300  0.51600  0.31700  1.0000
  O   O6        1.0  0.51600  0.98300  0.31700  1.0000
  O   O7        1.0  0.36700  0.36700  0.49400  1.0000
  O   O8        1.0  0.63300  0.63300  0.50600  1.0000
  O   O9        1.0  0.48400  0.01700  0.68300  1.0000
  O   O10       1.0  0.01700  0.48400  0.68300  1.0000
  O   O11       1.0  0.00497  0.00497  0.68600  1.0000
  O   O12       1.0  0.87000  0.31100  0.89600  1.0000
  O   O13       1.0  0.31100  0.87000  0.89600  1.0000
  O   O14       1.0  0.31500  0.31500  0.89900  1.0000
  Pd  Pd1       1.0  0.00000  0.00000  0.00000  1.0000
  Pd  Pd2       1.0  0.50000  0.00000  0.00000  1.0000
  Pd  Pd3       1.0  0.00000  0.50000  0.00000  1.0000
  Pd  Pd4       1.0  0.83200  0.83200  0.22200  1.0000
  Pd  Pd5       1.0  0.50000  1.00000  0.50000  1.0000
  Pd  Pd6       1.0  0.00000  0.50000  0.50000  1.0000
  Pd  Pd7       1.0  0.16800  0.16800  0.77800  1.0000
