data_image0
_chemical_formula_structural       La5MnO16Re3
_chemical_formula_sum              "La5 Mn1 O16 Re3"
_cell_length_a       5.66172
_cell_length_b       5.67117
_cell_length_c       10.1638
_cell_angle_alpha    93.7657
_cell_angle_beta     93.4641
_cell_angle_gamma    91.0113

_space_group_name_H-M_alt    "P 1"
_space_group_IT_number       1

loop_
  _space_group_symop_operation_xyz
  'x, y, z'

loop_
  _atom_site_type_symbol
  _atom_site_label
  _atom_site_symmetry_multiplicity
  _atom_site_fract_x
  _atom_site_fract_y
  _atom_site_fract_z
  _atom_site_occupancy
  La  La1       1.0  0.51300  0.02690  0.20400  1.0000
  La  La2       1.0  0.03330  0.50600  0.21100  1.0000
  La  La3       1.0  0.00000  0.00000  0.50000  1.0000
  La  La4       1.0  0.96700  0.49400  0.78900  1.0000
  La  La5       1.0  0.48700  0.97300  0.79600  1.0000
  Mn  Mn1       1.0  0.50000  0.50000  0.00000  1.0000
  O   O1        1.0  0.69800  0.17900  0.00308  1.0000
  O   O2        1.0  0.82700  0.71000  0.03730  1.0000
  O   O3        1.0  0.07410  0.07530  0.18400  1.0000
  O   O4        1.0  0.45300  0.45100  0.20000  1.0000
  O   O5        1.0  0.77600  0.78000  0.32300  1.0000
  O   O6        1.0  0.29600  0.77500  0.36500  1.0000
  O   O7        1.0  0.78100  0.30300  0.36500  1.0000
  O   O8        1.0  0.30900  0.30400  0.43200  1.0000
  O   O9        1.0  0.69100  0.69600  0.56800  1.0000
  O   O10       1.0  0.21900  0.69700  0.63500  1.0000
  O   O11       1.0  0.70400  0.22500  0.63500  1.0000
  O   O12       1.0  0.22400  0.22000  0.67700  1.0000
  O   O13       1.0  0.54700  0.54900  0.80000  1.0000
  O   O14       1.0  0.92600  0.92500  0.81600  1.0000
  O   O15       1.0  0.17300  0.29000  0.96300  1.0000
  O   O16       1.0  0.30200  0.82100  0.99700  1.0000
  Re  Re1       1.0  0.00000  0.00000  0.00000  1.0000
  Re  Re2       1.0  0.55300  0.55300  0.39400  1.0000
  Re  Re3       1.0  0.44700  0.44700  0.60600  1.0000
