data_image0
_chemical_formula_structural       Al2Ni2S14Y6
_chemical_formula_sum              "Al2 Ni2 S14 Y6"
_cell_length_a       9.55097
_cell_length_b       9.55098
_cell_length_c       6.18391
_cell_angle_alpha    90
_cell_angle_beta     90
_cell_angle_gamma    120

_space_group_name_H-M_alt    "P 1"
_space_group_IT_number       1

loop_
  _space_group_symop_operation_xyz
  'x, y, z'

loop_
  _atom_site_type_symbol
  _atom_site_label
  _atom_site_symmetry_multiplicity
  _atom_site_fract_x
  _atom_site_fract_y
  _atom_site_fract_z
  _atom_site_occupancy
  Al  Al1       1.0  0.66700  0.33300  0.15100  1.0000
  Al  Al2       1.0  0.33300  0.66700  0.65100  1.0000
  Ni  Ni1       1.0  0.00000  0.00000  0.05260  1.0000
  Ni  Ni2       1.0  0.00000  0.00000  0.55300  1.0000
  S   S1        1.0  0.33300  0.66700  0.01320  1.0000
  S   S2        1.0  0.86900  0.09970  0.31700  1.0000
  S   S3        1.0  0.23100  0.13100  0.31700  1.0000
  S   S4        1.0  0.90000  0.76900  0.31700  1.0000
  S   S5        1.0  0.43200  0.52100  0.49600  1.0000
  S   S6        1.0  0.47900  0.91100  0.49600  1.0000
  S   S7        1.0  0.08870  0.56800  0.49600  1.0000
  S   S8        1.0  0.66700  0.33300  0.51300  1.0000
  S   S9        1.0  0.76900  0.86900  0.81700  1.0000
  S   S10       1.0  0.13100  0.90000  0.81700  1.0000
  S   S11       1.0  0.09970  0.23100  0.81700  1.0000
  S   S12       1.0  0.52100  0.08870  0.99600  1.0000
  S   S13       1.0  0.56800  0.47900  0.99600  1.0000
  S   S14       1.0  0.91100  0.43200  0.99600  1.0000
  Y   Y1        1.0  0.15500  0.37600  0.22400  1.0000
  Y   Y2        1.0  0.22100  0.84500  0.22400  1.0000
  Y   Y3        1.0  0.62400  0.77900  0.22400  1.0000
  Y   Y4        1.0  0.84500  0.62400  0.72400  1.0000
  Y   Y5        1.0  0.77900  0.15500  0.72400  1.0000
  Y   Y6        1.0  0.37600  0.22100  0.72400  1.0000
