data_image0
_chemical_formula_structural       Fe6O16P4
_chemical_formula_sum              "Fe6 O16 P4"
_cell_length_a       6.01471
_cell_length_b       4.78528
_cell_length_c       10.3675
_cell_angle_alpha    90
_cell_angle_beta     91.4454
_cell_angle_gamma    90

_space_group_name_H-M_alt    "P 1"
_space_group_IT_number       1

loop_
  _space_group_symop_operation_xyz
  'x, y, z'

loop_
  _atom_site_type_symbol
  _atom_site_label
  _atom_site_symmetry_multiplicity
  _atom_site_fract_x
  _atom_site_fract_y
  _atom_site_fract_z
  _atom_site_occupancy
  Fe  Fe1       1.0  0.50000  0.00000  0.00000  1.0000
  Fe  Fe2       1.0  0.76400  0.48400  0.22000  1.0000
  Fe  Fe3       1.0  0.23600  0.98400  0.28000  1.0000
  Fe  Fe4       1.0  0.50000  0.50000  0.50000  1.0000
  Fe  Fe5       1.0  0.76400  0.01610  0.72000  1.0000
  Fe  Fe6       1.0  0.23600  0.51600  0.78000  1.0000
  O   O1        1.0  0.75000  0.68700  0.03950  1.0000
  O   O2        1.0  0.27500  0.75300  0.10200  1.0000
  O   O3        1.0  0.47100  0.28600  0.16300  1.0000
  O   O4        1.0  0.06810  0.32100  0.18200  1.0000
  O   O5        1.0  0.93200  0.82100  0.31800  1.0000
  O   O6        1.0  0.52800  0.78600  0.33700  1.0000
  O   O7        1.0  0.72500  0.25300  0.39800  1.0000
  O   O8        1.0  0.25000  0.18700  0.46100  1.0000
  O   O9        1.0  0.75000  0.81300  0.53900  1.0000
  O   O10       1.0  0.27500  0.74700  0.60200  1.0000
  O   O11       1.0  0.47100  0.21400  0.66300  1.0000
  O   O12       1.0  0.06810  0.17900  0.68200  1.0000
  O   O13       1.0  0.93200  0.67900  0.81800  1.0000
  O   O14       1.0  0.52900  0.71400  0.83700  1.0000
  O   O15       1.0  0.72500  0.24700  0.89800  1.0000
  O   O16       1.0  0.25000  0.31300  0.96100  1.0000
  P   P1        1.0  0.25900  0.43200  0.09910  1.0000
  P   P2        1.0  0.74100  0.93200  0.40100  1.0000
  P   P3        1.0  0.25900  0.06840  0.59900  1.0000
  P   P4        1.0  0.74100  0.56800  0.90100  1.0000
