data_image0
_chemical_formula_structural       In12S14
_chemical_formula_sum              "In12 S14"
_cell_length_a       9.22078
_cell_length_b       3.93706
_cell_length_c       17.955
_cell_angle_alpha    90
_cell_angle_beta     108.227
_cell_angle_gamma    90

_space_group_name_H-M_alt    "P 1"
_space_group_IT_number       1

loop_
  _space_group_symop_operation_xyz
  'x, y, z'

loop_
  _atom_site_type_symbol
  _atom_site_label
  _atom_site_symmetry_multiplicity
  _atom_site_fract_x
  _atom_site_fract_y
  _atom_site_fract_z
  _atom_site_occupancy
  In  In1       1.0  0.69100  0.75000  0.04630  1.0000
  In  In2       1.0  0.05350  0.25000  0.12100  1.0000
  In  In3       1.0  0.37200  0.25000  0.18900  1.0000
  In  In4       1.0  0.80500  0.25000  0.27500  1.0000
  In  In5       1.0  0.41800  0.75000  0.39600  1.0000
  In  In6       1.0  0.14100  0.25000  0.46800  1.0000
  In  In7       1.0  0.85900  0.75000  0.53200  1.0000
  In  In8       1.0  0.58200  0.25000  0.60400  1.0000
  In  In9       1.0  0.19500  0.75000  0.72500  1.0000
  In  In10      1.0  0.62800  0.75000  0.81100  1.0000
  In  In11      1.0  0.94600  0.75000  0.87900  1.0000
  In  In12      1.0  0.30900  0.25000  0.95400  1.0000
  S   S1        1.0  0.17100  0.75000  0.00549  1.0000
  S   S2        1.0  0.53400  0.25000  0.09000  1.0000
  S   S3        1.0  0.92900  0.75000  0.17500  1.0000
  S   S4        1.0  0.51400  0.75000  0.27300  1.0000
  S   S5        1.0  0.23100  0.25000  0.34700  1.0000
  S   S6        1.0  0.94600  0.75000  0.41000  1.0000
  S   S7        1.0  0.63600  0.25000  0.46800  1.0000
  S   S8        1.0  0.36400  0.75000  0.53200  1.0000
  S   S9        1.0  0.05370  0.25000  0.59000  1.0000
  S   S10       1.0  0.76900  0.75000  0.65300  1.0000
  S   S11       1.0  0.48600  0.25000  0.72700  1.0000
  S   S12       1.0  0.07090  0.25000  0.82500  1.0000
  S   S13       1.0  0.46600  0.75000  0.91000  1.0000
  S   S14       1.0  0.82900  0.25000  0.99500  1.0000
