data_image0
_chemical_formula_structural       Al2Fe2S14Sm6
_chemical_formula_sum              "Al2 Fe2 S14 Sm6"
_cell_length_a       9.79451
_cell_length_b       9.84187
_cell_length_c       6.12564
_cell_angle_alpha    90
_cell_angle_beta     90
_cell_angle_gamma    119.981

_space_group_name_H-M_alt    "P 1"
_space_group_IT_number       1

loop_
  _space_group_symop_operation_xyz
  'x, y, z'

loop_
  _atom_site_type_symbol
  _atom_site_label
  _atom_site_symmetry_multiplicity
  _atom_site_fract_x
  _atom_site_fract_y
  _atom_site_fract_z
  _atom_site_occupancy
  Al  Al1       1.0  0.66600  0.33300  0.15600  1.0000
  Al  Al2       1.0  0.33400  0.66700  0.65600  1.0000
  Fe  Fe1       1.0  0.99800  0.99600  0.04470  1.0000
  Fe  Fe2       1.0  0.00166  0.00356  0.54500  1.0000
  S   S1        1.0  0.51900  0.09370  0.00509  1.0000
  S   S2        1.0  0.57300  0.48000  0.00535  1.0000
  S   S3        1.0  0.90700  0.42600  0.00557  1.0000
  S   S4        1.0  0.33400  0.66800  0.02050  1.0000
  S   S5        1.0  0.23500  0.13900  0.30800  1.0000
  S   S6        1.0  0.86200  0.09700  0.30900  1.0000
  S   S7        1.0  0.90300  0.76400  0.31000  1.0000
  S   S8        1.0  0.48100  0.90600  0.50500  1.0000
  S   S9        1.0  0.42700  0.52000  0.50500  1.0000
  S   S10       1.0  0.09350  0.57400  0.50600  1.0000
  S   S11       1.0  0.66600  0.33200  0.52000  1.0000
  S   S12       1.0  0.76500  0.86100  0.80800  1.0000
  S   S13       1.0  0.13800  0.90300  0.80900  1.0000
  S   S14       1.0  0.09650  0.23600  0.81000  1.0000
  Sm  Sm1       1.0  0.15100  0.37900  0.23200  1.0000
  Sm  Sm2       1.0  0.22600  0.85000  0.23400  1.0000
  Sm  Sm3       1.0  0.62600  0.77400  0.23400  1.0000
  Sm  Sm4       1.0  0.84900  0.62100  0.73200  1.0000
  Sm  Sm5       1.0  0.77400  0.15000  0.73400  1.0000
  Sm  Sm6       1.0  0.37400  0.22600  0.73400  1.0000
