data_image0
_chemical_formula_structural       La5MgO16Re3
_chemical_formula_sum              "La5 Mg1 O16 Re3"
_cell_length_a       5.62354
_cell_length_b       5.63263
_cell_length_c       10.0986
_cell_angle_alpha    93.4689
_cell_angle_beta     93.257
_cell_angle_gamma    91.1737

_space_group_name_H-M_alt    "P 1"
_space_group_IT_number       1

loop_
  _space_group_symop_operation_xyz
  'x, y, z'

loop_
  _atom_site_type_symbol
  _atom_site_label
  _atom_site_symmetry_multiplicity
  _atom_site_fract_x
  _atom_site_fract_y
  _atom_site_fract_z
  _atom_site_occupancy
  La  La1       1.0  0.51600  0.02690  0.20000  1.0000
  La  La2       1.0  0.03470  0.51000  0.20600  1.0000
  La  La3       1.0  0.00000  0.00000  0.50000  1.0000
  La  La4       1.0  0.96500  0.49000  0.79400  1.0000
  La  La5       1.0  0.48400  0.97300  0.80000  1.0000
  Mg  Mg1       1.0  0.50000  0.50000  0.00000  1.0000
  O   O1        1.0  0.29400  0.80100  0.00076  1.0000
  O   O2        1.0  0.80700  0.71700  0.03670  1.0000
  O   O3        1.0  0.07080  0.07570  0.18500  1.0000
  O   O4        1.0  0.45800  0.45400  0.19700  1.0000
  O   O5        1.0  0.77900  0.78200  0.32300  1.0000
  O   O6        1.0  0.29700  0.77400  0.36300  1.0000
  O   O7        1.0  0.78200  0.30200  0.36600  1.0000
  O   O8        1.0  0.30800  0.30300  0.43200  1.0000
  O   O9        1.0  0.69200  0.69700  0.56800  1.0000
  O   O10       1.0  0.21800  0.69800  0.63400  1.0000
  O   O11       1.0  0.70300  0.22600  0.63700  1.0000
  O   O12       1.0  0.22100  0.21800  0.67700  1.0000
  O   O13       1.0  0.54200  0.54600  0.80300  1.0000
  O   O14       1.0  0.92900  0.92400  0.81500  1.0000
  O   O15       1.0  0.19300  0.28300  0.96300  1.0000
  O   O16       1.0  0.70600  0.19900  0.99900  1.0000
  Re  Re1       1.0  0.00000  0.00000  0.00000  1.0000
  Re  Re2       1.0  0.55500  0.55400  0.39400  1.0000
  Re  Re3       1.0  0.44500  0.44600  0.60600  1.0000
