data_image0
_chemical_formula_structural       Ba8CuSi16
_chemical_formula_sum              "Ba8 Cu1 Si16"
_cell_length_a       9.22218
_cell_length_b       6.93359
_cell_length_c       11.6624
_cell_angle_alpha    92.4128
_cell_angle_beta     89.2202
_cell_angle_gamma    95.3885

_space_group_name_H-M_alt    "P 1"
_space_group_IT_number       1

loop_
  _space_group_symop_operation_xyz
  'x, y, z'

loop_
  _atom_site_type_symbol
  _atom_site_label
  _atom_site_symmetry_multiplicity
  _atom_site_fract_x
  _atom_site_fract_y
  _atom_site_fract_z
  _atom_site_occupancy
  Ba  Ba1       1.0  0.79500  0.25200  0.09880  1.0000
  Ba  Ba2       1.0  0.50500  0.74200  0.20300  1.0000
  Ba  Ba3       1.0  0.98800  0.75000  0.30700  1.0000
  Ba  Ba4       1.0  0.34300  0.25900  0.40700  1.0000
  Ba  Ba5       1.0  0.64600  0.79700  0.58400  1.0000
  Ba  Ba6       1.0  0.99800  0.24000  0.69000  1.0000
  Ba  Ba7       1.0  0.47900  0.32800  0.79200  1.0000
  Ba  Ba8       1.0  0.23000  0.72800  0.90000  1.0000
  Cu  Cu1       1.0  0.02430  0.97500  0.02220  1.0000
  Si  Si1       1.0  0.83000  0.72500  0.05010  1.0000
  Si  Si2       1.0  0.41300  0.26800  0.08710  1.0000
  Si  Si3       1.0  0.19700  0.42400  0.15600  1.0000
  Si  Si4       1.0  0.20400  0.07310  0.15900  1.0000
  Si  Si5       1.0  0.68100  0.44100  0.35400  1.0000
  Si  Si6       1.0  0.78300  0.14300  0.38900  1.0000
  Si  Si7       1.0  0.29700  0.76900  0.45700  1.0000
  Si  Si8       1.0  0.67600  0.30700  0.54000  1.0000
  Si  Si9       1.0  0.07970  0.76800  0.58800  1.0000
  Si  Si10      1.0  0.28700  0.59600  0.63100  1.0000
  Si  Si11      1.0  0.30600  0.95000  0.64000  1.0000
  Si  Si12      1.0  0.70800  0.05510  0.82700  1.0000
  Si  Si13      1.0  0.89900  0.86800  0.85400  1.0000
  Si  Si14      1.0  0.81500  0.53400  0.86900  1.0000
  Si  Si15      1.0  0.62900  0.76000  0.92100  1.0000
  Si  Si16      1.0  0.18800  0.24700  0.97300  1.0000
