data_image0
_chemical_formula_structural       Cu4Ga2O14Sr4Tb2
_chemical_formula_sum              "Cu4 Ga2 O14 Sr4 Tb2"
_cell_length_a       5.36458
_cell_length_b       5.46508
_cell_length_c       12.0657
_cell_angle_alpha    103.089
_cell_angle_beta     102.845
_cell_angle_gamma    90

_space_group_name_H-M_alt    "P 1"
_space_group_IT_number       1

loop_
  _space_group_symop_operation_xyz
  'x, y, z'

loop_
  _atom_site_type_symbol
  _atom_site_label
  _atom_site_symmetry_multiplicity
  _atom_site_fract_x
  _atom_site_fract_y
  _atom_site_fract_z
  _atom_site_occupancy
  Cu  Cu1       1.0  0.57200  0.07340  0.14500  1.0000
  Cu  Cu2       1.0  0.07180  0.57200  0.14500  1.0000
  Cu  Cu3       1.0  0.92600  0.42800  0.85500  1.0000
  Cu  Cu4       1.0  0.42600  0.92700  0.85500  1.0000
  Ga  Ga1       1.0  0.78800  0.31800  0.50000  1.0000
  Ga  Ga2       1.0  0.28800  0.68200  0.50000  1.0000
  O   O1        1.0  0.31200  0.81100  0.12400  1.0000
  O   O2        1.0  0.81200  0.81300  0.12400  1.0000
  O   O3        1.0  0.81400  0.31500  0.13000  1.0000
  O   O4        1.0  0.31400  0.31500  0.13000  1.0000
  O   O5        1.0  0.64800  0.13200  0.35100  1.0000
  O   O6        1.0  0.14800  0.72000  0.35100  1.0000
  O   O7        1.0  0.14100  0.36400  0.50000  1.0000
  O   O8        1.0  0.64100  0.63600  0.50000  1.0000
  O   O9        1.0  0.79600  0.28000  0.64900  1.0000
  O   O10       1.0  0.29600  0.86800  0.64900  1.0000
  O   O11       1.0  0.18400  0.68500  0.87000  1.0000
  O   O12       1.0  0.68400  0.68500  0.87000  1.0000
  O   O13       1.0  0.68800  0.18700  0.87600  1.0000
  O   O14       1.0  0.18800  0.18900  0.87600  1.0000
  Sr  Sr1       1.0  0.15100  0.13600  0.30200  1.0000
  Sr  Sr2       1.0  0.65100  0.66500  0.30200  1.0000
  Sr  Sr3       1.0  0.35000  0.33500  0.69800  1.0000
  Sr  Sr4       1.0  0.85000  0.86400  0.69800  1.0000
  Tb  Tb1       1.0  0.00000  0.00000  0.00000  1.0000
  Tb  Tb2       1.0  0.50000  0.50000  0.00000  1.0000
