data_image0
_chemical_formula_structural       Fe4Mo4O16
_chemical_formula_sum              "Fe4 Mo4 O16"
_cell_length_a       6.66615
_cell_length_b       6.66615
_cell_length_c       7.62406
_cell_angle_alpha    107.531
_cell_angle_beta     72.469
_cell_angle_gamma    95.2537

_space_group_name_H-M_alt    "P 1"
_space_group_IT_number       1

loop_
  _space_group_symop_operation_xyz
  'x, y, z'

loop_
  _atom_site_type_symbol
  _atom_site_label
  _atom_site_symmetry_multiplicity
  _atom_site_fract_x
  _atom_site_fract_y
  _atom_site_fract_z
  _atom_site_occupancy
  Fe  Fe1       1.0  0.69300  0.30700  0.15400  1.0000
  Fe  Fe2       1.0  0.30700  0.30700  0.50000  1.0000
  Fe  Fe3       1.0  0.69300  0.69300  0.50000  1.0000
  Fe  Fe4       1.0  0.30700  0.69300  0.84600  1.0000
  Mo  Mo1       1.0  0.28400  0.28400  0.00000  1.0000
  Mo  Mo2       1.0  0.71600  0.71600  0.00000  1.0000
  Mo  Mo3       1.0  0.28200  0.71800  0.36200  1.0000
  Mo  Mo4       1.0  0.71800  0.28200  0.63800  1.0000
  O   O1        1.0  0.01150  0.31700  0.07210  1.0000
  O   O2        1.0  0.68300  0.98900  0.07210  1.0000
  O   O3        1.0  0.34900  0.65100  0.08430  1.0000
  O   O4        1.0  0.34000  0.35700  0.24300  1.0000
  O   O5        1.0  0.64300  0.66000  0.24300  1.0000
  O   O6        1.0  0.00946  0.68400  0.42100  1.0000
  O   O7        1.0  0.31600  0.99100  0.42100  1.0000
  O   O8        1.0  0.65400  0.34600  0.43500  1.0000
  O   O9        1.0  0.34600  0.65400  0.56500  1.0000
  O   O10       1.0  0.68400  0.00946  0.57900  1.0000
  O   O11       1.0  0.99100  0.31600  0.57900  1.0000
  O   O12       1.0  0.35700  0.34000  0.75700  1.0000
  O   O13       1.0  0.66000  0.64300  0.75700  1.0000
  O   O14       1.0  0.65100  0.34900  0.91600  1.0000
  O   O15       1.0  0.31700  0.01150  0.92800  1.0000
  O   O16       1.0  0.98900  0.68300  0.92800  1.0000
