data_image0
_chemical_formula_structural       C12Ho8Rh5
_chemical_formula_sum              "C12 Ho8 Rh5"
_cell_length_a       3.52642
_cell_length_b       7.35972
_cell_length_c       14.0756
_cell_angle_alpha    94.1541
_cell_angle_beta     97.1962
_cell_angle_gamma    90

_space_group_name_H-M_alt    "P 1"
_space_group_IT_number       1

loop_
  _space_group_symop_operation_xyz
  'x, y, z'

loop_
  _atom_site_type_symbol
  _atom_site_label
  _atom_site_symmetry_multiplicity
  _atom_site_fract_x
  _atom_site_fract_y
  _atom_site_fract_z
  _atom_site_occupancy
  C   C1        1.0  0.02270  0.75400  0.04540  1.0000
  C   C2        1.0  0.04760  0.61200  0.09520  1.0000
  C   C3        1.0  0.15900  0.87300  0.31700  1.0000
  C   C4        1.0  0.16800  0.34600  0.33700  1.0000
  C   C5        1.0  0.20700  0.86800  0.41400  1.0000
  C   C6        1.0  0.21700  0.36500  0.43300  1.0000
  C   C7        1.0  0.78300  0.63500  0.56700  1.0000
  C   C8        1.0  0.79300  0.13200  0.58600  1.0000
  C   C9        1.0  0.83200  0.65400  0.66300  1.0000
  C   C10       1.0  0.84100  0.12700  0.68300  1.0000
  C   C11       1.0  0.95200  0.38800  0.90500  1.0000
  C   C12       1.0  0.97700  0.24600  0.95500  1.0000
  Ho  Ho1       1.0  0.54700  0.29700  0.09370  1.0000
  Ho  Ho2       1.0  0.58800  0.82700  0.17600  1.0000
  Ho  Ho3       1.0  0.70000  0.60900  0.40000  1.0000
  Ho  Ho4       1.0  0.70700  0.11600  0.41300  1.0000
  Ho  Ho5       1.0  0.29300  0.88400  0.58700  1.0000
  Ho  Ho6       1.0  0.30000  0.39100  0.60000  1.0000
  Ho  Ho7       1.0  0.41200  0.17300  0.82400  1.0000
  Ho  Ho8       1.0  0.45300  0.70300  0.90600  1.0000
  Rh  Rh1       1.0  0.00000  0.00000  0.00000  1.0000
  Rh  Rh2       1.0  0.11000  0.49500  0.22100  1.0000
  Rh  Rh3       1.0  0.11600  0.12700  0.23200  1.0000
  Rh  Rh4       1.0  0.88400  0.87300  0.76800  1.0000
  Rh  Rh5       1.0  0.89000  0.50500  0.77900  1.0000
