data_image0
_chemical_formula_structural       Cl18LuNb6
_chemical_formula_sum              "Cl18 Lu1 Nb6"
_cell_length_a       10.0005
_cell_length_b       10.0005
_cell_length_c       10.0005
_cell_angle_alpha    55.2963
_cell_angle_beta     55.2963
_cell_angle_gamma    55.2963

_space_group_name_H-M_alt    "P 1"
_space_group_IT_number       1

loop_
  _space_group_symop_operation_xyz
  'x, y, z'

loop_
  _atom_site_type_symbol
  _atom_site_label
  _atom_site_symmetry_multiplicity
  _atom_site_fract_x
  _atom_site_fract_y
  _atom_site_fract_z
  _atom_site_occupancy
  Cl  Cl1       1.0  0.30300  0.84800  0.02590  1.0000
  Cl  Cl2       1.0  0.63900  0.77900  0.07960  1.0000
  Cl  Cl3       1.0  0.97400  0.69700  0.15200  1.0000
  Cl  Cl4       1.0  0.57500  0.43800  0.15500  1.0000
  Cl  Cl5       1.0  0.92000  0.36100  0.22100  1.0000
  Cl  Cl6       1.0  0.84800  0.02590  0.30300  1.0000
  Cl  Cl7       1.0  0.22100  0.92000  0.36100  1.0000
  Cl  Cl8       1.0  0.56200  0.84500  0.42500  1.0000
  Cl  Cl9       1.0  0.15500  0.57500  0.43800  1.0000
  Cl  Cl10      1.0  0.84500  0.42500  0.56200  1.0000
  Cl  Cl11      1.0  0.43800  0.15500  0.57500  1.0000
  Cl  Cl12      1.0  0.77900  0.07960  0.63900  1.0000
  Cl  Cl13      1.0  0.15200  0.97400  0.69700  1.0000
  Cl  Cl14      1.0  0.07960  0.63900  0.77900  1.0000
  Cl  Cl15      1.0  0.42500  0.56200  0.84500  1.0000
  Cl  Cl16      1.0  0.02590  0.30300  0.84800  1.0000
  Cl  Cl17      1.0  0.36100  0.22100  0.92000  1.0000
  Cl  Cl18      1.0  0.69700  0.15200  0.97400  1.0000
  Lu  Lu1       1.0  0.00000  0.00000  0.00000  1.0000
  Nb  Nb1       1.0  0.41000  0.65400  0.29300  1.0000
  Nb  Nb2       1.0  0.70700  0.59000  0.34600  1.0000
  Nb  Nb3       1.0  0.65400  0.29300  0.41000  1.0000
  Nb  Nb4       1.0  0.34600  0.70700  0.59000  1.0000
  Nb  Nb5       1.0  0.29300  0.41000  0.65400  1.0000
  Nb  Nb6       1.0  0.59000  0.34600  0.70700  1.0000
