data_image0
_chemical_formula_structural       O18Pr2Ta6
_chemical_formula_sum              "O18 Pr2 Ta6"
_cell_length_a       5.41253
_cell_length_b       7.55745
_cell_length_c       8.19559
_cell_angle_alpha    90
_cell_angle_beta     92.3257
_cell_angle_gamma    90

_space_group_name_H-M_alt    "P 1"
_space_group_IT_number       1

loop_
  _space_group_symop_operation_xyz
  'x, y, z'

loop_
  _atom_site_type_symbol
  _atom_site_label
  _atom_site_symmetry_multiplicity
  _atom_site_fract_x
  _atom_site_fract_y
  _atom_site_fract_z
  _atom_site_occupancy
  O   O1        1.0  0.91000  0.25000  0.01820  1.0000
  O   O2        1.0  0.32200  0.05130  0.11800  1.0000
  O   O3        1.0  0.32200  0.44900  0.11800  1.0000
  O   O4        1.0  0.85000  0.55700  0.21500  1.0000
  O   O5        1.0  0.85000  0.94300  0.21500  1.0000
  O   O6        1.0  0.44100  0.75000  0.31000  1.0000
  O   O7        1.0  0.65100  0.25000  0.33800  1.0000
  O   O8        1.0  0.26600  0.03910  0.46600  1.0000
  O   O9        1.0  0.26600  0.46100  0.46600  1.0000
  O   O10       1.0  0.73400  0.53900  0.53400  1.0000
  O   O11       1.0  0.73400  0.96100  0.53400  1.0000
  O   O12       1.0  0.34900  0.75000  0.66200  1.0000
  O   O13       1.0  0.55900  0.25000  0.69000  1.0000
  O   O14       1.0  0.15000  0.05730  0.78500  1.0000
  O   O15       1.0  0.15000  0.44300  0.78500  1.0000
  O   O16       1.0  0.67800  0.55100  0.88200  1.0000
  O   O17       1.0  0.67800  0.94900  0.88200  1.0000
  O   O18       1.0  0.09010  0.75000  0.98200  1.0000
  Pr  Pr1       1.0  0.03310  0.75000  0.43600  1.0000
  Pr  Pr2       1.0  0.96700  0.25000  0.56400  1.0000
  Ta  Ta1       1.0  0.00000  0.00000  0.00000  1.0000
  Ta  Ta2       1.0  0.00000  0.50000  0.00000  1.0000
  Ta  Ta3       1.0  0.52700  0.00713  0.30000  1.0000
  Ta  Ta4       1.0  0.52700  0.49300  0.30000  1.0000
  Ta  Ta5       1.0  0.47300  0.50700  0.70000  1.0000
  Ta  Ta6       1.0  0.47300  0.99300  0.70000  1.0000
