data_image0
_chemical_formula_structural       Ag6Bi2S12Sb4
_chemical_formula_sum              "Ag6 Bi2 S12 Sb4"
_cell_length_a       7.86674
_cell_length_b       8.34496
_cell_length_c       9.01532
_cell_angle_alpha    100.245
_cell_angle_beta     104.303
_cell_angle_gamma    90.0833

_space_group_name_H-M_alt    "P 1"
_space_group_IT_number       1

loop_
  _space_group_symop_operation_xyz
  'x, y, z'

loop_
  _atom_site_type_symbol
  _atom_site_label
  _atom_site_symmetry_multiplicity
  _atom_site_fract_x
  _atom_site_fract_y
  _atom_site_fract_z
  _atom_site_occupancy
  Ag  Ag1       1.0  0.11000  0.42400  0.14400  1.0000
  Ag  Ag2       1.0  0.70000  0.92100  0.15000  1.0000
  Ag  Ag3       1.0  0.00494  0.74500  0.50000  1.0000
  Ag  Ag4       1.0  0.99500  0.25500  0.50000  1.0000
  Ag  Ag5       1.0  0.30000  0.07920  0.85000  1.0000
  Ag  Ag6       1.0  0.89000  0.57600  0.85600  1.0000
  Bi  Bi1       1.0  0.49600  0.24800  0.49500  1.0000
  Bi  Bi2       1.0  0.50400  0.75200  0.50500  1.0000
  S   S1        1.0  0.37300  0.24900  0.16800  1.0000
  S   S2        1.0  0.44200  0.75900  0.18200  1.0000
  S   S3        1.0  0.97400  0.69600  0.20100  1.0000
  S   S4        1.0  0.85800  0.19900  0.20100  1.0000
  S   S5        1.0  0.73200  0.51700  0.46000  1.0000
  S   S6        1.0  0.24000  0.01760  0.46100  1.0000
  S   S7        1.0  0.76000  0.98200  0.53900  1.0000
  S   S8        1.0  0.26800  0.48300  0.54000  1.0000
  S   S9        1.0  0.14200  0.80100  0.79900  1.0000
  S   S10       1.0  0.02650  0.30400  0.79900  1.0000
  S   S11       1.0  0.55800  0.24100  0.81800  1.0000
  S   S12       1.0  0.62700  0.75100  0.83200  1.0000
  Sb  Sb1       1.0  0.64000  0.41500  0.16600  1.0000
  Sb  Sb2       1.0  0.16900  0.91700  0.16900  1.0000
  Sb  Sb3       1.0  0.83100  0.08330  0.83100  1.0000
  Sb  Sb4       1.0  0.36000  0.58500  0.83400  1.0000
