data_image0
_chemical_formula_structural       Dy2In16Pt7
_chemical_formula_sum              "Dy2 In16 Pt7"
_cell_length_a       4.43331
_cell_length_b       11.8232
_cell_length_c       11.8232
_cell_angle_alpha    62.471
_cell_angle_beta     90
_cell_angle_gamma    90

_space_group_name_H-M_alt    "P 1"
_space_group_IT_number       1

loop_
  _space_group_symop_operation_xyz
  'x, y, z'

loop_
  _atom_site_type_symbol
  _atom_site_label
  _atom_site_symmetry_multiplicity
  _atom_site_fract_x
  _atom_site_fract_y
  _atom_site_fract_z
  _atom_site_occupancy
  Dy  Dy1       1.0  0.50000  0.83000  0.17000  1.0000
  Dy  Dy2       1.0  0.50000  0.17000  0.83000  1.0000
  In  In1       1.0  0.50000  0.28700  0.03850  1.0000
  In  In2       1.0  0.00000  0.07280  0.07280  1.0000
  In  In3       1.0  0.00000  0.41300  0.14100  1.0000
  In  In4       1.0  0.50000  0.51800  0.25600  1.0000
  In  In5       1.0  0.50000  0.03850  0.28700  1.0000
  In  In6       1.0  0.00000  0.63200  0.36800  1.0000
  In  In7       1.0  0.00000  0.14100  0.41300  1.0000
  In  In8       1.0  0.50000  0.74400  0.48200  1.0000
  In  In9       1.0  0.50000  0.25600  0.51800  1.0000
  In  In10      1.0  0.00000  0.85900  0.58700  1.0000
  In  In11      1.0  0.00000  0.36800  0.63200  1.0000
  In  In12      1.0  0.50000  0.96200  0.71300  1.0000
  In  In13      1.0  0.50000  0.48200  0.74400  1.0000
  In  In14      1.0  0.00000  0.58700  0.85900  1.0000
  In  In15      1.0  0.00000  0.92700  0.92700  1.0000
  In  In16      1.0  0.50000  0.71300  0.96200  1.0000
  Pt  Pt1       1.0  0.00000  0.66900  0.11600  1.0000
  Pt  Pt2       1.0  0.50000  0.27600  0.27600  1.0000
  Pt  Pt3       1.0  0.00000  0.88400  0.33100  1.0000
  Pt  Pt4       1.0  0.50000  0.50000  0.50000  1.0000
  Pt  Pt5       1.0  0.00000  0.11600  0.66900  1.0000
  Pt  Pt6       1.0  0.50000  0.72400  0.72400  1.0000
  Pt  Pt7       1.0  0.00000  0.33100  0.88400  1.0000
