data_image0
_chemical_formula_structural       O18P4U4
_chemical_formula_sum              "O18 P4 U4"
_cell_length_a       5.75041
_cell_length_b       5.75041
_cell_length_c       12.7721
_cell_angle_alpha    90
_cell_angle_beta     90
_cell_angle_gamma    103.971

_space_group_name_H-M_alt    "P 1"
_space_group_IT_number       1

loop_
  _space_group_symop_operation_xyz
  'x, y, z'

loop_
  _atom_site_type_symbol
  _atom_site_label
  _atom_site_symmetry_multiplicity
  _atom_site_fract_x
  _atom_site_fract_y
  _atom_site_fract_z
  _atom_site_occupancy
  O   O1        1.0  0.00000  0.00000  0.00000  1.0000
  O   O2        1.0  0.14100  0.51900  0.08780  1.0000
  O   O3        1.0  0.48100  0.85900  0.08780  1.0000
  O   O4        1.0  0.55300  0.44700  0.12300  1.0000
  O   O5        1.0  0.85800  0.14200  0.23900  1.0000
  O   O6        1.0  0.35800  0.64200  0.26100  1.0000
  O   O7        1.0  0.05330  0.94700  0.37700  1.0000
  O   O8        1.0  0.64100  0.01910  0.41200  1.0000
  O   O9        1.0  0.98100  0.35900  0.41200  1.0000
  O   O10       1.0  0.50000  0.50000  0.50000  1.0000
  O   O11       1.0  0.01910  0.64100  0.58800  1.0000
  O   O12       1.0  0.35900  0.98100  0.58800  1.0000
  O   O13       1.0  0.94700  0.05330  0.62300  1.0000
  O   O14       1.0  0.64200  0.35800  0.73900  1.0000
  O   O15       1.0  0.14200  0.85800  0.76100  1.0000
  O   O16       1.0  0.44700  0.55300  0.87700  1.0000
  O   O17       1.0  0.51900  0.14100  0.91200  1.0000
  O   O18       1.0  0.85900  0.48100  0.91200  1.0000
  P   P1        1.0  0.38700  0.61300  0.14400  1.0000
  P   P2        1.0  0.88700  0.11300  0.35600  1.0000
  P   P3        1.0  0.11300  0.88700  0.64400  1.0000
  P   P4        1.0  0.61300  0.38700  0.85600  1.0000
  U   U1        1.0  0.79000  0.21000  0.06920  1.0000
  U   U2        1.0  0.29000  0.71000  0.43100  1.0000
  U   U3        1.0  0.71000  0.29000  0.56900  1.0000
  U   U4        1.0  0.21000  0.79000  0.93100  1.0000
