data_image0
_chemical_formula_structural       K4S14Sb8
_chemical_formula_sum              "K4 S14 Sb8"
_cell_length_a       6.56114
_cell_length_b       6.56114
_cell_length_c       17.7472
_cell_angle_alpha    93.7024
_cell_angle_beta     93.7024
_cell_angle_gamma    75.3521

_space_group_name_H-M_alt    "P 1"
_space_group_IT_number       1

loop_
  _space_group_symop_operation_xyz
  'x, y, z'

loop_
  _atom_site_type_symbol
  _atom_site_label
  _atom_site_symmetry_multiplicity
  _atom_site_fract_x
  _atom_site_fract_y
  _atom_site_fract_z
  _atom_site_occupancy
  K   K1        1.0  0.78600  0.55100  0.20500  1.0000
  K   K2        1.0  0.44900  0.21400  0.29500  1.0000
  K   K3        1.0  0.55100  0.78600  0.70500  1.0000
  K   K4        1.0  0.21400  0.44900  0.79500  1.0000
  S   S1        1.0  0.73100  0.31800  0.03900  1.0000
  S   S2        1.0  0.47800  0.97500  0.12700  1.0000
  S   S3        1.0  0.26500  0.51100  0.15600  1.0000
  S   S4        1.0  0.99500  0.00494  0.25000  1.0000
  S   S5        1.0  0.48900  0.73500  0.34400  1.0000
  S   S6        1.0  0.02520  0.52200  0.37300  1.0000
  S   S7        1.0  0.68200  0.26900  0.46100  1.0000
  S   S8        1.0  0.31800  0.73100  0.53900  1.0000
  S   S9        1.0  0.97500  0.47800  0.62700  1.0000
  S   S10       1.0  0.51100  0.26500  0.65600  1.0000
  S   S11       1.0  0.00494  0.99500  0.75000  1.0000
  S   S12       1.0  0.73500  0.48900  0.84400  1.0000
  S   S13       1.0  0.52200  0.02520  0.87300  1.0000
  S   S14       1.0  0.26900  0.68200  0.96100  1.0000
  Sb  Sb1       1.0  0.36200  0.30300  0.03250  1.0000
  Sb  Sb2       1.0  0.13600  0.88200  0.11800  1.0000
  Sb  Sb3       1.0  0.11800  0.86400  0.38200  1.0000
  Sb  Sb4       1.0  0.69700  0.63800  0.46800  1.0000
  Sb  Sb5       1.0  0.30300  0.36200  0.53200  1.0000
  Sb  Sb6       1.0  0.88200  0.13600  0.61800  1.0000
  Sb  Sb7       1.0  0.86400  0.11800  0.88200  1.0000
  Sb  Sb8       1.0  0.63800  0.69700  0.96800  1.0000
