data_image0
_chemical_formula_structural       C12Rh5Tm8
_chemical_formula_sum              "C12 Rh5 Tm8"
_cell_length_a       3.46721
_cell_length_b       7.30631
_cell_length_c       14.0204
_cell_angle_alpha    94.4841
_cell_angle_beta     97.1027
_cell_angle_gamma    90

_space_group_name_H-M_alt    "P 1"
_space_group_IT_number       1

loop_
  _space_group_symop_operation_xyz
  'x, y, z'

loop_
  _atom_site_type_symbol
  _atom_site_label
  _atom_site_symmetry_multiplicity
  _atom_site_fract_x
  _atom_site_fract_y
  _atom_site_fract_z
  _atom_site_occupancy
  C   C1        1.0  0.02270  0.75300  0.04530  1.0000
  C   C2        1.0  0.04750  0.61000  0.09500  1.0000
  C   C3        1.0  0.15800  0.87000  0.31700  1.0000
  C   C4        1.0  0.16900  0.34600  0.33700  1.0000
  C   C5        1.0  0.20700  0.86800  0.41500  1.0000
  C   C6        1.0  0.21700  0.36600  0.43400  1.0000
  C   C7        1.0  0.78300  0.63400  0.56600  1.0000
  C   C8        1.0  0.79300  0.13200  0.58500  1.0000
  C   C9        1.0  0.83100  0.65400  0.66300  1.0000
  C   C10       1.0  0.84200  0.13000  0.68300  1.0000
  C   C11       1.0  0.95200  0.39000  0.90500  1.0000
  C   C12       1.0  0.97700  0.24700  0.95500  1.0000
  Rh  Rh1       1.0  0.00000  0.00000  0.00000  1.0000
  Rh  Rh2       1.0  0.11100  0.49700  0.22200  1.0000
  Rh  Rh3       1.0  0.11600  0.12700  0.23200  1.0000
  Rh  Rh4       1.0  0.88400  0.87300  0.76800  1.0000
  Rh  Rh5       1.0  0.88900  0.50300  0.77800  1.0000
  Tm  Tm1       1.0  0.54700  0.29700  0.09340  1.0000
  Tm  Tm2       1.0  0.58800  0.82700  0.17600  1.0000
  Tm  Tm3       1.0  0.70000  0.60900  0.40000  1.0000
  Tm  Tm4       1.0  0.70700  0.11500  0.41400  1.0000
  Tm  Tm5       1.0  0.29300  0.88500  0.58600  1.0000
  Tm  Tm6       1.0  0.30000  0.39100  0.60000  1.0000
  Tm  Tm7       1.0  0.41200  0.17300  0.82400  1.0000
  Tm  Tm8       1.0  0.45300  0.70300  0.90700  1.0000
