data_image0
_chemical_formula_structural       Cu4Ga2O14Pr2Sr4
_chemical_formula_sum              "Cu4 Ga2 O14 Pr2 Sr4"
_cell_length_a       5.41888
_cell_length_b       5.53702
_cell_length_c       12.1481
_cell_angle_alpha    103.173
_cell_angle_beta     102.887
_cell_angle_gamma    90

_space_group_name_H-M_alt    "P 1"
_space_group_IT_number       1

loop_
  _space_group_symop_operation_xyz
  'x, y, z'

loop_
  _atom_site_type_symbol
  _atom_site_label
  _atom_site_symmetry_multiplicity
  _atom_site_fract_x
  _atom_site_fract_y
  _atom_site_fract_z
  _atom_site_occupancy
  Cu  Cu1       1.0  0.57600  0.07850  0.15400  1.0000
  Cu  Cu2       1.0  0.07560  0.57600  0.15400  1.0000
  Cu  Cu3       1.0  0.92100  0.42400  0.84600  1.0000
  Cu  Cu4       1.0  0.42100  0.92200  0.84600  1.0000
  Ga  Ga1       1.0  0.78500  0.32000  0.50000  1.0000
  Ga  Ga2       1.0  0.28500  0.68000  0.50000  1.0000
  O   O1        1.0  0.31600  0.81500  0.13300  1.0000
  O   O2        1.0  0.81600  0.81800  0.13300  1.0000
  O   O3        1.0  0.81800  0.31800  0.13800  1.0000
  O   O4        1.0  0.31800  0.32000  0.13800  1.0000
  O   O5        1.0  0.64600  0.13000  0.35400  1.0000
  O   O6        1.0  0.14600  0.72400  0.35400  1.0000
  O   O7        1.0  0.13500  0.36900  0.50000  1.0000
  O   O8        1.0  0.63500  0.63100  0.50000  1.0000
  O   O9        1.0  0.79200  0.27600  0.64600  1.0000
  O   O10       1.0  0.29200  0.87000  0.64600  1.0000
  O   O11       1.0  0.18000  0.68000  0.86200  1.0000
  O   O12       1.0  0.68000  0.68200  0.86200  1.0000
  O   O13       1.0  0.68300  0.18200  0.86700  1.0000
  O   O14       1.0  0.18300  0.18500  0.86700  1.0000
  Pr  Pr1       1.0  0.99900  0.00000  0.00000  1.0000
  Pr  Pr2       1.0  0.49900  0.50000  0.00000  1.0000
  Sr  Sr1       1.0  0.15400  0.13500  0.30500  1.0000
  Sr  Sr2       1.0  0.65400  0.67000  0.30500  1.0000
  Sr  Sr3       1.0  0.34900  0.33000  0.69500  1.0000
  Sr  Sr4       1.0  0.84900  0.86500  0.69500  1.0000
