data_image0
_chemical_formula_structural       Ce2O18Ta6
_chemical_formula_sum              "Ce2 O18 Ta6"
_cell_length_a       6.62138
_cell_length_b       7.30208
_cell_length_c       7.30208
_cell_angle_alpha    63.2076
_cell_angle_beta     92.8623
_cell_angle_gamma    92.8623

_space_group_name_H-M_alt    "P 1"
_space_group_IT_number       1

loop_
  _space_group_symop_operation_xyz
  'x, y, z'

loop_
  _atom_site_type_symbol
  _atom_site_label
  _atom_site_symmetry_multiplicity
  _atom_site_fract_x
  _atom_site_fract_y
  _atom_site_fract_z
  _atom_site_occupancy
  Ce  Ce1       1.0  0.95200  0.26000  0.26000  1.0000
  Ce  Ce2       1.0  0.04770  0.74000  0.74000  1.0000
  O   O1        1.0  0.79600  0.06860  0.06860  1.0000
  O   O2        1.0  0.22400  0.50800  0.08160  1.0000
  O   O3        1.0  0.54800  0.69400  0.12300  1.0000
  O   O4        1.0  0.93400  0.64000  0.17500  1.0000
  O   O5        1.0  0.57700  0.27100  0.27100  1.0000
  O   O6        1.0  0.45200  0.87700  0.30600  1.0000
  O   O7        1.0  0.06560  0.82500  0.36000  1.0000
  O   O8        1.0  0.27400  0.46400  0.46400  1.0000
  O   O9        1.0  0.77600  0.91800  0.49200  1.0000
  O   O10       1.0  0.22400  0.08160  0.50800  1.0000
  O   O11       1.0  0.72600  0.53600  0.53600  1.0000
  O   O12       1.0  0.93400  0.17500  0.64000  1.0000
  O   O13       1.0  0.54800  0.12300  0.69400  1.0000
  O   O14       1.0  0.42300  0.72900  0.72900  1.0000
  O   O15       1.0  0.06560  0.36000  0.82500  1.0000
  O   O16       1.0  0.45200  0.30600  0.87700  1.0000
  O   O17       1.0  0.77600  0.49200  0.91800  1.0000
  O   O18       1.0  0.20400  0.93100  0.93100  1.0000
  Ta  Ta1       1.0  0.50000  0.50000  0.00000  1.0000
  Ta  Ta2       1.0  0.23800  0.71700  0.21800  1.0000
  Ta  Ta3       1.0  0.76200  0.78200  0.28300  1.0000
  Ta  Ta4       1.0  0.50000  0.00000  0.50000  1.0000
  Ta  Ta5       1.0  0.23800  0.21800  0.71700  1.0000
  Ta  Ta6       1.0  0.76200  0.28300  0.78200  1.0000
