data_image0
_chemical_formula_structural       CrS17U8
_chemical_formula_sum              "Cr1 S17 U8"
_cell_length_a       7.75195
_cell_length_b       7.75195
_cell_length_c       10.2888
_cell_angle_alpha    99.5011
_cell_angle_beta     99.5011
_cell_angle_gamma    64.63

_space_group_name_H-M_alt    "P 1"
_space_group_IT_number       1

loop_
  _space_group_symop_operation_xyz
  'x, y, z'

loop_
  _atom_site_type_symbol
  _atom_site_label
  _atom_site_symmetry_multiplicity
  _atom_site_fract_x
  _atom_site_fract_y
  _atom_site_fract_z
  _atom_site_occupancy
  Cr  Cr1       1.0  0.00000  0.00000  0.00000  1.0000
  S   S1        1.0  0.67800  0.05520  0.02530  1.0000
  S   S2        1.0  0.05520  0.67800  0.02530  1.0000
  S   S3        1.0  0.52200  0.52200  0.16700  1.0000
  S   S4        1.0  0.05920  0.05920  0.22600  1.0000
  S   S5        1.0  0.30100  0.30100  0.24200  1.0000
  S   S6        1.0  0.78600  0.78600  0.27700  1.0000
  S   S7        1.0  0.81900  0.43400  0.46500  1.0000
  S   S8        1.0  0.43400  0.81900  0.46500  1.0000
  S   S9        1.0  0.00000  0.00000  0.50000  1.0000
  S   S10       1.0  0.56600  0.18100  0.53500  1.0000
  S   S11       1.0  0.18100  0.56600  0.53500  1.0000
  S   S12       1.0  0.21400  0.21400  0.72300  1.0000
  S   S13       1.0  0.69900  0.69900  0.75800  1.0000
  S   S14       1.0  0.94100  0.94100  0.77400  1.0000
  S   S15       1.0  0.47800  0.47800  0.83300  1.0000
  S   S16       1.0  0.94500  0.32200  0.97500  1.0000
  S   S17       1.0  0.32200  0.94500  0.97500  1.0000
  U   U1        1.0  0.68100  0.68100  0.01720  1.0000
  U   U2        1.0  0.69900  0.18200  0.29800  1.0000
  U   U3        1.0  0.18200  0.69900  0.29800  1.0000
  U   U4        1.0  0.20400  0.20400  0.45500  1.0000
  U   U5        1.0  0.79600  0.79600  0.54500  1.0000
  U   U6        1.0  0.81800  0.30100  0.70200  1.0000
  U   U7        1.0  0.30100  0.81800  0.70200  1.0000
  U   U8        1.0  0.31900  0.31900  0.98300  1.0000
