data_image0
_chemical_formula_structural       Ba2Co8In2O14
_chemical_formula_sum              "Ba2 Co8 In2 O14"
_cell_length_a       6.21878
_cell_length_b       6.21878
_cell_length_c       10.1668
_cell_angle_alpha    90
_cell_angle_beta     90
_cell_angle_gamma    120

_space_group_name_H-M_alt    "P 1"
_space_group_IT_number       1

loop_
  _space_group_symop_operation_xyz
  'x, y, z'

loop_
  _atom_site_type_symbol
  _atom_site_label
  _atom_site_symmetry_multiplicity
  _atom_site_fract_x
  _atom_site_fract_y
  _atom_site_fract_z
  _atom_site_occupancy
  Ba  Ba1       1.0  0.66700  0.33300  0.49900  1.0000
  Ba  Ba2       1.0  0.33300  0.66700  0.99900  1.0000
  Co  Co1       1.0  0.34100  0.17100  0.18600  1.0000
  Co  Co2       1.0  0.82900  0.17100  0.18600  1.0000
  Co  Co3       1.0  0.82900  0.65900  0.18600  1.0000
  Co  Co4       1.0  0.00000  0.00000  0.43800  1.0000
  Co  Co5       1.0  0.17100  0.34100  0.68600  1.0000
  Co  Co6       1.0  0.17100  0.82900  0.68600  1.0000
  Co  Co7       1.0  0.65900  0.82900  0.68600  1.0000
  Co  Co8       1.0  0.00000  0.00000  0.93800  1.0000
  In  In1       1.0  0.33300  0.66700  0.37600  1.0000
  In  In2       1.0  0.66700  0.33300  0.87600  1.0000
  O   O1        1.0  0.00000  0.00000  0.24700  1.0000
  O   O2        1.0  0.00287  0.50100  0.25400  1.0000
  O   O3        1.0  0.49900  0.50100  0.25400  1.0000
  O   O4        1.0  0.49900  0.99700  0.25400  1.0000
  O   O5        1.0  0.16800  0.33600  0.49900  1.0000
  O   O6        1.0  0.16800  0.83200  0.49900  1.0000
  O   O7        1.0  0.66400  0.83200  0.49900  1.0000
  O   O8        1.0  0.00000  0.00000  0.74700  1.0000
  O   O9        1.0  0.50100  0.00287  0.75400  1.0000
  O   O10       1.0  0.50100  0.49900  0.75400  1.0000
  O   O11       1.0  0.99700  0.49900  0.75400  1.0000
  O   O12       1.0  0.33600  0.16800  0.99900  1.0000
  O   O13       1.0  0.83200  0.16800  0.99900  1.0000
  O   O14       1.0  0.83200  0.66400  0.99900  1.0000
