data_image0
_chemical_formula_structural       Cl6O12Pr6W2
_chemical_formula_sum              "Cl6 O12 Pr6 W2"
_cell_length_a       9.32533
_cell_length_b       9.32551
_cell_length_c       5.37689
_cell_angle_alpha    90
_cell_angle_beta     90
_cell_angle_gamma    120

_space_group_name_H-M_alt    "P 1"
_space_group_IT_number       1

loop_
  _space_group_symop_operation_xyz
  'x, y, z'

loop_
  _atom_site_type_symbol
  _atom_site_label
  _atom_site_symmetry_multiplicity
  _atom_site_fract_x
  _atom_site_fract_y
  _atom_site_fract_z
  _atom_site_occupancy
  Cl  Cl1       1.0  0.04860  0.23900  0.25000  1.0000
  Cl  Cl2       1.0  0.76100  0.81000  0.25000  1.0000
  Cl  Cl3       1.0  0.19000  0.95100  0.25000  1.0000
  Cl  Cl4       1.0  0.81000  0.04860  0.75000  1.0000
  Cl  Cl5       1.0  0.23900  0.19000  0.75000  1.0000
  Cl  Cl6       1.0  0.95100  0.76100  0.75000  1.0000
  O   O1        1.0  0.47700  0.83900  0.01810  1.0000
  O   O2        1.0  0.36200  0.52300  0.01810  1.0000
  O   O3        1.0  0.16100  0.63800  0.01810  1.0000
  O   O4        1.0  0.16100  0.63800  0.48200  1.0000
  O   O5        1.0  0.36200  0.52300  0.48200  1.0000
  O   O6        1.0  0.47700  0.83900  0.48200  1.0000
  O   O7        1.0  0.52300  0.16100  0.51800  1.0000
  O   O8        1.0  0.63800  0.47700  0.51800  1.0000
  O   O9        1.0  0.83900  0.36200  0.51800  1.0000
  O   O10       1.0  0.83900  0.36200  0.98200  1.0000
  O   O11       1.0  0.63800  0.47700  0.98200  1.0000
  O   O12       1.0  0.52300  0.16100  0.98200  1.0000
  Pr  Pr1       1.0  0.68800  0.09120  0.25000  1.0000
  Pr  Pr2       1.0  0.40300  0.31200  0.25000  1.0000
  Pr  Pr3       1.0  0.90900  0.59700  0.25000  1.0000
  Pr  Pr4       1.0  0.09120  0.40300  0.75000  1.0000
  Pr  Pr5       1.0  0.59700  0.68800  0.75000  1.0000
  Pr  Pr6       1.0  0.31200  0.90900  0.75000  1.0000
  W   W1        1.0  0.33300  0.66700  0.25000  1.0000
  W   W2        1.0  0.66700  0.33300  0.75000  1.0000
