data_image0
_chemical_formula_structural       Cl4Cu3O12Te4Yb2
_chemical_formula_sum              "Cl4 Cu3 O12 Te4 Yb2"
_cell_length_a       5.51017
_cell_length_b       7.95034
_cell_length_c       9.19533
_cell_angle_alpha    98.8245
_cell_angle_beta     88.8722
_cell_angle_gamma    103.634

_space_group_name_H-M_alt    "P 1"
_space_group_IT_number       1

loop_
  _space_group_symop_operation_xyz
  'x, y, z'

loop_
  _atom_site_type_symbol
  _atom_site_label
  _atom_site_symmetry_multiplicity
  _atom_site_fract_x
  _atom_site_fract_y
  _atom_site_fract_z
  _atom_site_occupancy
  Cl  Cl1       1.0  0.24400  0.54300  0.42600  1.0000
  Cl  Cl2       1.0  0.71600  0.85900  0.44000  1.0000
  Cl  Cl3       1.0  0.28400  0.14100  0.56000  1.0000
  Cl  Cl4       1.0  0.75700  0.45700  0.57400  1.0000
  Cu  Cu1       1.0  0.00000  0.50000  0.00000  1.0000
  Cu  Cu2       1.0  0.59800  0.59800  0.30400  1.0000
  Cu  Cu3       1.0  0.40200  0.40200  0.69600  1.0000
  O   O1        1.0  0.02130  0.32500  0.10900  1.0000
  O   O2        1.0  0.33700  0.69500  0.11200  1.0000
  O   O3        1.0  0.04860  0.98900  0.14500  1.0000
  O   O4        1.0  0.56300  0.04410  0.15000  1.0000
  O   O5        1.0  0.87000  0.64900  0.17800  1.0000
  O   O6        1.0  0.54800  0.36100  0.22300  1.0000
  O   O7        1.0  0.45200  0.63900  0.77700  1.0000
  O   O8        1.0  0.13000  0.35100  0.82200  1.0000
  O   O9        1.0  0.43700  0.95600  0.85000  1.0000
  O   O10       1.0  0.95100  0.01120  0.85500  1.0000
  O   O11       1.0  0.66200  0.30500  0.88800  1.0000
  O   O12       1.0  0.97900  0.67500  0.89100  1.0000
  Te  Te1       1.0  0.17600  0.83800  0.24600  1.0000
  Te  Te2       1.0  0.79700  0.23400  0.25500  1.0000
  Te  Te3       1.0  0.20300  0.76600  0.74500  1.0000
  Te  Te4       1.0  0.82400  0.16200  0.75400  1.0000
  Yb  Yb1       1.0  0.30900  0.17600  0.00742  1.0000
  Yb  Yb2       1.0  0.69100  0.82400  0.99300  1.0000
