data_image0
_chemical_formula_structural       Ba2Co8Dy2O14
_chemical_formula_sum              "Ba2 Co8 Dy2 O14"
_cell_length_a       6.32381
_cell_length_b       6.32381
_cell_length_c       10.3358
_cell_angle_alpha    90
_cell_angle_beta     90
_cell_angle_gamma    120

_space_group_name_H-M_alt    "P 1"
_space_group_IT_number       1

loop_
  _space_group_symop_operation_xyz
  'x, y, z'

loop_
  _atom_site_type_symbol
  _atom_site_label
  _atom_site_symmetry_multiplicity
  _atom_site_fract_x
  _atom_site_fract_y
  _atom_site_fract_z
  _atom_site_occupancy
  Ba  Ba1       1.0  0.33300  0.66700  0.01680  1.0000
  Ba  Ba2       1.0  0.66700  0.33300  0.51700  1.0000
  Co  Co1       1.0  0.83100  0.16900  0.18800  1.0000
  Co  Co2       1.0  0.33800  0.16900  0.18800  1.0000
  Co  Co3       1.0  0.83100  0.66200  0.18800  1.0000
  Co  Co4       1.0  0.00000  0.00000  0.44400  1.0000
  Co  Co5       1.0  0.16900  0.33800  0.68800  1.0000
  Co  Co6       1.0  0.66200  0.83100  0.68800  1.0000
  Co  Co7       1.0  0.16900  0.83100  0.68800  1.0000
  Co  Co8       1.0  0.00000  0.00000  0.94400  1.0000
  Dy  Dy1       1.0  0.33300  0.66700  0.37500  1.0000
  Dy  Dy2       1.0  0.66700  0.33300  0.87500  1.0000
  O   O1        1.0  0.83400  0.16600  0.00158  1.0000
  O   O2        1.0  0.33300  0.16600  0.00158  1.0000
  O   O3        1.0  0.83400  0.66700  0.00158  1.0000
  O   O4        1.0  0.49500  0.50500  0.24000  1.0000
  O   O5        1.0  0.00952  0.50500  0.24000  1.0000
  O   O6        1.0  0.49500  0.99000  0.24000  1.0000
  O   O7        1.0  0.00000  0.00000  0.25500  1.0000
  O   O8        1.0  0.16600  0.33300  0.50200  1.0000
  O   O9        1.0  0.66700  0.83400  0.50200  1.0000
  O   O10       1.0  0.16600  0.83400  0.50200  1.0000
  O   O11       1.0  0.50500  0.00952  0.74000  1.0000
  O   O12       1.0  0.99000  0.49500  0.74000  1.0000
  O   O13       1.0  0.50500  0.49500  0.74000  1.0000
  O   O14       1.0  0.00000  0.00000  0.75500  1.0000
