data_image0
_chemical_formula_structural       CuH10N2O10Se2
_chemical_formula_sum              "Cu1 H10 N2 O10 Se2"
_cell_length_a       5.46691
_cell_length_b       7.04955
_cell_length_c       7.18707
_cell_angle_alpha    106.145
_cell_angle_beta     92.1325
_cell_angle_gamma    111.811

_space_group_name_H-M_alt    "P 1"
_space_group_IT_number       1

loop_
  _space_group_symop_operation_xyz
  'x, y, z'

loop_
  _atom_site_type_symbol
  _atom_site_label
  _atom_site_symmetry_multiplicity
  _atom_site_fract_x
  _atom_site_fract_y
  _atom_site_fract_z
  _atom_site_occupancy
  Cu  Cu1       1.0  0.50000  0.00000  0.50000  1.0000
  H   H1        1.0  0.14100  0.25000  0.10800  1.0000
  H   H2        1.0  0.94600  0.38300  0.18700  1.0000
  H   H3        1.0  0.28800  0.99400  0.21200  1.0000
  H   H4        1.0  0.27300  0.49400  0.28600  1.0000
  H   H5        1.0  0.05500  0.27700  0.33800  1.0000
  H   H6        1.0  0.94500  0.72300  0.66200  1.0000
  H   H7        1.0  0.72700  0.50600  0.71400  1.0000
  H   H8        1.0  0.71200  0.00597  0.78800  1.0000
  H   H9        1.0  0.05350  0.61700  0.81300  1.0000
  H   H10       1.0  0.85900  0.75000  0.89200  1.0000
  N   N1        1.0  0.10700  0.35000  0.23000  1.0000
  N   N2        1.0  0.89300  0.65000  0.77000  1.0000
  O   O1        1.0  0.70300  0.47400  0.13000  1.0000
  O   O2        1.0  0.93100  0.90200  0.15000  1.0000
  O   O3        1.0  0.48100  0.04340  0.26400  1.0000
  O   O4        1.0  0.55100  0.74400  0.38700  1.0000
  O   O5        1.0  0.05910  0.77800  0.45100  1.0000
  O   O6        1.0  0.94100  0.22200  0.54900  1.0000
  O   O7        1.0  0.44900  0.25600  0.61300  1.0000
  O   O8        1.0  0.51900  0.95700  0.73600  1.0000
  O   O9        1.0  0.06880  0.09780  0.85000  1.0000
  O   O10       1.0  0.29700  0.52600  0.87000  1.0000
  Se  Se1       1.0  0.81900  0.72700  0.27200  1.0000
  Se  Se2       1.0  0.18100  0.27300  0.72800  1.0000
