data_image0
_chemical_formula_structural       Cl4Eu4O12Se4
_chemical_formula_sum              "Cl4 Eu4 O12 Se4"
_cell_length_a       7.24005
_cell_length_b       7.31812
_cell_length_c       8.87401
_cell_angle_alpha    90
_cell_angle_beta     90
_cell_angle_gamma    90

_space_group_name_H-M_alt    "P 1"
_space_group_IT_number       1

loop_
  _space_group_symop_operation_xyz
  'x, y, z'

loop_
  _atom_site_type_symbol
  _atom_site_label
  _atom_site_symmetry_multiplicity
  _atom_site_fract_x
  _atom_site_fract_y
  _atom_site_fract_z
  _atom_site_occupancy
  Cl  Cl1       1.0  0.98800  0.25000  0.13800  1.0000
  Cl  Cl2       1.0  0.48800  0.25000  0.36200  1.0000
  Cl  Cl3       1.0  0.51200  0.75000  0.63800  1.0000
  Cl  Cl4       1.0  0.01180  0.75000  0.86200  1.0000
  Eu  Eu1       1.0  0.60700  0.25000  0.05490  1.0000
  Eu  Eu2       1.0  0.10700  0.25000  0.44500  1.0000
  Eu  Eu3       1.0  0.89300  0.75000  0.55500  1.0000
  Eu  Eu4       1.0  0.39300  0.75000  0.94500  1.0000
  O   O1        1.0  0.65500  0.57300  0.05710  1.0000
  O   O2        1.0  0.65500  0.92700  0.05710  1.0000
  O   O3        1.0  0.27100  0.75000  0.19100  1.0000
  O   O4        1.0  0.77100  0.75000  0.30900  1.0000
  O   O5        1.0  0.15500  0.57300  0.44300  1.0000
  O   O6        1.0  0.15500  0.92700  0.44300  1.0000
  O   O7        1.0  0.84500  0.07260  0.55700  1.0000
  O   O8        1.0  0.84500  0.42700  0.55700  1.0000
  O   O9        1.0  0.22900  0.25000  0.69100  1.0000
  O   O10       1.0  0.72900  0.25000  0.80900  1.0000
  O   O11       1.0  0.34500  0.07260  0.94300  1.0000
  O   O12       1.0  0.34500  0.42700  0.94300  1.0000
  Se  Se1       1.0  0.78500  0.75000  0.12000  1.0000
  Se  Se2       1.0  0.28500  0.75000  0.38000  1.0000
  Se  Se3       1.0  0.71500  0.25000  0.62000  1.0000
  Se  Se4       1.0  0.21500  0.25000  0.88000  1.0000
