data_image0
_chemical_formula_structural       Co4K4Na8O10
_chemical_formula_sum              "Co4 K4 Na8 O10"
_cell_length_a       6.29028
_cell_length_b       6.29028
_cell_length_c       10.2945
_cell_angle_alpha    90
_cell_angle_beta     90
_cell_angle_gamma    90

_space_group_name_H-M_alt    "P 1"
_space_group_IT_number       1

loop_
  _space_group_symop_operation_xyz
  'x, y, z'

loop_
  _atom_site_type_symbol
  _atom_site_label
  _atom_site_symmetry_multiplicity
  _atom_site_fract_x
  _atom_site_fract_y
  _atom_site_fract_z
  _atom_site_occupancy
  Co  Co1       1.0  0.78500  0.21500  0.00000  1.0000
  Co  Co2       1.0  0.21500  0.78500  0.00000  1.0000
  Co  Co3       1.0  0.28500  0.28500  0.50000  1.0000
  Co  Co4       1.0  0.71500  0.71500  0.50000  1.0000
  K   K1        1.0  0.30400  0.30400  0.00000  1.0000
  K   K2        1.0  0.69600  0.69600  0.00000  1.0000
  K   K3        1.0  0.80400  0.19600  0.50000  1.0000
  K   K4        1.0  0.19600  0.80400  0.50000  1.0000
  Na  Na1       1.0  0.00000  0.00000  0.22000  1.0000
  Na  Na2       1.0  0.50000  0.00000  0.25000  1.0000
  Na  Na3       1.0  0.00000  0.50000  0.25000  1.0000
  Na  Na4       1.0  0.50000  0.50000  0.28000  1.0000
  Na  Na5       1.0  0.50000  0.50000  0.72000  1.0000
  Na  Na6       1.0  0.50000  0.00000  0.75000  1.0000
  Na  Na7       1.0  0.00000  0.50000  0.75000  1.0000
  Na  Na8       1.0  0.00000  0.00000  0.78000  1.0000
  O   O1        1.0  0.00000  0.00000  0.00000  1.0000
  O   O2        1.0  0.71400  0.28600  0.16400  1.0000
  O   O3        1.0  0.28600  0.71400  0.16400  1.0000
  O   O4        1.0  0.21400  0.21400  0.33600  1.0000
  O   O5        1.0  0.78600  0.78600  0.33600  1.0000
  O   O6        1.0  0.50000  0.50000  0.50000  1.0000
  O   O7        1.0  0.21400  0.21400  0.66400  1.0000
  O   O8        1.0  0.78600  0.78600  0.66400  1.0000
  O   O9        1.0  0.71400  0.28600  0.83600  1.0000
  O   O10       1.0  0.28600  0.71400  0.83600  1.0000
