data_image0
_chemical_formula_structural       Ca2Na4O16S4
_chemical_formula_sum              "Ca2 Na4 O16 S4"
_cell_length_a       6.47704
_cell_length_b       6.47704
_cell_length_c       8.39783
_cell_angle_alpha    106.674
_cell_angle_beta     73.326
_cell_angle_gamma    100.973

_space_group_name_H-M_alt    "P 1"
_space_group_IT_number       1

loop_
  _space_group_symop_operation_xyz
  'x, y, z'

loop_
  _atom_site_type_symbol
  _atom_site_label
  _atom_site_symmetry_multiplicity
  _atom_site_fract_x
  _atom_site_fract_y
  _atom_site_fract_z
  _atom_site_occupancy
  Ca  Ca1       1.0  0.06130  0.06130  0.25000  1.0000
  Ca  Ca2       1.0  0.93900  0.93900  0.75000  1.0000
  Na  Na1       1.0  0.69200  0.41800  0.06470  1.0000
  Na  Na2       1.0  0.41800  0.69200  0.43500  1.0000
  Na  Na3       1.0  0.58200  0.30800  0.56500  1.0000
  Na  Na4       1.0  0.30800  0.58200  0.93500  1.0000
  O   O1        1.0  0.78900  0.04000  0.05860  1.0000
  O   O2        1.0  0.51300  0.73900  0.13200  1.0000
  O   O3        1.0  0.99600  0.67600  0.15400  1.0000
  O   O4        1.0  0.43000  0.11600  0.23000  1.0000
  O   O5        1.0  0.11600  0.43000  0.27000  1.0000
  O   O6        1.0  0.67600  0.99600  0.34600  1.0000
  O   O7        1.0  0.73900  0.51300  0.36800  1.0000
  O   O8        1.0  0.04000  0.78900  0.44100  1.0000
  O   O9        1.0  0.96000  0.21100  0.55900  1.0000
  O   O10       1.0  0.26100  0.48700  0.63200  1.0000
  O   O11       1.0  0.32400  0.00362  0.65400  1.0000
  O   O12       1.0  0.88400  0.57000  0.73000  1.0000
  O   O13       1.0  0.57000  0.88400  0.77000  1.0000
  O   O14       1.0  0.00362  0.32400  0.84600  1.0000
  O   O15       1.0  0.48700  0.26100  0.86800  1.0000
  O   O16       1.0  0.21100  0.96000  0.94100  1.0000
  S   S1        1.0  0.59900  0.97000  0.18900  1.0000
  S   S2        1.0  0.97000  0.59900  0.31100  1.0000
  S   S3        1.0  0.02990  0.40100  0.68900  1.0000
  S   S4        1.0  0.40100  0.02990  0.81100  1.0000
