data_image0
_chemical_formula_structural       Cl4Cr6F12K4
_chemical_formula_sum              "Cl4 Cr6 F12 K4"
_cell_length_a       6.57421
_cell_length_b       11.0127
_cell_length_c       7.36389
_cell_angle_alpha    90
_cell_angle_beta     125.268
_cell_angle_gamma    90

_space_group_name_H-M_alt    "P 1"
_space_group_IT_number       1

loop_
  _space_group_symop_operation_xyz
  'x, y, z'

loop_
  _atom_site_type_symbol
  _atom_site_label
  _atom_site_symmetry_multiplicity
  _atom_site_fract_x
  _atom_site_fract_y
  _atom_site_fract_z
  _atom_site_occupancy
  Cl  Cl1       1.0  0.66300  0.32800  0.19300  1.0000
  Cl  Cl2       1.0  0.33700  0.82800  0.30700  1.0000
  Cl  Cl3       1.0  0.66300  0.17200  0.69300  1.0000
  Cl  Cl4       1.0  0.33700  0.67200  0.80700  1.0000
  Cr  Cr1       1.0  0.00000  0.00000  0.00000  1.0000
  Cr  Cr2       1.0  0.83200  0.74600  0.11400  1.0000
  Cr  Cr3       1.0  0.16800  0.24600  0.38600  1.0000
  Cr  Cr4       1.0  0.00000  0.50000  0.50000  1.0000
  Cr  Cr5       1.0  0.83200  0.75400  0.61400  1.0000
  Cr  Cr6       1.0  0.16800  0.25400  0.88600  1.0000
  F   F1        1.0  0.26800  0.08880  0.01340  1.0000
  F   F2        1.0  0.14100  0.31500  0.12600  1.0000
  F   F3        1.0  0.94300  0.58200  0.23500  1.0000
  F   F4        1.0  0.05710  0.08180  0.26500  1.0000
  F   F5        1.0  0.85900  0.81500  0.37400  1.0000
  F   F6        1.0  0.73200  0.58900  0.48700  1.0000
  F   F7        1.0  0.26800  0.41100  0.51300  1.0000
  F   F8        1.0  0.14100  0.18500  0.62600  1.0000
  F   F9        1.0  0.94300  0.91800  0.73500  1.0000
  F   F10       1.0  0.05710  0.41800  0.76500  1.0000
  F   F11       1.0  0.85900  0.68500  0.87400  1.0000
  F   F12       1.0  0.73200  0.91100  0.98700  1.0000
  K   K1        1.0  0.29800  0.55000  0.15700  1.0000
  K   K2        1.0  0.70200  0.04990  0.34300  1.0000
  K   K3        1.0  0.29800  0.95000  0.65700  1.0000
  K   K4        1.0  0.70200  0.45000  0.84300  1.0000
