data_image0
_chemical_formula_structural       Cu4Ga2Nd2O14Sr4
_chemical_formula_sum              "Cu4 Ga2 Nd2 O14 Sr4"
_cell_length_a       5.40762
_cell_length_b       5.52257
_cell_length_c       12.1215
_cell_angle_alpha    103.168
_cell_angle_beta     102.889
_cell_angle_gamma    90

_space_group_name_H-M_alt    "P 1"
_space_group_IT_number       1

loop_
  _space_group_symop_operation_xyz
  'x, y, z'

loop_
  _atom_site_type_symbol
  _atom_site_label
  _atom_site_symmetry_multiplicity
  _atom_site_fract_x
  _atom_site_fract_y
  _atom_site_fract_z
  _atom_site_occupancy
  Cu  Cu1       1.0  0.57400  0.07740  0.15200  1.0000
  Cu  Cu2       1.0  0.07420  0.57500  0.15200  1.0000
  Cu  Cu3       1.0  0.92200  0.42500  0.84800  1.0000
  Cu  Cu4       1.0  0.42200  0.92300  0.84800  1.0000
  Ga  Ga1       1.0  0.78300  0.32000  0.50000  1.0000
  Ga  Ga2       1.0  0.28300  0.68000  0.50000  1.0000
  Nd  Nd1       1.0  0.99900  0.00000  0.00000  1.0000
  Nd  Nd2       1.0  0.49900  0.50000  0.00000  1.0000
  O   O1        1.0  0.31500  0.81400  0.13100  1.0000
  O   O2        1.0  0.81500  0.81700  0.13100  1.0000
  O   O3        1.0  0.81600  0.31800  0.13600  1.0000
  O   O4        1.0  0.31600  0.31900  0.13600  1.0000
  O   O5        1.0  0.64400  0.13000  0.35400  1.0000
  O   O6        1.0  0.14400  0.72300  0.35400  1.0000
  O   O7        1.0  0.13300  0.36800  0.50000  1.0000
  O   O8        1.0  0.63300  0.63200  0.50000  1.0000
  O   O9        1.0  0.79000  0.27700  0.64600  1.0000
  O   O10       1.0  0.29000  0.87000  0.64600  1.0000
  O   O11       1.0  0.18000  0.68100  0.86400  1.0000
  O   O12       1.0  0.68000  0.68200  0.86400  1.0000
  O   O13       1.0  0.68300  0.18300  0.86900  1.0000
  O   O14       1.0  0.18300  0.18600  0.86900  1.0000
  Sr  Sr1       1.0  0.15200  0.13500  0.30400  1.0000
  Sr  Sr2       1.0  0.65200  0.67000  0.30400  1.0000
  Sr  Sr3       1.0  0.34800  0.33000  0.69600  1.0000
  Sr  Sr4       1.0  0.84800  0.86500  0.69600  1.0000
