data_image0
_chemical_formula_structural       La2O18Sb6
_chemical_formula_sum              "La2 O18 Sb6"
_cell_length_a       5.5207
_cell_length_b       5.5207
_cell_length_c       11.8043
_cell_angle_alpha    90
_cell_angle_beta     90
_cell_angle_gamma    107.147

_space_group_name_H-M_alt    "P 1"
_space_group_IT_number       1

loop_
  _space_group_symop_operation_xyz
  'x, y, z'

loop_
  _atom_site_type_symbol
  _atom_site_label
  _atom_site_symmetry_multiplicity
  _atom_site_fract_x
  _atom_site_fract_y
  _atom_site_fract_z
  _atom_site_occupancy
  La  La1       1.0  0.75600  0.24400  0.25000  1.0000
  La  La2       1.0  0.24400  0.75600  0.75000  1.0000
  O   O1        1.0  0.89500  0.10500  0.07480  1.0000
  O   O2        1.0  0.42000  0.19100  0.09960  1.0000
  O   O3        1.0  0.80900  0.58000  0.09960  1.0000
  O   O4        1.0  0.33900  0.66100  0.12000  1.0000
  O   O5        1.0  0.05480  0.94500  0.25000  1.0000
  O   O6        1.0  0.33900  0.66100  0.38000  1.0000
  O   O7        1.0  0.42000  0.19100  0.40000  1.0000
  O   O8        1.0  0.80900  0.58000  0.40000  1.0000
  O   O9        1.0  0.89500  0.10500  0.42500  1.0000
  O   O10       1.0  0.10500  0.89500  0.57500  1.0000
  O   O11       1.0  0.19100  0.42000  0.60000  1.0000
  O   O12       1.0  0.58000  0.80900  0.60000  1.0000
  O   O13       1.0  0.66100  0.33900  0.62000  1.0000
  O   O14       1.0  0.94500  0.05480  0.75000  1.0000
  O   O15       1.0  0.66100  0.33900  0.88000  1.0000
  O   O16       1.0  0.19100  0.42000  0.90000  1.0000
  O   O17       1.0  0.58000  0.80900  0.90000  1.0000
  O   O18       1.0  0.10500  0.89500  0.92500  1.0000
  Sb  Sb1       1.0  0.50000  0.50000  0.00000  1.0000
  Sb  Sb2       1.0  0.12300  0.87700  0.09190  1.0000
  Sb  Sb3       1.0  0.12300  0.87700  0.40800  1.0000
  Sb  Sb4       1.0  0.50000  0.50000  0.50000  1.0000
  Sb  Sb5       1.0  0.87700  0.12300  0.59200  1.0000
  Sb  Sb6       1.0  0.87700  0.12300  0.90800  1.0000
