data_image0
_chemical_formula_structural       Co4Mn6O16
_chemical_formula_sum              "Co4 Mn6 O16"
_cell_length_a       5.79341
_cell_length_b       4.95223
_cell_length_c       9.23281
_cell_angle_alpha    90
_cell_angle_beta     90
_cell_angle_gamma    90

_space_group_name_H-M_alt    "P 1"
_space_group_IT_number       1

loop_
  _space_group_symop_operation_xyz
  'x, y, z'

loop_
  _atom_site_type_symbol
  _atom_site_label
  _atom_site_symmetry_multiplicity
  _atom_site_fract_x
  _atom_site_fract_y
  _atom_site_fract_z
  _atom_site_occupancy
  Co  Co1       1.0  0.00000  0.32500  0.21600  1.0000
  Co  Co2       1.0  0.50000  0.67000  0.32000  1.0000
  Co  Co3       1.0  0.50000  0.67500  0.71600  1.0000
  Co  Co4       1.0  0.00000  0.33000  0.82000  1.0000
  Mn  Mn1       1.0  0.24100  0.83400  0.00047  1.0000
  Mn  Mn2       1.0  0.75900  0.83400  0.00047  1.0000
  Mn  Mn3       1.0  0.00000  0.67500  0.49900  1.0000
  Mn  Mn4       1.0  0.25900  0.16600  0.50000  1.0000
  Mn  Mn5       1.0  0.74100  0.16600  0.50000  1.0000
  Mn  Mn6       1.0  0.50000  0.32500  0.99900  1.0000
  O   O1        1.0  0.25900  0.15800  0.10600  1.0000
  O   O2        1.0  0.74100  0.15800  0.10600  1.0000
  O   O3        1.0  0.50000  0.66100  0.10900  1.0000
  O   O4        1.0  0.00000  0.68100  0.10900  1.0000
  O   O5        1.0  0.22100  0.48300  0.37700  1.0000
  O   O6        1.0  0.77900  0.48300  0.37700  1.0000
  O   O7        1.0  0.50000  0.04100  0.38300  1.0000
  O   O8        1.0  0.00000  0.00697  0.39000  1.0000
  O   O9        1.0  0.24100  0.84200  0.60600  1.0000
  O   O10       1.0  0.75900  0.84200  0.60600  1.0000
  O   O11       1.0  0.00000  0.33900  0.60900  1.0000
  O   O12       1.0  0.50000  0.31900  0.60900  1.0000
  O   O13       1.0  0.27900  0.51700  0.87700  1.0000
  O   O14       1.0  0.72100  0.51700  0.87700  1.0000
  O   O15       1.0  0.00000  0.95900  0.88300  1.0000
  O   O16       1.0  0.50000  0.99300  0.89000  1.0000
