data_image0
_chemical_formula_structural       Ce8Ni2S14
_chemical_formula_sum              "Ce8 Ni2 S14"
_cell_length_a       9.96699
_cell_length_b       9.96726
_cell_length_c       6.91003
_cell_angle_alpha    90
_cell_angle_beta     90
_cell_angle_gamma    119.994

_space_group_name_H-M_alt    "P 1"
_space_group_IT_number       1

loop_
  _space_group_symop_operation_xyz
  'x, y, z'

loop_
  _atom_site_type_symbol
  _atom_site_label
  _atom_site_symmetry_multiplicity
  _atom_site_fract_x
  _atom_site_fract_y
  _atom_site_fract_z
  _atom_site_occupancy
  Ce  Ce1       1.0  0.66600  0.33300  0.17700  1.0000
  Ce  Ce2       1.0  0.62800  0.78600  0.22100  1.0000
  Ce  Ce3       1.0  0.21400  0.84200  0.22100  1.0000
  Ce  Ce4       1.0  0.15800  0.37200  0.22100  1.0000
  Ce  Ce5       1.0  0.33400  0.66700  0.67700  1.0000
  Ce  Ce6       1.0  0.37200  0.21400  0.72100  1.0000
  Ce  Ce7       1.0  0.78600  0.15800  0.72100  1.0000
  Ce  Ce8       1.0  0.84200  0.62800  0.72100  1.0000
  Ni  Ni1       1.0  0.00000  0.00000  0.05130  1.0000
  Ni  Ni2       1.0  0.00000  0.00000  0.55100  1.0000
  S   S1        1.0  0.33300  0.66700  0.06530  1.0000
  S   S2        1.0  0.21900  0.12300  0.33200  1.0000
  S   S3        1.0  0.87700  0.09640  0.33200  1.0000
  S   S4        1.0  0.90400  0.78100  0.33200  1.0000
  S   S5        1.0  0.48900  0.93200  0.46500  1.0000
  S   S6        1.0  0.44300  0.51100  0.46500  1.0000
  S   S7        1.0  0.06860  0.55700  0.46500  1.0000
  S   S8        1.0  0.66700  0.33300  0.56500  1.0000
  S   S9        1.0  0.78100  0.87700  0.83200  1.0000
  S   S10       1.0  0.12300  0.90400  0.83200  1.0000
  S   S11       1.0  0.09650  0.21900  0.83200  1.0000
  S   S12       1.0  0.51100  0.06830  0.96500  1.0000
  S   S13       1.0  0.55700  0.48900  0.96500  1.0000
  S   S14       1.0  0.93100  0.44300  0.96500  1.0000
