data_image0
_chemical_formula_structural       Al4B6O15
_chemical_formula_sum              "Al4 B6 O15"
_cell_length_a       6.48822
_cell_length_b       6.89656
_cell_length_c       6.89655
_cell_angle_alpha    110.639
_cell_angle_beta     108.276
_cell_angle_gamma    108.276

_space_group_name_H-M_alt    "P 1"
_space_group_IT_number       1

loop_
  _space_group_symop_operation_xyz
  'x, y, z'

loop_
  _atom_site_type_symbol
  _atom_site_label
  _atom_site_symmetry_multiplicity
  _atom_site_fract_x
  _atom_site_fract_y
  _atom_site_fract_z
  _atom_site_occupancy
  Al  Al1       1.0  0.99500  0.00000  0.00000  1.0000
  Al  Al2       1.0  0.91800  0.72200  0.21100  1.0000
  Al  Al3       1.0  0.19700  0.48900  0.27800  1.0000
  Al  Al4       1.0  0.70800  0.78900  0.51100  1.0000
  B   B1        1.0  0.47300  0.33000  0.06930  1.0000
  B   B2        1.0  0.40400  0.93100  0.26100  1.0000
  B   B3        1.0  0.83000  0.10600  0.33300  1.0000
  B   B4        1.0  0.14300  0.73900  0.67000  1.0000
  B   B5        1.0  0.49700  0.66700  0.77300  1.0000
  B   B6        1.0  0.72400  0.22700  0.89400  1.0000
  O   O1        1.0  0.92200  0.45000  0.02120  1.0000
  O   O2        1.0  0.25300  0.27100  0.07360  1.0000
  O   O3        1.0  0.17900  0.92600  0.19800  1.0000
  O   O4        1.0  0.67000  0.54200  0.24600  1.0000
  O   O5        1.0  0.97200  0.21600  0.25200  1.0000
  O   O6        1.0  0.42400  0.75400  0.29600  1.0000
  O   O7        1.0  0.61100  0.11600  0.30300  1.0000
  O   O8        1.0  0.90100  0.97900  0.42900  1.0000
  O   O9        1.0  0.12800  0.70400  0.45800  1.0000
  O   O10       1.0  0.47200  0.57100  0.55000  1.0000
  O   O11       1.0  0.98200  0.80200  0.72900  1.0000
  O   O12       1.0  0.75600  0.03640  0.78400  1.0000
  O   O13       1.0  0.30800  0.69700  0.81300  1.0000
  O   O14       1.0  0.49500  0.18700  0.88400  1.0000
  O   O15       1.0  0.72000  0.74800  0.96400  1.0000
