data_image0
_chemical_formula_structural       Nd2O18Ta6
_chemical_formula_sum              "Nd2 O18 Ta6"
_cell_length_a       5.39043
_cell_length_b       7.53961
_cell_length_c       8.20259
_cell_angle_alpha    90
_cell_angle_beta     92.4002
_cell_angle_gamma    90

_space_group_name_H-M_alt    "P 1"
_space_group_IT_number       1

loop_
  _space_group_symop_operation_xyz
  'x, y, z'

loop_
  _atom_site_type_symbol
  _atom_site_label
  _atom_site_symmetry_multiplicity
  _atom_site_fract_x
  _atom_site_fract_y
  _atom_site_fract_z
  _atom_site_occupancy
  Nd  Nd1       1.0  0.03400  0.75000  0.43500  1.0000
  Nd  Nd2       1.0  0.96600  0.25000  0.56500  1.0000
  O   O1        1.0  0.90800  0.25000  0.01990  1.0000
  O   O2        1.0  0.32200  0.05210  0.11800  1.0000
  O   O3        1.0  0.32200  0.44800  0.11800  1.0000
  O   O4        1.0  0.85100  0.55900  0.21500  1.0000
  O   O5        1.0  0.85100  0.94100  0.21500  1.0000
  O   O6        1.0  0.43700  0.75000  0.30900  1.0000
  O   O7        1.0  0.65500  0.25000  0.33900  1.0000
  O   O8        1.0  0.26500  0.04000  0.46600  1.0000
  O   O9        1.0  0.26500  0.46000  0.46600  1.0000
  O   O10       1.0  0.73500  0.54000  0.53400  1.0000
  O   O11       1.0  0.73500  0.96000  0.53400  1.0000
  O   O12       1.0  0.34500  0.75000  0.66100  1.0000
  O   O13       1.0  0.56300  0.25000  0.69100  1.0000
  O   O14       1.0  0.14900  0.05940  0.78500  1.0000
  O   O15       1.0  0.14900  0.44100  0.78500  1.0000
  O   O16       1.0  0.67800  0.55200  0.88200  1.0000
  O   O17       1.0  0.67800  0.94800  0.88200  1.0000
  O   O18       1.0  0.09170  0.75000  0.98000  1.0000
  Ta  Ta1       1.0  0.00000  0.00000  0.00000  1.0000
  Ta  Ta2       1.0  0.00000  0.50000  0.00000  1.0000
  Ta  Ta3       1.0  0.52800  0.00714  0.30000  1.0000
  Ta  Ta4       1.0  0.52800  0.49300  0.30000  1.0000
  Ta  Ta5       1.0  0.47200  0.50700  0.70000  1.0000
  Ta  Ta6       1.0  0.47200  0.99300  0.70000  1.0000
