data_image0
_chemical_formula_structural       As4Ca4Cd2
_chemical_formula_sum              "As4 Ca4 Cd2"
_cell_length_a       4.336
_cell_length_b       7.15678
_cell_length_c       8.54321
_cell_angle_alpha    90
_cell_angle_beta     75.2994
_cell_angle_gamma    90

_space_group_name_H-M_alt    "P 1"
_space_group_IT_number       1

loop_
  _space_group_symop_operation_xyz
  'x, y, z'

loop_
  _atom_site_type_symbol
  _atom_site_label
  _atom_site_symmetry_multiplicity
  _atom_site_fract_x
  _atom_site_fract_y
  _atom_site_fract_z
  _atom_site_occupancy
  As  As1       1.0  0.93500  0.51400  0.13000  1.0000
  As  As2       1.0  0.31900  0.00177  0.36300  1.0000
  As  As3       1.0  0.68100  0.50200  0.63700  1.0000
  As  As4       1.0  0.06500  0.01350  0.87000  1.0000
  Ca  Ca1       1.0  0.46800  0.22700  0.06450  1.0000
  Ca  Ca2       1.0  0.30000  0.56900  0.39900  1.0000
  Ca  Ca3       1.0  0.70000  0.06950  0.60100  1.0000
  Ca  Ca4       1.0  0.53200  0.72700  0.93500  1.0000
  Cd  Cd1       1.0  0.90100  0.89300  0.19900  1.0000
  Cd  Cd2       1.0  0.09930  0.39300  0.80100  1.0000
