data_image0
_chemical_formula_structural       Co2Ga6Nd16
_chemical_formula_sum              "Co2 Ga6 Nd16"
_cell_length_a       10.4702
_cell_length_b       10.4702
_cell_length_c       6.98988
_cell_angle_alpha    90
_cell_angle_beta     90
_cell_angle_gamma    120

_space_group_name_H-M_alt    "P 1"
_space_group_IT_number       1

loop_
  _space_group_symop_operation_xyz
  'x, y, z'

loop_
  _atom_site_type_symbol
  _atom_site_label
  _atom_site_symmetry_multiplicity
  _atom_site_fract_x
  _atom_site_fract_y
  _atom_site_fract_z
  _atom_site_occupancy
  Co  Co1       1.0  0.33300  0.66700  0.05900  1.0000
  Co  Co2       1.0  0.66700  0.33300  0.55900  1.0000
  Ga  Ga1       1.0  0.83500  0.67100  0.03440  1.0000
  Ga  Ga2       1.0  0.32900  0.16500  0.03440  1.0000
  Ga  Ga3       1.0  0.83500  0.16500  0.03440  1.0000
  Ga  Ga4       1.0  0.16500  0.32900  0.53400  1.0000
  Ga  Ga5       1.0  0.16500  0.83500  0.53400  1.0000
  Ga  Ga6       1.0  0.67100  0.83500  0.53400  1.0000
  Nd  Nd1       1.0  0.66700  0.33300  0.17700  1.0000
  Nd  Nd2       1.0  0.00000  0.00000  0.27600  1.0000
  Nd  Nd3       1.0  0.46300  0.92500  0.29000  1.0000
  Nd  Nd4       1.0  0.07490  0.53700  0.29000  1.0000
  Nd  Nd5       1.0  0.46300  0.53700  0.29000  1.0000
  Nd  Nd6       1.0  0.34100  0.17100  0.49200  1.0000
  Nd  Nd7       1.0  0.82900  0.17100  0.49200  1.0000
  Nd  Nd8       1.0  0.83000  0.65900  0.49200  1.0000
  Nd  Nd9       1.0  0.33300  0.66700  0.67700  1.0000
  Nd  Nd10      1.0  0.00000  0.00000  0.77600  1.0000
  Nd  Nd11      1.0  0.53700  0.07500  0.79000  1.0000
  Nd  Nd12      1.0  0.53700  0.46300  0.79000  1.0000
  Nd  Nd13      1.0  0.92500  0.46300  0.79000  1.0000
  Nd  Nd14      1.0  0.17100  0.82900  0.99200  1.0000
  Nd  Nd15      1.0  0.65900  0.82900  0.99200  1.0000
  Nd  Nd16      1.0  0.17100  0.34100  0.99200  1.0000
