data_image0
_chemical_formula_structural       Na4O14Si4Zn4
_chemical_formula_sum              "Na4 O14 Si4 Zn4"
_cell_length_a       5.25965
_cell_length_b       5.10543
_cell_length_c       13.6272
_cell_angle_alpha    90
_cell_angle_beta     90
_cell_angle_gamma    119.035

_space_group_name_H-M_alt    "P 1"
_space_group_IT_number       1

loop_
  _space_group_symop_operation_xyz
  'x, y, z'

loop_
  _atom_site_type_symbol
  _atom_site_label
  _atom_site_symmetry_multiplicity
  _atom_site_fract_x
  _atom_site_fract_y
  _atom_site_fract_z
  _atom_site_occupancy
  Na  Na1       1.0  0.00000  0.00748  0.00000  1.0000
  Na  Na2       1.0  0.91800  0.98600  0.25000  1.0000
  Na  Na3       1.0  0.00000  0.00748  0.50000  1.0000
  Na  Na4       1.0  0.08220  0.06850  0.75000  1.0000
  O   O1        1.0  0.47600  0.91700  0.06200  1.0000
  O   O2        1.0  0.21900  0.34300  0.12800  1.0000
  O   O3        1.0  0.92900  0.65500  0.13100  1.0000
  O   O4        1.0  0.38700  0.81800  0.25000  1.0000
  O   O5        1.0  0.92900  0.65500  0.36900  1.0000
  O   O6        1.0  0.21900  0.34300  0.37200  1.0000
  O   O7        1.0  0.47600  0.91700  0.43800  1.0000
  O   O8        1.0  0.52400  0.44000  0.56200  1.0000
  O   O9        1.0  0.78100  0.12400  0.62800  1.0000
  O   O10       1.0  0.07150  0.72600  0.63100  1.0000
  O   O11       1.0  0.61300  0.43100  0.75000  1.0000
  O   O12       1.0  0.07150  0.72600  0.86900  1.0000
  O   O13       1.0  0.78100  0.12400  0.87200  1.0000
  O   O14       1.0  0.52400  0.44000  0.93800  1.0000
  Si  Si1       1.0  0.24400  0.67000  0.14100  1.0000
  Si  Si2       1.0  0.24400  0.67000  0.35900  1.0000
  Si  Si3       1.0  0.75600  0.42700  0.64100  1.0000
  Si  Si4       1.0  0.75600  0.42700  0.85900  1.0000
  Zn  Zn1       1.0  0.57100  0.34000  0.08200  1.0000
  Zn  Zn2       1.0  0.57100  0.34000  0.41800  1.0000
  Zn  Zn3       1.0  0.42900  0.76800  0.58200  1.0000
  Zn  Zn4       1.0  0.42900  0.76800  0.91800  1.0000
