data_image0
_chemical_formula_structural       Al20Ce2Ru4
_chemical_formula_sum              "Al20 Ce2 Ru4"
_cell_length_a       6.90409
_cell_length_b       6.90409
_cell_length_c       9.23623
_cell_angle_alpha    90
_cell_angle_beta     90
_cell_angle_gamma    96.7285

_space_group_name_H-M_alt    "P 1"
_space_group_IT_number       1

loop_
  _space_group_symop_operation_xyz
  'x, y, z'

loop_
  _atom_site_type_symbol
  _atom_site_label
  _atom_site_symmetry_multiplicity
  _atom_site_fract_x
  _atom_site_fract_y
  _atom_site_fract_z
  _atom_site_occupancy
  Al  Al1       1.0  0.22800  0.22800  0.00000  1.0000
  Al  Al2       1.0  0.77200  0.77200  0.00000  1.0000
  Al  Al3       1.0  0.37800  0.62200  0.05010  1.0000
  Al  Al4       1.0  0.83900  0.16100  0.10200  1.0000
  Al  Al5       1.0  0.48200  0.22100  0.25000  1.0000
  Al  Al6       1.0  0.14000  0.41100  0.25000  1.0000
  Al  Al7       1.0  0.77900  0.51800  0.25000  1.0000
  Al  Al8       1.0  0.58900  0.86000  0.25000  1.0000
  Al  Al9       1.0  0.83900  0.16100  0.39800  1.0000
  Al  Al10      1.0  0.37800  0.62200  0.45000  1.0000
  Al  Al11      1.0  0.22800  0.22800  0.50000  1.0000
  Al  Al12      1.0  0.77200  0.77200  0.50000  1.0000
  Al  Al13      1.0  0.62200  0.37800  0.55000  1.0000
  Al  Al14      1.0  0.16100  0.83900  0.60200  1.0000
  Al  Al15      1.0  0.41100  0.14000  0.75000  1.0000
  Al  Al16      1.0  0.22100  0.48200  0.75000  1.0000
  Al  Al17      1.0  0.86000  0.58900  0.75000  1.0000
  Al  Al18      1.0  0.51800  0.77900  0.75000  1.0000
  Al  Al19      1.0  0.16100  0.83900  0.89800  1.0000
  Al  Al20      1.0  0.62200  0.37800  0.95000  1.0000
  Ce  Ce1       1.0  0.12300  0.87700  0.25000  1.0000
  Ce  Ce2       1.0  0.87700  0.12300  0.75000  1.0000
  Ru  Ru1       1.0  0.50000  0.00000  0.00000  1.0000
  Ru  Ru2       1.0  0.00000  0.50000  0.00000  1.0000
  Ru  Ru3       1.0  0.50000  0.00000  0.50000  1.0000
  Ru  Ru4       1.0  0.00000  0.50000  0.50000  1.0000
