data_image0
_chemical_formula_structural       C4Co2H8O12
_chemical_formula_sum              "C4 Co2 H8 O12"
_cell_length_a       5.44701
_cell_length_b       6.18477
_cell_length_c       8.05567
_cell_angle_alpha    99.7803
_cell_angle_beta     109.76
_cell_angle_gamma    63.8734

_space_group_name_H-M_alt    "P 1"
_space_group_IT_number       1

loop_
  _space_group_symop_operation_xyz
  'x, y, z'

loop_
  _atom_site_type_symbol
  _atom_site_label
  _atom_site_symmetry_multiplicity
  _atom_site_fract_x
  _atom_site_fract_y
  _atom_site_fract_z
  _atom_site_occupancy
  C   C1        1.0  0.01880  0.25200  0.14800  1.0000
  C   C2        1.0  0.12200  0.24800  0.35200  1.0000
  C   C3        1.0  0.87800  0.75200  0.64800  1.0000
  C   C4        1.0  0.98100  0.74800  0.85200  1.0000
  Co  Co1       1.0  0.56900  0.25000  0.25000  1.0000
  Co  Co2       1.0  0.43100  0.75000  0.75000  1.0000
  H   H1        1.0  0.81400  0.81100  0.13900  1.0000
  H   H2        1.0  0.34500  0.68800  0.14700  1.0000
  H   H3        1.0  0.88600  0.81200  0.35300  1.0000
  H   H4        1.0  0.48500  0.68900  0.36100  1.0000
  H   H5        1.0  0.51500  0.31100  0.63900  1.0000
  H   H6        1.0  0.11400  0.18800  0.64700  1.0000
  H   H7        1.0  0.65500  0.31200  0.85300  1.0000
  H   H8        1.0  0.18600  0.18900  0.86100  1.0000
  O   O1        1.0  0.77500  0.25000  0.07130  1.0000
  O   O2        1.0  0.18500  0.25600  0.07210  1.0000
  O   O3        1.0  0.73600  0.88200  0.24100  1.0000
  O   O4        1.0  0.37800  0.61800  0.25900  1.0000
  O   O5        1.0  0.36900  0.24400  0.42800  1.0000
  O   O6        1.0  0.95300  0.25000  0.42900  1.0000
  O   O7        1.0  0.04660  0.75000  0.57100  1.0000
  O   O8        1.0  0.63100  0.75600  0.57200  1.0000
  O   O9        1.0  0.62200  0.38200  0.74100  1.0000
  O   O10       1.0  0.26400  0.11800  0.75900  1.0000
  O   O11       1.0  0.81500  0.74400  0.92800  1.0000
  O   O12       1.0  0.22500  0.75000  0.92900  1.0000
