data_image0
_chemical_formula_structural       Al2La6Mn2S14
_chemical_formula_sum              "Al2 La6 Mn2 S14"
_cell_length_a       10.2362
_cell_length_b       10.2358
_cell_length_c       6.04887
_cell_angle_alpha    90
_cell_angle_beta     90
_cell_angle_gamma    120

_space_group_name_H-M_alt    "P 1"
_space_group_IT_number       1

loop_
  _space_group_symop_operation_xyz
  'x, y, z'

loop_
  _atom_site_type_symbol
  _atom_site_label
  _atom_site_symmetry_multiplicity
  _atom_site_fract_x
  _atom_site_fract_y
  _atom_site_fract_z
  _atom_site_occupancy
  Al  Al1       1.0  0.66700  0.33300  0.15200  1.0000
  Al  Al2       1.0  0.33300  0.66700  0.65200  1.0000
  La  La1       1.0  0.13700  0.37400  0.23100  1.0000
  La  La2       1.0  0.23700  0.86300  0.23100  1.0000
  La  La3       1.0  0.62600  0.76300  0.23100  1.0000
  La  La4       1.0  0.86300  0.62600  0.73100  1.0000
  La  La5       1.0  0.76300  0.13700  0.73100  1.0000
  La  La6       1.0  0.37400  0.23700  0.73100  1.0000
  Mn  Mn1       1.0  0.00000  0.00000  0.00053  1.0000
  Mn  Mn2       1.0  0.00000  0.00000  0.50100  1.0000
  S   S1        1.0  0.89800  0.41600  0.00368  1.0000
  S   S2        1.0  0.58400  0.48200  0.00370  1.0000
  S   S3        1.0  0.51800  0.10200  0.00372  1.0000
  S   S4        1.0  0.33300  0.66700  0.02040  1.0000
  S   S5        1.0  0.23500  0.14800  0.26800  1.0000
  S   S6        1.0  0.85200  0.08700  0.26800  1.0000
  S   S7        1.0  0.91300  0.76500  0.26800  1.0000
  S   S8        1.0  0.10200  0.58400  0.50400  1.0000
  S   S9        1.0  0.41600  0.51800  0.50400  1.0000
  S   S10       1.0  0.48200  0.89800  0.50400  1.0000
  S   S11       1.0  0.66700  0.33300  0.52000  1.0000
  S   S12       1.0  0.76500  0.85200  0.76800  1.0000
  S   S13       1.0  0.14800  0.91300  0.76800  1.0000
  S   S14       1.0  0.08700  0.23500  0.76800  1.0000
