data_image0
_chemical_formula_structural       Co2Ga6Sm16
_chemical_formula_sum              "Co2 Ga6 Sm16"
_cell_length_a       10.2868
_cell_length_b       10.2867
_cell_length_c       6.98985
_cell_angle_alpha    90
_cell_angle_beta     90
_cell_angle_gamma    120

_space_group_name_H-M_alt    "P 1"
_space_group_IT_number       1

loop_
  _space_group_symop_operation_xyz
  'x, y, z'

loop_
  _atom_site_type_symbol
  _atom_site_label
  _atom_site_symmetry_multiplicity
  _atom_site_fract_x
  _atom_site_fract_y
  _atom_site_fract_z
  _atom_site_occupancy
  Co  Co1       1.0  0.33300  0.66700  0.05810  1.0000
  Co  Co2       1.0  0.66700  0.33300  0.55800  1.0000
  Ga  Ga1       1.0  0.83600  0.67200  0.03820  1.0000
  Ga  Ga2       1.0  0.32800  0.16400  0.03820  1.0000
  Ga  Ga3       1.0  0.83600  0.16400  0.03820  1.0000
  Ga  Ga4       1.0  0.16400  0.32800  0.53800  1.0000
  Ga  Ga5       1.0  0.16400  0.83600  0.53800  1.0000
  Ga  Ga6       1.0  0.67200  0.83600  0.53800  1.0000
  Sm  Sm1       1.0  0.66700  0.33300  0.17600  1.0000
  Sm  Sm2       1.0  0.00000  0.00000  0.27000  1.0000
  Sm  Sm3       1.0  0.46200  0.92500  0.29200  1.0000
  Sm  Sm4       1.0  0.07500  0.53800  0.29200  1.0000
  Sm  Sm5       1.0  0.46200  0.53800  0.29200  1.0000
  Sm  Sm6       1.0  0.34300  0.17100  0.48900  1.0000
  Sm  Sm7       1.0  0.82900  0.17100  0.48900  1.0000
  Sm  Sm8       1.0  0.82900  0.65700  0.48900  1.0000
  Sm  Sm9       1.0  0.33300  0.66700  0.67600  1.0000
  Sm  Sm10      1.0  0.00000  0.00000  0.77000  1.0000
  Sm  Sm11      1.0  0.53800  0.07500  0.79200  1.0000
  Sm  Sm12      1.0  0.53800  0.46200  0.79200  1.0000
  Sm  Sm13      1.0  0.92500  0.46200  0.79200  1.0000
  Sm  Sm14      1.0  0.17100  0.82900  0.98900  1.0000
  Sm  Sm15      1.0  0.65700  0.82900  0.98900  1.0000
  Sm  Sm16      1.0  0.17100  0.34300  0.98900  1.0000
