data_image0
_chemical_formula_structural       Pd6Se16Ta4
_chemical_formula_sum              "Pd6 Se16 Ta4"
_cell_length_a       15.3571
_cell_length_b       10.7781
_cell_length_c       3.59321
_cell_angle_alpha    90
_cell_angle_beta     90
_cell_angle_gamma    90

_space_group_name_H-M_alt    "P 1"
_space_group_IT_number       1

loop_
  _space_group_symop_operation_xyz
  'x, y, z'

loop_
  _atom_site_type_symbol
  _atom_site_label
  _atom_site_symmetry_multiplicity
  _atom_site_fract_x
  _atom_site_fract_y
  _atom_site_fract_z
  _atom_site_occupancy
  Pd  Pd1       1.0  0.00000  0.00000  0.00000  1.0000
  Pd  Pd2       1.0  0.71600  0.12100  0.00000  1.0000
  Pd  Pd3       1.0  0.21600  0.37900  0.00000  1.0000
  Pd  Pd4       1.0  0.50000  0.50000  0.00000  1.0000
  Pd  Pd5       1.0  0.78400  0.62100  0.00000  1.0000
  Pd  Pd6       1.0  0.28400  0.87900  0.00000  1.0000
  Se  Se1       1.0  0.15700  0.04480  0.00000  1.0000
  Se  Se2       1.0  0.99200  0.23000  0.00000  1.0000
  Se  Se3       1.0  0.49200  0.27000  0.00000  1.0000
  Se  Se4       1.0  0.65700  0.45500  0.00000  1.0000
  Se  Se5       1.0  0.34300  0.54500  0.00000  1.0000
  Se  Se6       1.0  0.50800  0.73000  0.00000  1.0000
  Se  Se7       1.0  0.00758  0.77000  0.00000  1.0000
  Se  Se8       1.0  0.84300  0.95500  0.00000  1.0000
  Se  Se9       1.0  0.61600  0.04630  0.50000  1.0000
  Se  Se10      1.0  0.28200  0.24900  0.50000  1.0000
  Se  Se11      1.0  0.78200  0.25100  0.50000  1.0000
  Se  Se12      1.0  0.11600  0.45400  0.50000  1.0000
  Se  Se13      1.0  0.88400  0.54600  0.50000  1.0000
  Se  Se14      1.0  0.21800  0.74900  0.50000  1.0000
  Se  Se15      1.0  0.71800  0.75100  0.50000  1.0000
  Se  Se16      1.0  0.38400  0.95400  0.50000  1.0000
  Ta  Ta1       1.0  0.11700  0.21400  0.50000  1.0000
  Ta  Ta2       1.0  0.61700  0.28600  0.50000  1.0000
  Ta  Ta3       1.0  0.38300  0.71400  0.50000  1.0000
  Ta  Ta4       1.0  0.88300  0.78600  0.50000  1.0000
