data_image0
_chemical_formula_structural       Al20Mn6
_chemical_formula_sum              "Al20 Mn6"
_cell_length_a       7.50953
_cell_length_b       7.50953
_cell_length_c       7.77895
_cell_angle_alpha    90
_cell_angle_beta     90
_cell_angle_gamma    120

_space_group_name_H-M_alt    "P 1"
_space_group_IT_number       1

loop_
  _space_group_symop_operation_xyz
  'x, y, z'

loop_
  _atom_site_type_symbol
  _atom_site_label
  _atom_site_symmetry_multiplicity
  _atom_site_fract_x
  _atom_site_fract_y
  _atom_site_fract_z
  _atom_site_occupancy
  Al  Al1       1.0  0.00000  0.00000  0.00000  1.0000
  Al  Al2       1.0  0.40000  0.20000  0.06480  1.0000
  Al  Al3       1.0  0.80000  0.20000  0.06480  1.0000
  Al  Al4       1.0  0.80000  0.60000  0.06480  1.0000
  Al  Al5       1.0  0.08610  0.54300  0.25000  1.0000
  Al  Al6       1.0  0.45700  0.54300  0.25000  1.0000
  Al  Al7       1.0  0.45700  0.91400  0.25000  1.0000
  Al  Al8       1.0  0.40000  0.20000  0.43500  1.0000
  Al  Al9       1.0  0.80000  0.20000  0.43500  1.0000
  Al  Al10      1.0  0.80000  0.60000  0.43500  1.0000
  Al  Al11      1.0  0.00000  0.00000  0.50000  1.0000
  Al  Al12      1.0  0.20000  0.40000  0.56500  1.0000
  Al  Al13      1.0  0.20000  0.80000  0.56500  1.0000
  Al  Al14      1.0  0.60000  0.80000  0.56500  1.0000
  Al  Al15      1.0  0.54300  0.08610  0.75000  1.0000
  Al  Al16      1.0  0.54300  0.45700  0.75000  1.0000
  Al  Al17      1.0  0.91400  0.45700  0.75000  1.0000
  Al  Al18      1.0  0.20000  0.40000  0.93500  1.0000
  Al  Al19      1.0  0.20000  0.80000  0.93500  1.0000
  Al  Al20      1.0  0.60000  0.80000  0.93500  1.0000
  Mn  Mn1       1.0  0.12100  0.24200  0.25000  1.0000
  Mn  Mn2       1.0  0.12100  0.87900  0.25000  1.0000
  Mn  Mn3       1.0  0.75800  0.87900  0.25000  1.0000
  Mn  Mn4       1.0  0.24200  0.12100  0.75000  1.0000
  Mn  Mn5       1.0  0.87900  0.12100  0.75000  1.0000
  Mn  Mn6       1.0  0.87900  0.75800  0.75000  1.0000
