data_image0
_chemical_formula_structural       P12Sn4Sr10
_chemical_formula_sum              "P12 Sn4 Sr10"
_cell_length_a       13.9064
_cell_length_b       12.2795
_cell_length_c       4.16043
_cell_angle_alpha    90
_cell_angle_beta     90
_cell_angle_gamma    90

_space_group_name_H-M_alt    "P 1"
_space_group_IT_number       1

loop_
  _space_group_symop_operation_xyz
  'x, y, z'

loop_
  _atom_site_type_symbol
  _atom_site_label
  _atom_site_symmetry_multiplicity
  _atom_site_fract_x
  _atom_site_fract_y
  _atom_site_fract_z
  _atom_site_occupancy
  P   P1        1.0  0.19400  0.13400  0.00000  1.0000
  P   P2        1.0  0.69400  0.36600  0.00000  1.0000
  P   P3        1.0  0.30600  0.63400  0.00000  1.0000
  P   P4        1.0  0.80600  0.86600  0.00000  1.0000
  P   P5        1.0  0.60300  0.07910  0.50000  1.0000
  P   P6        1.0  0.92400  0.17000  0.50000  1.0000
  P   P7        1.0  0.42400  0.33000  0.50000  1.0000
  P   P8        1.0  0.10300  0.42100  0.50000  1.0000
  P   P9        1.0  0.89700  0.57900  0.50000  1.0000
  P   P10       1.0  0.57600  0.67000  0.50000  1.0000
  P   P11       1.0  0.07570  0.83000  0.50000  1.0000
  P   P12       1.0  0.39700  0.92100  0.50000  1.0000
  Sn  Sn1       1.0  0.10400  0.21500  0.50000  1.0000
  Sn  Sn2       1.0  0.60400  0.28500  0.50000  1.0000
  Sn  Sn3       1.0  0.39600  0.71500  0.50000  1.0000
  Sn  Sn4       1.0  0.89600  0.78500  0.50000  1.0000
  Sr  Sr1       1.0  0.00000  0.00000  0.00000  1.0000
  Sr  Sr2       1.0  0.75800  0.11900  0.00000  1.0000
  Sr  Sr3       1.0  0.43100  0.12900  0.00000  1.0000
  Sr  Sr4       1.0  0.93100  0.37100  0.00000  1.0000
  Sr  Sr5       1.0  0.25800  0.38100  0.00000  1.0000
  Sr  Sr6       1.0  0.50000  0.50000  0.00000  1.0000
  Sr  Sr7       1.0  0.74200  0.61900  0.00000  1.0000
  Sr  Sr8       1.0  0.06930  0.62900  0.00000  1.0000
  Sr  Sr9       1.0  0.56900  0.87100  0.00000  1.0000
  Sr  Sr10      1.0  0.24200  0.88100  0.00000  1.0000
