data_image0
_chemical_formula_structural       Al2Fe2Nd6S14
_chemical_formula_sum              "Al2 Fe2 Nd6 S14"
_cell_length_a       10.0136
_cell_length_b       9.97653
_cell_length_c       6.05083
_cell_angle_alpha    90
_cell_angle_beta     90
_cell_angle_gamma    119.73

_space_group_name_H-M_alt    "P 1"
_space_group_IT_number       1

loop_
  _space_group_symop_operation_xyz
  'x, y, z'

loop_
  _atom_site_type_symbol
  _atom_site_label
  _atom_site_symmetry_multiplicity
  _atom_site_fract_x
  _atom_site_fract_y
  _atom_site_fract_z
  _atom_site_occupancy
  Al  Al1       1.0  0.66800  0.33300  0.16100  1.0000
  Al  Al2       1.0  0.33200  0.66700  0.66100  1.0000
  Fe  Fe1       1.0  0.00000  0.00042  0.03300  1.0000
  Fe  Fe2       1.0  0.00000  0.00000  0.53300  1.0000
  Nd  Nd1       1.0  0.62200  0.76700  0.23900  1.0000
  Nd  Nd2       1.0  0.23100  0.85900  0.24000  1.0000
  Nd  Nd3       1.0  0.14300  0.37400  0.24000  1.0000
  Nd  Nd4       1.0  0.37800  0.23300  0.73900  1.0000
  Nd  Nd5       1.0  0.76900  0.14100  0.74000  1.0000
  Nd  Nd6       1.0  0.85700  0.62600  0.74000  1.0000
  S   S1        1.0  0.90300  0.42000  0.01080  1.0000
  S   S2        1.0  0.51900  0.09630  0.01180  1.0000
  S   S3        1.0  0.58100  0.48200  0.01210  1.0000
  S   S4        1.0  0.33100  0.66600  0.02810  1.0000
  S   S5        1.0  0.85700  0.09000  0.29600  1.0000
  S   S6        1.0  0.90800  0.76700  0.29700  1.0000
  S   S7        1.0  0.23600  0.14400  0.29700  1.0000
  S   S8        1.0  0.09700  0.58000  0.51100  1.0000
  S   S9        1.0  0.48100  0.90400  0.51200  1.0000
  S   S10       1.0  0.41900  0.51800  0.51200  1.0000
  S   S11       1.0  0.66900  0.33400  0.52800  1.0000
  S   S12       1.0  0.14300  0.91000  0.79600  1.0000
  S   S13       1.0  0.09230  0.23300  0.79700  1.0000
  S   S14       1.0  0.76400  0.85600  0.79700  1.0000
