data_image0
_chemical_formula_structural       In4Ir4Y16
_chemical_formula_sum              "In4 Ir4 Y16"
_cell_length_a       9.6979
_cell_length_b       9.6979
_cell_length_c       9.6979
_cell_angle_alpha    120
_cell_angle_beta     90
_cell_angle_gamma    120

_space_group_name_H-M_alt    "P 1"
_space_group_IT_number       1

loop_
  _space_group_symop_operation_xyz
  'x, y, z'

loop_
  _atom_site_type_symbol
  _atom_site_label
  _atom_site_symmetry_multiplicity
  _atom_site_fract_x
  _atom_site_fract_y
  _atom_site_fract_z
  _atom_site_occupancy
  In  In1       1.0  0.58300  0.16600  0.41700  1.0000
  In  In2       1.0  0.25100  0.83400  0.41700  1.0000
  In  In3       1.0  0.58300  0.83400  0.41700  1.0000
  In  In4       1.0  0.58300  0.16600  0.74900  1.0000
  Ir  Ir1       1.0  0.14100  0.28200  0.42300  1.0000
  Ir  Ir2       1.0  0.14100  0.28200  0.85900  1.0000
  Ir  Ir3       1.0  0.14100  0.71800  0.85900  1.0000
  Ir  Ir4       1.0  0.57700  0.71800  0.85900  1.0000
  Y   Y1        1.0  0.34900  0.69800  0.04640  1.0000
  Y   Y2        1.0  0.94000  0.50000  0.05980  1.0000
  Y   Y3        1.0  0.56000  0.12000  0.05980  1.0000
  Y   Y4        1.0  0.56000  0.50000  0.05980  1.0000
  Y   Y5        1.0  0.80800  0.00000  0.19200  1.0000
  Y   Y6        1.0  0.19200  0.00000  0.19200  1.0000
  Y   Y7        1.0  0.19200  0.38400  0.19200  1.0000
  Y   Y8        1.0  0.56000  0.50000  0.44000  1.0000
  Y   Y9        1.0  0.94000  0.50000  0.44000  1.0000
  Y   Y10       1.0  0.94000  0.88000  0.44000  1.0000
  Y   Y11       1.0  0.34900  0.30200  0.65100  1.0000
  Y   Y12       1.0  0.34900  0.69800  0.65100  1.0000
  Y   Y13       1.0  0.95400  0.30200  0.65100  1.0000
  Y   Y14       1.0  0.19200  0.00000  0.80800  1.0000
  Y   Y15       1.0  0.80800  0.00000  0.80800  1.0000
  Y   Y16       1.0  0.80800  0.61600  0.80800  1.0000
