data_image0
_chemical_formula_structural       Al4I16In4
_chemical_formula_sum              "Al4 I16 In4"
_cell_length_a       7.36277
_cell_length_b       11.92
_cell_length_c       12.3085
_cell_angle_alpha    90
_cell_angle_beta     95.9989
_cell_angle_gamma    90

_space_group_name_H-M_alt    "P 1"
_space_group_IT_number       1

loop_
  _space_group_symop_operation_xyz
  'x, y, z'

loop_
  _atom_site_type_symbol
  _atom_site_label
  _atom_site_symmetry_multiplicity
  _atom_site_fract_x
  _atom_site_fract_y
  _atom_site_fract_z
  _atom_site_occupancy
  Al  Al1       1.0  0.56900  0.25000  0.02500  1.0000
  Al  Al2       1.0  0.22600  0.75000  0.44400  1.0000
  Al  Al3       1.0  0.77400  0.25000  0.55600  1.0000
  Al  Al4       1.0  0.43100  0.75000  0.97500  1.0000
  I   I1        1.0  0.76800  0.07430  0.04950  1.0000
  I   I2        1.0  0.76800  0.42600  0.04950  1.0000
  I   I3        1.0  0.61800  0.75000  0.16200  1.0000
  I   I4        1.0  0.34400  0.25000  0.17300  1.0000
  I   I5        1.0  0.12400  0.57200  0.34000  1.0000
  I   I6        1.0  0.12400  0.92800  0.34000  1.0000
  I   I7        1.0  0.89700  0.25000  0.36700  1.0000
  I   I8        1.0  0.57600  0.75000  0.48700  1.0000
  I   I9        1.0  0.42400  0.25000  0.51300  1.0000
  I   I10       1.0  0.10300  0.75000  0.63300  1.0000
  I   I11       1.0  0.87600  0.07180  0.66000  1.0000
  I   I12       1.0  0.87600  0.42800  0.66000  1.0000
  I   I13       1.0  0.65600  0.75000  0.82700  1.0000
  I   I14       1.0  0.38200  0.25000  0.83800  1.0000
  I   I15       1.0  0.23200  0.57400  0.95000  1.0000
  I   I16       1.0  0.23200  0.92600  0.95000  1.0000
  In  In1       1.0  0.59300  0.01930  0.29200  1.0000
  In  In2       1.0  0.59300  0.48100  0.29200  1.0000
  In  In3       1.0  0.40700  0.51900  0.70800  1.0000
  In  In4       1.0  0.40700  0.98100  0.70800  1.0000
