data_image0
_chemical_formula_structural       Cs3Mo4O16P3
_chemical_formula_sum              "Cs3 Mo4 O16 P3"
_cell_length_a       7.69792
_cell_length_b       7.69792
_cell_length_c       7.69753
_cell_angle_alpha    90
_cell_angle_beta     90
_cell_angle_gamma    90

_space_group_name_H-M_alt    "P 1"
_space_group_IT_number       1

loop_
  _space_group_symop_operation_xyz
  'x, y, z'

loop_
  _atom_site_type_symbol
  _atom_site_label
  _atom_site_symmetry_multiplicity
  _atom_site_fract_x
  _atom_site_fract_y
  _atom_site_fract_z
  _atom_site_occupancy
  Cs  Cs1       1.0  0.50000  0.00000  0.00000  1.0000
  Cs  Cs2       1.0  0.00000  0.50000  0.00000  1.0000
  Cs  Cs3       1.0  0.00000  0.00000  0.50000  1.0000
  Mo  Mo1       1.0  0.38100  0.38100  0.38100  1.0000
  Mo  Mo2       1.0  0.61900  0.61900  0.38100  1.0000
  Mo  Mo3       1.0  0.61900  0.38100  0.61900  1.0000
  Mo  Mo4       1.0  0.38100  0.61900  0.61900  1.0000
  O   O1        1.0  0.38000  0.38000  0.11000  1.0000
  O   O2        1.0  0.62000  0.62000  0.11000  1.0000
  O   O3        1.0  0.64500  0.35500  0.35400  1.0000
  O   O4        1.0  0.35500  0.64500  0.35400  1.0000
  O   O5        1.0  0.38000  0.10900  0.38000  1.0000
  O   O6        1.0  0.10900  0.38000  0.38000  1.0000
  O   O7        1.0  0.89100  0.62000  0.38000  1.0000
  O   O8        1.0  0.62000  0.89100  0.38000  1.0000
  O   O9        1.0  0.62000  0.10900  0.62000  1.0000
  O   O10       1.0  0.89100  0.38000  0.62000  1.0000
  O   O11       1.0  0.10900  0.62000  0.62000  1.0000
  O   O12       1.0  0.38000  0.89100  0.62000  1.0000
  O   O13       1.0  0.35500  0.35500  0.64600  1.0000
  O   O14       1.0  0.64500  0.64500  0.64600  1.0000
  O   O15       1.0  0.62000  0.38000  0.89000  1.0000
  O   O16       1.0  0.38000  0.62000  0.89000  1.0000
  P   P1        1.0  0.50000  0.50000  0.00000  1.0000
  P   P2        1.0  0.50000  0.00000  0.50000  1.0000
  P   P3        1.0  0.00000  0.50000  0.50000  1.0000
