data_image0
_chemical_formula_structural       O16Te6Zn4
_chemical_formula_sum              "O16 Te6 Zn4"
_cell_length_a       5.19395
_cell_length_b       6.78442
_cell_length_c       11.7078
_cell_angle_alpha    98.7876
_cell_angle_beta     90
_cell_angle_gamma    112.506

_space_group_name_H-M_alt    "P 1"
_space_group_IT_number       1

loop_
  _space_group_symop_operation_xyz
  'x, y, z'

loop_
  _atom_site_type_symbol
  _atom_site_label
  _atom_site_symmetry_multiplicity
  _atom_site_fract_x
  _atom_site_fract_y
  _atom_site_fract_z
  _atom_site_occupancy
  O   O1        1.0  0.74900  0.53400  0.03580  1.0000
  O   O2        1.0  0.73400  0.22500  0.13600  1.0000
  O   O3        1.0  0.34400  0.83700  0.14200  1.0000
  O   O4        1.0  0.31100  0.38200  0.18900  1.0000
  O   O5        1.0  0.92900  0.61800  0.31100  1.0000
  O   O6        1.0  0.50600  0.16300  0.35800  1.0000
  O   O7        1.0  0.50900  0.77500  0.36400  1.0000
  O   O8        1.0  0.21500  0.46600  0.46400  1.0000
  O   O9        1.0  0.78500  0.53400  0.53600  1.0000
  O   O10       1.0  0.49100  0.22500  0.63600  1.0000
  O   O11       1.0  0.49400  0.83700  0.64200  1.0000
  O   O12       1.0  0.07120  0.38200  0.68900  1.0000
  O   O13       1.0  0.68900  0.61800  0.81100  1.0000
  O   O14       1.0  0.65600  0.16300  0.85800  1.0000
  O   O15       1.0  0.26600  0.77500  0.86400  1.0000
  O   O16       1.0  0.25100  0.46600  0.96400  1.0000
  Te  Te1       1.0  0.43300  0.26600  0.05020  1.0000
  Te  Te2       1.0  0.65500  0.00000  0.25000  1.0000
  Te  Te3       1.0  0.16700  0.73400  0.45000  1.0000
  Te  Te4       1.0  0.83300  0.26600  0.55000  1.0000
  Te  Te5       1.0  0.34500  0.00000  0.75000  1.0000
  Te  Te6       1.0  0.56700  0.73400  0.95000  1.0000
  Zn  Zn1       1.0  0.06080  0.54100  0.15500  1.0000
  Zn  Zn2       1.0  0.52000  0.45900  0.34500  1.0000
  Zn  Zn3       1.0  0.48000  0.54100  0.65500  1.0000
  Zn  Zn4       1.0  0.93900  0.45900  0.84500  1.0000
