data_image0
_chemical_formula_structural       Cl4O12Pb4V4
_chemical_formula_sum              "Cl4 O12 Pb4 V4"
_cell_length_a       10.0308
_cell_length_b       5.2829
_cell_length_c       7.11467
_cell_angle_alpha    90
_cell_angle_beta     90
_cell_angle_gamma    90

_space_group_name_H-M_alt    "P 1"
_space_group_IT_number       1

loop_
  _space_group_symop_operation_xyz
  'x, y, z'

loop_
  _atom_site_type_symbol
  _atom_site_label
  _atom_site_symmetry_multiplicity
  _atom_site_fract_x
  _atom_site_fract_y
  _atom_site_fract_z
  _atom_site_occupancy
  Cl  Cl1       1.0  0.89500  0.75000  0.05540  1.0000
  Cl  Cl2       1.0  0.39500  0.75000  0.44500  1.0000
  Cl  Cl3       1.0  0.60500  0.25000  0.55500  1.0000
  Cl  Cl4       1.0  0.10500  0.25000  0.94500  1.0000
  O   O1        1.0  0.59300  0.50200  0.11000  1.0000
  O   O2        1.0  0.59300  0.99800  0.11000  1.0000
  O   O3        1.0  0.35700  0.25000  0.23300  1.0000
  O   O4        1.0  0.85700  0.25000  0.26700  1.0000
  O   O5        1.0  0.09340  0.50200  0.39000  1.0000
  O   O6        1.0  0.09340  0.99800  0.39000  1.0000
  O   O7        1.0  0.90700  0.00240  0.61000  1.0000
  O   O8        1.0  0.90700  0.49800  0.61000  1.0000
  O   O9        1.0  0.14300  0.75000  0.73300  1.0000
  O   O10       1.0  0.64300  0.75000  0.76700  1.0000
  O   O11       1.0  0.40700  0.00240  0.89000  1.0000
  O   O12       1.0  0.40700  0.49800  0.89000  1.0000
  Pb  Pb1       1.0  0.17500  0.75000  0.09900  1.0000
  Pb  Pb2       1.0  0.67500  0.75000  0.40100  1.0000
  Pb  Pb3       1.0  0.32500  0.25000  0.59900  1.0000
  Pb  Pb4       1.0  0.82500  0.25000  0.90100  1.0000
  V   V1        1.0  0.46700  0.25000  0.06310  1.0000
  V   V2        1.0  0.96700  0.25000  0.43700  1.0000
  V   V3        1.0  0.03260  0.75000  0.56300  1.0000
  V   V4        1.0  0.53300  0.75000  0.93700  1.0000
