data_image0
_chemical_formula_structural       Co2Er16Ga6
_chemical_formula_sum              "Co2 Er16 Ga6"
_cell_length_a       9.9183
_cell_length_b       9.91832
_cell_length_c       6.84883
_cell_angle_alpha    90
_cell_angle_beta     90
_cell_angle_gamma    120

_space_group_name_H-M_alt    "P 1"
_space_group_IT_number       1

loop_
  _space_group_symop_operation_xyz
  'x, y, z'

loop_
  _atom_site_type_symbol
  _atom_site_label
  _atom_site_symmetry_multiplicity
  _atom_site_fract_x
  _atom_site_fract_y
  _atom_site_fract_z
  _atom_site_occupancy
  Co  Co1       1.0  0.33300  0.66700  0.05950  1.0000
  Co  Co2       1.0  0.66700  0.33300  0.56000  1.0000
  Er  Er1       1.0  0.66700  0.33300  0.17300  1.0000
  Er  Er2       1.0  0.00000  0.00000  0.27000  1.0000
  Er  Er3       1.0  0.46400  0.92900  0.29300  1.0000
  Er  Er4       1.0  0.07120  0.53600  0.29300  1.0000
  Er  Er5       1.0  0.46400  0.53600  0.29300  1.0000
  Er  Er6       1.0  0.34600  0.17300  0.49200  1.0000
  Er  Er7       1.0  0.82700  0.17300  0.49200  1.0000
  Er  Er8       1.0  0.82700  0.65400  0.49200  1.0000
  Er  Er9       1.0  0.33300  0.66700  0.67300  1.0000
  Er  Er10      1.0  0.00000  0.00000  0.77000  1.0000
  Er  Er11      1.0  0.53600  0.07120  0.79300  1.0000
  Er  Er12      1.0  0.53600  0.46400  0.79300  1.0000
  Er  Er13      1.0  0.92900  0.46400  0.79300  1.0000
  Er  Er14      1.0  0.17300  0.82700  0.99200  1.0000
  Er  Er15      1.0  0.65400  0.82700  0.99200  1.0000
  Er  Er16      1.0  0.17300  0.34600  0.99200  1.0000
  Ga  Ga1       1.0  0.83700  0.67300  0.03900  1.0000
  Ga  Ga2       1.0  0.32700  0.16300  0.03900  1.0000
  Ga  Ga3       1.0  0.83700  0.16300  0.03900  1.0000
  Ga  Ga4       1.0  0.16300  0.32700  0.53900  1.0000
  Ga  Ga5       1.0  0.16300  0.83700  0.53900  1.0000
  Ga  Ga6       1.0  0.67300  0.83700  0.53900  1.0000
