data_image0
_chemical_formula_structural       Cl4Cu2O12Se4Sr4
_chemical_formula_sum              "Cl4 Cu2 O12 Se4 Sr4"
_cell_length_a       5.232
_cell_length_b       6.5151
_cell_length_c       12.2996
_cell_angle_alpha    90
_cell_angle_beta     91.4964
_cell_angle_gamma    90

_space_group_name_H-M_alt    "P 1"
_space_group_IT_number       1

loop_
  _space_group_symop_operation_xyz
  'x, y, z'

loop_
  _atom_site_type_symbol
  _atom_site_label
  _atom_site_symmetry_multiplicity
  _atom_site_fract_x
  _atom_site_fract_y
  _atom_site_fract_z
  _atom_site_occupancy
  Cl  Cl1       1.0  0.53500  0.14200  0.11300  1.0000
  Cl  Cl2       1.0  0.96500  0.64200  0.38700  1.0000
  Cl  Cl3       1.0  0.03490  0.35800  0.61300  1.0000
  Cl  Cl4       1.0  0.46500  0.85800  0.88700  1.0000
  Cu  Cu1       1.0  0.50000  0.50000  0.00000  1.0000
  Cu  Cu2       1.0  0.00000  0.00000  0.50000  1.0000
  O   O1        1.0  0.22800  0.56800  0.10300  1.0000
  O   O2        1.0  0.73900  0.60400  0.11500  1.0000
  O   O3        1.0  0.04200  0.91100  0.18000  1.0000
  O   O4        1.0  0.45800  0.41100  0.32000  1.0000
  O   O5        1.0  0.76100  0.10400  0.38500  1.0000
  O   O6        1.0  0.27200  0.06850  0.39700  1.0000
  O   O7        1.0  0.72800  0.93200  0.60300  1.0000
  O   O8        1.0  0.23900  0.89600  0.61500  1.0000
  O   O9        1.0  0.54200  0.58900  0.68000  1.0000
  O   O10       1.0  0.95800  0.08870  0.82000  1.0000
  O   O11       1.0  0.26100  0.39600  0.88500  1.0000
  O   O12       1.0  0.77200  0.43200  0.89700  1.0000
  Se  Se1       1.0  0.99400  0.75500  0.07140  1.0000
  Se  Se2       1.0  0.50600  0.25500  0.42900  1.0000
  Se  Se3       1.0  0.49400  0.74500  0.57100  1.0000
  Se  Se4       1.0  0.00590  0.24500  0.92900  1.0000
  Sr  Sr1       1.0  0.01160  0.28700  0.23100  1.0000
  Sr  Sr2       1.0  0.48800  0.78700  0.26900  1.0000
  Sr  Sr3       1.0  0.51200  0.21300  0.73100  1.0000
  Sr  Sr4       1.0  0.98800  0.71300  0.76900  1.0000
