data_image0
_chemical_formula_structural       Cu3O8V2
_chemical_formula_sum              "Cu3 O8 V2"
_cell_length_a       5.16079
_cell_length_b       5.31446
_cell_length_c       6.50068
_cell_angle_alpha    68.7272
_cell_angle_beta     88.1578
_cell_angle_gamma    67.8006

_space_group_name_H-M_alt    "P 1"
_space_group_IT_number       1

loop_
  _space_group_symop_operation_xyz
  'x, y, z'

loop_
  _atom_site_type_symbol
  _atom_site_label
  _atom_site_symmetry_multiplicity
  _atom_site_fract_x
  _atom_site_fract_y
  _atom_site_fract_z
  _atom_site_occupancy
  Cu  Cu1       1.0  0.00000  0.00000  0.00000  1.0000
  Cu  Cu2       1.0  0.27900  0.21600  0.31400  1.0000
  Cu  Cu3       1.0  0.72100  0.78400  0.68600  1.0000
  O   O1        1.0  0.23600  0.19000  0.03120  1.0000
  O   O2        1.0  0.30500  0.62500  0.16500  1.0000
  O   O3        1.0  0.86700  0.30300  0.34500  1.0000
  O   O4        1.0  0.61700  0.83500  0.39100  1.0000
  O   O5        1.0  0.38300  0.16500  0.60900  1.0000
  O   O6        1.0  0.13300  0.69700  0.65500  1.0000
  O   O7        1.0  0.69500  0.37500  0.83500  1.0000
  O   O8        1.0  0.76400  0.81000  0.96900  1.0000
  V   V1        1.0  0.62800  0.64500  0.21700  1.0000
  V   V2        1.0  0.37200  0.35500  0.78300  1.0000
