data_image0
_chemical_formula_structural       Ni4O16P4Sr2
_chemical_formula_sum              "Ni4 O16 P4 Sr2"
_cell_length_a       5.44392
_cell_length_b       6.63195
_cell_length_c       9.09278
_cell_angle_alpha    110.633
_cell_angle_beta     100.859
_cell_angle_gamma    97.94

_space_group_name_H-M_alt    "P 1"
_space_group_IT_number       1

loop_
  _space_group_symop_operation_xyz
  'x, y, z'

loop_
  _atom_site_type_symbol
  _atom_site_label
  _atom_site_symmetry_multiplicity
  _atom_site_fract_x
  _atom_site_fract_y
  _atom_site_fract_z
  _atom_site_occupancy
  Ni  Ni1       1.0  0.14300  0.85700  0.05970  1.0000
  Ni  Ni2       1.0  0.49200  0.41300  0.15600  1.0000
  Ni  Ni3       1.0  0.50800  0.58700  0.84400  1.0000
  Ni  Ni4       1.0  0.85700  0.14300  0.94000  1.0000
  O   O1        1.0  0.50200  0.73100  0.08140  1.0000
  O   O2        1.0  0.11800  0.40500  0.08960  1.0000
  O   O3        1.0  0.88100  0.04730  0.13200  1.0000
  O   O4        1.0  0.45100  0.11900  0.18600  1.0000
  O   O5        1.0  0.15100  0.80600  0.26300  1.0000
  O   O6        1.0  0.85100  0.51100  0.30000  1.0000
  O   O7        1.0  0.75000  0.00293  0.37300  1.0000
  O   O8        1.0  0.34000  0.54600  0.37400  1.0000
  O   O9        1.0  0.66000  0.45400  0.62600  1.0000
  O   O10       1.0  0.25000  0.99700  0.62700  1.0000
  O   O11       1.0  0.14900  0.48900  0.70000  1.0000
  O   O12       1.0  0.84900  0.19400  0.73700  1.0000
  O   O13       1.0  0.54900  0.88100  0.81400  1.0000
  O   O14       1.0  0.11900  0.95300  0.86800  1.0000
  O   O15       1.0  0.88200  0.59500  0.91000  1.0000
  O   O16       1.0  0.49800  0.26900  0.91900  1.0000
  P   P1        1.0  0.65500  0.97400  0.19700  1.0000
  P   P2        1.0  0.10700  0.57100  0.25900  1.0000
  P   P3        1.0  0.89300  0.42900  0.74100  1.0000
  P   P4        1.0  0.34500  0.02620  0.80300  1.0000
  Sr  Sr1       1.0  0.24100  0.20300  0.44400  1.0000
  Sr  Sr2       1.0  0.75900  0.79700  0.55600  1.0000
