data_image0
_chemical_formula_structural       Ca2FeH8O12P2
_chemical_formula_sum              "Ca2 Fe1 H8 O12 P2"
_cell_length_a       6.36262
_cell_length_b       6.73882
_cell_length_c       5.8007
_cell_angle_alpha    101.428
_cell_angle_beta     104.456
_cell_angle_gamma    70.8575

_space_group_name_H-M_alt    "P 1"
_space_group_IT_number       1

loop_
  _space_group_symop_operation_xyz
  'x, y, z'

loop_
  _atom_site_type_symbol
  _atom_site_label
  _atom_site_symmetry_multiplicity
  _atom_site_fract_x
  _atom_site_fract_y
  _atom_site_fract_z
  _atom_site_occupancy
  Ca  Ca1       1.0  0.66600  0.79600  0.29100  1.0000
  Ca  Ca2       1.0  0.33400  0.20400  0.70900  1.0000
  Fe  Fe1       1.0  0.00000  0.00000  0.00000  1.0000
  H   H1        1.0  0.14400  0.62100  0.17800  1.0000
  H   H2        1.0  0.17700  0.29000  0.23300  1.0000
  H   H3        1.0  0.94300  0.32700  0.32700  1.0000
  H   H4        1.0  0.16800  0.80900  0.37400  1.0000
  H   H5        1.0  0.83200  0.19100  0.62600  1.0000
  H   H6        1.0  0.05700  0.67300  0.67300  1.0000
  H   H7        1.0  0.82300  0.71000  0.76700  1.0000
  H   H8        1.0  0.85600  0.37900  0.82200  1.0000
  O   O1        1.0  0.66600  0.12500  0.02310  1.0000
  O   O2        1.0  0.31000  0.38300  0.11800  1.0000
  O   O3        1.0  0.05140  0.76700  0.23900  1.0000
  O   O4        1.0  0.09700  0.22000  0.31200  1.0000
  O   O5        1.0  0.69100  0.45500  0.32300  1.0000
  O   O6        1.0  0.59300  0.15800  0.43700  1.0000
  O   O7        1.0  0.40700  0.84200  0.56300  1.0000
  O   O8        1.0  0.30900  0.54500  0.67700  1.0000
  O   O9        1.0  0.90300  0.78000  0.68800  1.0000
  O   O10       1.0  0.94900  0.23300  0.76100  1.0000
  O   O11       1.0  0.69000  0.61700  0.88200  1.0000
  O   O12       1.0  0.33400  0.87500  0.97700  1.0000
  P   P1        1.0  0.56500  0.28700  0.23100  1.0000
  P   P2        1.0  0.43500  0.71300  0.76900  1.0000
