data_image0
_chemical_formula_structural       Al20Fe4Y2
_chemical_formula_sum              "Al20 Fe4 Y2"
_cell_length_a       6.74736
_cell_length_b       6.74736
_cell_length_c       8.96372
_cell_angle_alpha    90
_cell_angle_beta     90
_cell_angle_gamma    97.1155

_space_group_name_H-M_alt    "P 1"
_space_group_IT_number       1

loop_
  _space_group_symop_operation_xyz
  'x, y, z'

loop_
  _atom_site_type_symbol
  _atom_site_label
  _atom_site_symmetry_multiplicity
  _atom_site_fract_x
  _atom_site_fract_y
  _atom_site_fract_z
  _atom_site_occupancy
  Al  Al1       1.0  0.22700  0.22700  0.00000  1.0000
  Al  Al2       1.0  0.77300  0.77300  0.00000  1.0000
  Al  Al3       1.0  0.37500  0.62500  0.05040  1.0000
  Al  Al4       1.0  0.84100  0.15900  0.09690  1.0000
  Al  Al5       1.0  0.47800  0.22000  0.25000  1.0000
  Al  Al6       1.0  0.13300  0.41400  0.25000  1.0000
  Al  Al7       1.0  0.78000  0.52200  0.25000  1.0000
  Al  Al8       1.0  0.58600  0.86700  0.25000  1.0000
  Al  Al9       1.0  0.84100  0.15900  0.40300  1.0000
  Al  Al10      1.0  0.37500  0.62500  0.45000  1.0000
  Al  Al11      1.0  0.22700  0.22700  0.50000  1.0000
  Al  Al12      1.0  0.77300  0.77300  0.50000  1.0000
  Al  Al13      1.0  0.62500  0.37500  0.55000  1.0000
  Al  Al14      1.0  0.15900  0.84100  0.59700  1.0000
  Al  Al15      1.0  0.41400  0.13300  0.75000  1.0000
  Al  Al16      1.0  0.22000  0.47800  0.75000  1.0000
  Al  Al17      1.0  0.86700  0.58600  0.75000  1.0000
  Al  Al18      1.0  0.52200  0.78000  0.75000  1.0000
  Al  Al19      1.0  0.15900  0.84100  0.90300  1.0000
  Al  Al20      1.0  0.62500  0.37500  0.95000  1.0000
  Fe  Fe1       1.0  0.50000  0.00000  0.00000  1.0000
  Fe  Fe2       1.0  0.00000  0.50000  0.00000  1.0000
  Fe  Fe3       1.0  0.50000  0.00000  0.50000  1.0000
  Fe  Fe4       1.0  0.00000  0.50000  0.50000  1.0000
  Y   Y1        1.0  0.12600  0.87400  0.25000  1.0000
  Y   Y2        1.0  0.87400  0.12600  0.75000  1.0000
