data_image0
_chemical_formula_structural       Mo6O18Tl2
_chemical_formula_sum              "Mo6 O18 Tl2"
_cell_length_a       6.40707
_cell_length_b       7.72926
_cell_length_c       8.17787
_cell_angle_alpha    118.201
_cell_angle_beta     92.748
_cell_angle_gamma    90

_space_group_name_H-M_alt    "P 1"
_space_group_IT_number       1

loop_
  _space_group_symop_operation_xyz
  'x, y, z'

loop_
  _atom_site_type_symbol
  _atom_site_label
  _atom_site_symmetry_multiplicity
  _atom_site_fract_x
  _atom_site_fract_y
  _atom_site_fract_z
  _atom_site_occupancy
  Mo  Mo1       1.0  0.26900  0.32100  0.12200  1.0000
  Mo  Mo2       1.0  0.26900  0.80100  0.12200  1.0000
  Mo  Mo3       1.0  0.64300  0.12200  0.24500  1.0000
  Mo  Mo4       1.0  0.35700  0.87800  0.75500  1.0000
  Mo  Mo5       1.0  0.73100  0.19900  0.87800  1.0000
  Mo  Mo6       1.0  0.73100  0.67900  0.87800  1.0000
  O   O1        1.0  0.00000  0.25900  0.00000  1.0000
  O   O2        1.0  0.00000  0.74100  0.00000  1.0000
  O   O3        1.0  0.30900  0.03830  0.07650  1.0000
  O   O4        1.0  0.29600  0.54100  0.08180  1.0000
  O   O5        1.0  0.59100  0.32300  0.16700  1.0000
  O   O6        1.0  0.59100  0.84400  0.16700  1.0000
  O   O7        1.0  0.90800  0.15100  0.30100  1.0000
  O   O8        1.0  0.20800  0.43300  0.34900  1.0000
  O   O9        1.0  0.20800  0.91700  0.34900  1.0000
  O   O10       1.0  0.52200  0.22700  0.45400  1.0000
  O   O11       1.0  0.47800  0.77300  0.54600  1.0000
  O   O12       1.0  0.79200  0.08310  0.65100  1.0000
  O   O13       1.0  0.79200  0.56700  0.65100  1.0000
  O   O14       1.0  0.09200  0.84900  0.69900  1.0000
  O   O15       1.0  0.40900  0.15600  0.83300  1.0000
  O   O16       1.0  0.40900  0.67700  0.83300  1.0000
  O   O17       1.0  0.70400  0.45900  0.91800  1.0000
  O   O18       1.0  0.69100  0.96200  0.92300  1.0000
  Tl  Tl1       1.0  0.82900  0.68700  0.37500  1.0000
  Tl  Tl2       1.0  0.17100  0.31300  0.62500  1.0000
