data_image0
_chemical_formula_structural       N4O16Pb4Se2
_chemical_formula_sum              "N4 O16 Pb4 Se2"
_cell_length_a       5.50898
_cell_length_b       10.025
_cell_length_c       6.59471
_cell_angle_alpha    90
_cell_angle_beta     90
_cell_angle_gamma    90

_space_group_name_H-M_alt    "P 1"
_space_group_IT_number       1

loop_
  _space_group_symop_operation_xyz
  'x, y, z'

loop_
  _atom_site_type_symbol
  _atom_site_label
  _atom_site_symmetry_multiplicity
  _atom_site_fract_x
  _atom_site_fract_y
  _atom_site_fract_z
  _atom_site_occupancy
  N   N1        1.0  0.00000  0.98600  0.12700  1.0000
  N   N2        1.0  0.50000  0.68500  0.41600  1.0000
  N   N3        1.0  0.50000  0.01440  0.62700  1.0000
  N   N4        1.0  0.00000  0.31500  0.91600  1.0000
  O   O1        1.0  0.00000  0.87800  0.02790  1.0000
  O   O2        1.0  0.50000  0.46500  0.07920  1.0000
  O   O3        1.0  0.20000  0.03910  0.17800  1.0000
  O   O4        1.0  0.80000  0.03910  0.17800  1.0000
  O   O5        1.0  0.30600  0.72700  0.33500  1.0000
  O   O6        1.0  0.69400  0.72700  0.33500  1.0000
  O   O7        1.0  0.25600  0.34300  0.35800  1.0000
  O   O8        1.0  0.74400  0.34300  0.35800  1.0000
  O   O9        1.0  0.50000  0.12200  0.52800  1.0000
  O   O10       1.0  0.00000  0.53500  0.57900  1.0000
  O   O11       1.0  0.30000  0.96100  0.67800  1.0000
  O   O12       1.0  0.70000  0.96100  0.67800  1.0000
  O   O13       1.0  0.19400  0.27300  0.83500  1.0000
  O   O14       1.0  0.80600  0.27300  0.83500  1.0000
  O   O15       1.0  0.24400  0.65700  0.85800  1.0000
  O   O16       1.0  0.75600  0.65700  0.85800  1.0000
  Pb  Pb1       1.0  0.50000  0.83400  0.00179  1.0000
  Pb  Pb2       1.0  0.00000  0.52100  0.20900  1.0000
  Pb  Pb3       1.0  0.00000  0.16600  0.50200  1.0000
  Pb  Pb4       1.0  0.50000  0.47900  0.70900  1.0000
  Se  Se1       1.0  0.50000  0.31100  0.19700  1.0000
  Se  Se2       1.0  0.00000  0.68900  0.69700  1.0000
