data_image0
_chemical_formula_structural       Ba8Ga4S14
_chemical_formula_sum              "Ba8 Ga4 S14"
_cell_length_a       11.9414
_cell_length_b       7.16402
_cell_length_c       9.1174
_cell_angle_alpha    90
_cell_angle_beta     108.936
_cell_angle_gamma    90

_space_group_name_H-M_alt    "P 1"
_space_group_IT_number       1

loop_
  _space_group_symop_operation_xyz
  'x, y, z'

loop_
  _atom_site_type_symbol
  _atom_site_label
  _atom_site_symmetry_multiplicity
  _atom_site_fract_x
  _atom_site_fract_y
  _atom_site_fract_z
  _atom_site_occupancy
  Ba  Ba1       1.0  0.38800  0.75000  0.00809  1.0000
  Ba  Ba2       1.0  0.93200  0.75000  0.07630  1.0000
  Ba  Ba3       1.0  0.39000  0.25000  0.37200  1.0000
  Ba  Ba4       1.0  0.81800  0.25000  0.46800  1.0000
  Ba  Ba5       1.0  0.18200  0.75000  0.53200  1.0000
  Ba  Ba6       1.0  0.61000  0.75000  0.62800  1.0000
  Ba  Ba7       1.0  0.06800  0.25000  0.92400  1.0000
  Ba  Ba8       1.0  0.61200  0.25000  0.99200  1.0000
  Ga  Ga1       1.0  0.68800  0.75000  0.26700  1.0000
  Ga  Ga2       1.0  0.07920  0.25000  0.31200  1.0000
  Ga  Ga3       1.0  0.92100  0.75000  0.68800  1.0000
  Ga  Ga4       1.0  0.31200  0.25000  0.73300  1.0000
  S   S1        1.0  0.65700  0.75000  0.00871  1.0000
  S   S2        1.0  0.88600  0.25000  0.16200  1.0000
  S   S3        1.0  0.16600  0.50400  0.24100  1.0000
  S   S4        1.0  0.16600  0.99600  0.24100  1.0000
  S   S5        1.0  0.58800  0.00098  0.31400  1.0000
  S   S6        1.0  0.58800  0.49900  0.31400  1.0000
  S   S7        1.0  0.88900  0.75000  0.41700  1.0000
  S   S8        1.0  0.11100  0.25000  0.58300  1.0000
  S   S9        1.0  0.41200  0.50100  0.68600  1.0000
  S   S10       1.0  0.41200  0.99900  0.68600  1.0000
  S   S11       1.0  0.83400  0.00359  0.75900  1.0000
  S   S12       1.0  0.83400  0.49600  0.75900  1.0000
  S   S13       1.0  0.11400  0.75000  0.83800  1.0000
  S   S14       1.0  0.34300  0.25000  0.99100  1.0000
