data_image0
_chemical_formula_structural       Cu4Ga2Ho2O14Sr4
_chemical_formula_sum              "Cu4 Ga2 Ho2 O14 Sr4"
_cell_length_a       5.35235
_cell_length_b       5.44184
_cell_length_c       12.0564
_cell_angle_alpha    103.043
_cell_angle_beta     102.825
_cell_angle_gamma    90

_space_group_name_H-M_alt    "P 1"
_space_group_IT_number       1

loop_
  _space_group_symop_operation_xyz
  'x, y, z'

loop_
  _atom_site_type_symbol
  _atom_site_label
  _atom_site_symmetry_multiplicity
  _atom_site_fract_x
  _atom_site_fract_y
  _atom_site_fract_z
  _atom_site_occupancy
  Cu  Cu1       1.0  0.57100  0.07260  0.14400  1.0000
  Cu  Cu2       1.0  0.07120  0.57200  0.14400  1.0000
  Cu  Cu3       1.0  0.92700  0.42800  0.85600  1.0000
  Cu  Cu4       1.0  0.42700  0.92700  0.85600  1.0000
  Ga  Ga1       1.0  0.78700  0.31800  0.50000  1.0000
  Ga  Ga2       1.0  0.28700  0.68200  0.50000  1.0000
  Ho  Ho1       1.0  0.00000  0.00000  0.00000  1.0000
  Ho  Ho2       1.0  0.50000  0.50000  0.00000  1.0000
  O   O1        1.0  0.31100  0.81000  0.12200  1.0000
  O   O2        1.0  0.81100  0.81200  0.12200  1.0000
  O   O3        1.0  0.81300  0.31400  0.12800  1.0000
  O   O4        1.0  0.31300  0.31500  0.12800  1.0000
  O   O5        1.0  0.64700  0.13300  0.35100  1.0000
  O   O6        1.0  0.14700  0.71800  0.35100  1.0000
  O   O7        1.0  0.14100  0.36200  0.50000  1.0000
  O   O8        1.0  0.64100  0.63800  0.50000  1.0000
  O   O9        1.0  0.79600  0.28200  0.64900  1.0000
  O   O10       1.0  0.29600  0.86700  0.64900  1.0000
  O   O11       1.0  0.18500  0.68500  0.87200  1.0000
  O   O12       1.0  0.68500  0.68600  0.87200  1.0000
  O   O13       1.0  0.68900  0.18800  0.87800  1.0000
  O   O14       1.0  0.18900  0.19000  0.87800  1.0000
  Sr  Sr1       1.0  0.15000  0.13700  0.30100  1.0000
  Sr  Sr2       1.0  0.65000  0.66400  0.30100  1.0000
  Sr  Sr3       1.0  0.35000  0.33600  0.69900  1.0000
  Sr  Sr4       1.0  0.85000  0.86300  0.69900  1.0000
