data_image0
_chemical_formula_structural       C2Fe2Na6O14P2
_chemical_formula_sum              "C2 Fe2 Na6 O14 P2"
_cell_length_a       8.9541
_cell_length_b       5.11334
_cell_length_c       6.5442
_cell_angle_alpha    90
_cell_angle_beta     90
_cell_angle_gamma    89.6057

_space_group_name_H-M_alt    "P 1"
_space_group_IT_number       1

loop_
  _space_group_symop_operation_xyz
  'x, y, z'

loop_
  _atom_site_type_symbol
  _atom_site_label
  _atom_site_symmetry_multiplicity
  _atom_site_fract_x
  _atom_site_fract_y
  _atom_site_fract_z
  _atom_site_occupancy
  C   C1        1.0  0.94100  0.27100  0.25000  1.0000
  C   C2        1.0  0.05920  0.72900  0.75000  1.0000
  Fe  Fe1       1.0  0.64700  0.22100  0.25000  1.0000
  Fe  Fe2       1.0  0.35300  0.77900  0.75000  1.0000
  Na  Na1       1.0  0.26200  0.24900  0.00164  1.0000
  Na  Na2       1.0  0.08190  0.76500  0.25000  1.0000
  Na  Na3       1.0  0.26200  0.24900  0.49800  1.0000
  Na  Na4       1.0  0.73800  0.75100  0.50200  1.0000
  Na  Na5       1.0  0.91800  0.23500  0.75000  1.0000
  Na  Na6       1.0  0.73800  0.75100  0.99800  1.0000
  O   O1        1.0  0.31600  0.78000  0.06160  1.0000
  O   O2        1.0  0.87600  0.04350  0.25000  1.0000
  O   O3        1.0  0.08470  0.28700  0.25000  1.0000
  O   O4        1.0  0.43500  0.39900  0.25000  1.0000
  O   O5        1.0  0.85900  0.48200  0.25000  1.0000
  O   O6        1.0  0.56600  0.83500  0.25000  1.0000
  O   O7        1.0  0.31600  0.78000  0.43800  1.0000
  O   O8        1.0  0.68400  0.22000  0.56200  1.0000
  O   O9        1.0  0.43400  0.16500  0.75000  1.0000
  O   O10       1.0  0.14100  0.51800  0.75000  1.0000
  O   O11       1.0  0.56500  0.60100  0.75000  1.0000
  O   O12       1.0  0.91500  0.71300  0.75000  1.0000
  O   O13       1.0  0.12400  0.95700  0.75000  1.0000
  O   O14       1.0  0.68400  0.22000  0.93800  1.0000
  P   P1        1.0  0.41300  0.70100  0.25000  1.0000
  P   P2        1.0  0.58700  0.29900  0.75000  1.0000
