data_image0
_chemical_formula_structural       As2Li2Mo4O18
_chemical_formula_sum              "As2 Li2 Mo4 O18"
_cell_length_a       5.44054
_cell_length_b       7.58926
_cell_length_c       8.79904
_cell_angle_alpha    90
_cell_angle_beta     90
_cell_angle_gamma    90

_space_group_name_H-M_alt    "P 1"
_space_group_IT_number       1

loop_
  _space_group_symop_operation_xyz
  'x, y, z'

loop_
  _atom_site_type_symbol
  _atom_site_label
  _atom_site_symmetry_multiplicity
  _atom_site_fract_x
  _atom_site_fract_y
  _atom_site_fract_z
  _atom_site_occupancy
  As  As1       1.0  0.25000  0.25000  0.04380  1.0000
  As  As2       1.0  0.75000  0.75000  0.95600  1.0000
  Li  Li1       1.0  0.25000  0.75000  0.38800  1.0000
  Li  Li2       1.0  0.75000  0.25000  0.61200  1.0000
  Mo  Mo1       1.0  0.75000  0.04000  0.26500  1.0000
  Mo  Mo2       1.0  0.75000  0.46000  0.26500  1.0000
  Mo  Mo3       1.0  0.25000  0.54000  0.73500  1.0000
  Mo  Mo4       1.0  0.25000  0.96000  0.73500  1.0000
  O   O1        1.0  0.75000  0.55600  0.05670  1.0000
  O   O2        1.0  0.75000  0.94400  0.05670  1.0000
  O   O3        1.0  0.51000  0.25000  0.15000  1.0000
  O   O4        1.0  0.99000  0.25000  0.15000  1.0000
  O   O5        1.0  0.50100  0.57100  0.33900  1.0000
  O   O6        1.0  0.99900  0.57100  0.33900  1.0000
  O   O7        1.0  0.50100  0.92900  0.33900  1.0000
  O   O8        1.0  0.99900  0.92900  0.33900  1.0000
  O   O9        1.0  0.75000  0.25000  0.39000  1.0000
  O   O10       1.0  0.25000  0.75000  0.61000  1.0000
  O   O11       1.0  0.00128  0.07100  0.66100  1.0000
  O   O12       1.0  0.49900  0.07100  0.66100  1.0000
  O   O13       1.0  0.00128  0.42900  0.66100  1.0000
  O   O14       1.0  0.49900  0.42900  0.66100  1.0000
  O   O15       1.0  0.00977  0.75000  0.85000  1.0000
  O   O16       1.0  0.49000  0.75000  0.85000  1.0000
  O   O17       1.0  0.25000  0.05620  0.94300  1.0000
  O   O18       1.0  0.25000  0.44400  0.94300  1.0000
