data_image0
_chemical_formula_structural       Ba2N14Si8Y2
_chemical_formula_sum              "Ba2 N14 Si8 Y2"
_cell_length_a       6.06344
_cell_length_b       6.0634
_cell_length_c       9.87791
_cell_angle_alpha    90
_cell_angle_beta     90
_cell_angle_gamma    120

_space_group_name_H-M_alt    "P 1"
_space_group_IT_number       1

loop_
  _space_group_symop_operation_xyz
  'x, y, z'

loop_
  _atom_site_type_symbol
  _atom_site_label
  _atom_site_symmetry_multiplicity
  _atom_site_fract_x
  _atom_site_fract_y
  _atom_site_fract_z
  _atom_site_occupancy
  Ba  Ba1       1.0  0.33300  0.66700  0.36300  1.0000
  Ba  Ba2       1.0  0.66700  0.33300  0.86300  1.0000
  N   N1        1.0  0.02410  0.51200  0.09900  1.0000
  N   N2        1.0  0.48800  0.51200  0.09900  1.0000
  N   N3        1.0  0.48800  0.97600  0.09900  1.0000
  N   N4        1.0  0.00000  0.00000  0.12300  1.0000
  N   N5        1.0  0.30500  0.15300  0.37400  1.0000
  N   N6        1.0  0.84700  0.15300  0.37400  1.0000
  N   N7        1.0  0.84700  0.69500  0.37400  1.0000
  N   N8        1.0  0.51200  0.48800  0.59900  1.0000
  N   N9        1.0  0.97600  0.48800  0.59900  1.0000
  N   N10       1.0  0.51200  0.02410  0.59900  1.0000
  N   N11       1.0  0.00000  0.00000  0.62300  1.0000
  N   N12       1.0  0.15300  0.84700  0.87400  1.0000
  N   N13       1.0  0.69500  0.84700  0.87400  1.0000
  N   N14       1.0  0.15300  0.30500  0.87400  1.0000
  Si  Si1       1.0  0.17400  0.82600  0.04630  1.0000
  Si  Si2       1.0  0.65200  0.82600  0.04630  1.0000
  Si  Si3       1.0  0.17400  0.34800  0.04630  1.0000
  Si  Si4       1.0  0.00000  0.00000  0.31400  1.0000
  Si  Si5       1.0  0.34800  0.17400  0.54600  1.0000
  Si  Si6       1.0  0.82600  0.17400  0.54600  1.0000
  Si  Si7       1.0  0.82600  0.65200  0.54600  1.0000
  Si  Si8       1.0  0.00000  0.00000  0.81400  1.0000
  Y   Y1        1.0  0.66700  0.33300  0.23700  1.0000
  Y   Y2        1.0  0.33300  0.66700  0.73700  1.0000
