data_image0
_chemical_formula_structural       Br4Cu4O12Sr4Te2
_chemical_formula_sum              "Br4 Cu4 O12 Sr4 Te2"
_cell_length_a       9.30118
_cell_length_b       5.22061
_cell_length_c       9.33305
_cell_angle_alpha    90
_cell_angle_beta     95.0008
_cell_angle_gamma    90

_space_group_name_H-M_alt    "P 1"
_space_group_IT_number       1

loop_
  _space_group_symop_operation_xyz
  'x, y, z'

loop_
  _atom_site_type_symbol
  _atom_site_label
  _atom_site_symmetry_multiplicity
  _atom_site_fract_x
  _atom_site_fract_y
  _atom_site_fract_z
  _atom_site_occupancy
  Br  Br1       1.0  0.60900  0.88600  0.16200  1.0000
  Br  Br2       1.0  0.39100  0.38600  0.33800  1.0000
  Br  Br3       1.0  0.60900  0.61400  0.66200  1.0000
  Br  Br4       1.0  0.39100  0.11400  0.83800  1.0000
  Cu  Cu1       1.0  0.91400  0.97900  0.13300  1.0000
  Cu  Cu2       1.0  0.08630  0.47900  0.36700  1.0000
  Cu  Cu3       1.0  0.91400  0.52100  0.63300  1.0000
  Cu  Cu4       1.0  0.08630  0.02140  0.86700  1.0000
  O   O1        1.0  0.12200  0.20700  0.04770  1.0000
  O   O2        1.0  0.83200  0.30800  0.05520  1.0000
  O   O3        1.0  0.02670  0.66600  0.19100  1.0000
  O   O4        1.0  0.97300  0.16600  0.30900  1.0000
  O   O5        1.0  0.16800  0.80800  0.44500  1.0000
  O   O6        1.0  0.87800  0.70700  0.45200  1.0000
  O   O7        1.0  0.12200  0.29300  0.54800  1.0000
  O   O8        1.0  0.83200  0.19200  0.55500  1.0000
  O   O9        1.0  0.02670  0.83400  0.69100  1.0000
  O   O10       1.0  0.97300  0.33400  0.80900  1.0000
  O   O11       1.0  0.16800  0.69200  0.94500  1.0000
  O   O12       1.0  0.87800  0.79300  0.95200  1.0000
  Sr  Sr1       1.0  0.27700  0.89800  0.18900  1.0000
  Sr  Sr2       1.0  0.72300  0.39800  0.31100  1.0000
  Sr  Sr3       1.0  0.27700  0.60200  0.68900  1.0000
  Sr  Sr4       1.0  0.72300  0.10200  0.81100  1.0000
  Te  Te1       1.0  0.00000  0.50000  0.00000  1.0000
  Te  Te2       1.0  0.00000  0.00000  0.50000  1.0000
