data_image0
_chemical_formula_structural       Ba2Cl4Cu4O12Te4
_chemical_formula_sum              "Ba2 Cl4 Cu4 O12 Te4"
_cell_length_a       7.42095
_cell_length_b       7.38646
_cell_length_c       8.27423
_cell_angle_alpha    90
_cell_angle_beta     97.3476
_cell_angle_gamma    90

_space_group_name_H-M_alt    "P 1"
_space_group_IT_number       1

loop_
  _space_group_symop_operation_xyz
  'x, y, z'

loop_
  _atom_site_type_symbol
  _atom_site_label
  _atom_site_symmetry_multiplicity
  _atom_site_fract_x
  _atom_site_fract_y
  _atom_site_fract_z
  _atom_site_occupancy
  Ba  Ba1       1.0  0.13800  0.84400  0.07120  1.0000
  Ba  Ba2       1.0  0.86200  0.34400  0.92900  1.0000
  Cl  Cl1       1.0  0.88200  0.08170  0.24200  1.0000
  Cl  Cl2       1.0  0.44600  0.10200  0.38200  1.0000
  Cl  Cl3       1.0  0.55400  0.60200  0.61800  1.0000
  Cl  Cl4       1.0  0.11800  0.58200  0.75800  1.0000
  Cu  Cu1       1.0  0.35700  0.34600  0.08210  1.0000
  Cu  Cu2       1.0  0.68300  0.31700  0.40900  1.0000
  Cu  Cu3       1.0  0.31700  0.81700  0.59100  1.0000
  Cu  Cu4       1.0  0.64300  0.84600  0.91800  1.0000
  O   O1        1.0  0.80300  0.67800  0.06130  1.0000
  O   O2        1.0  0.47800  0.77700  0.06560  1.0000
  O   O3        1.0  0.15200  0.45200  0.16500  1.0000
  O   O4        1.0  0.54500  0.45200  0.23600  1.0000
  O   O5        1.0  0.87200  0.50300  0.36700  1.0000
  O   O6        1.0  0.18700  0.71700  0.39500  1.0000
  O   O7        1.0  0.81300  0.21700  0.60500  1.0000
  O   O8        1.0  0.12800  0.00283  0.63300  1.0000
  O   O9        1.0  0.45500  0.95200  0.76400  1.0000
  O   O10       1.0  0.84800  0.95200  0.83500  1.0000
  O   O11       1.0  0.52200  0.27700  0.93400  1.0000
  O   O12       1.0  0.19700  0.17800  0.93900  1.0000
  Te  Te1       1.0  0.65800  0.69300  0.23900  1.0000
  Te  Te2       1.0  0.13100  0.46800  0.39300  1.0000
  Te  Te3       1.0  0.86900  0.96800  0.60700  1.0000
  Te  Te4       1.0  0.34200  0.19300  0.76100  1.0000
