data_image0
_chemical_formula_structural       In4Sb12Yb10
_chemical_formula_sum              "In4 Sb12 Yb10"
_cell_length_a       7.43603
_cell_length_b       23.1216
_cell_length_c       4.55016
_cell_angle_alpha    90
_cell_angle_beta     90
_cell_angle_gamma    90

_space_group_name_H-M_alt    "P 1"
_space_group_IT_number       1

loop_
  _space_group_symop_operation_xyz
  'x, y, z'

loop_
  _atom_site_type_symbol
  _atom_site_label
  _atom_site_symmetry_multiplicity
  _atom_site_fract_x
  _atom_site_fract_y
  _atom_site_fract_z
  _atom_site_occupancy
  In  In1       1.0  0.32300  0.12000  0.00000  1.0000
  In  In2       1.0  0.82300  0.38000  0.00000  1.0000
  In  In3       1.0  0.17700  0.62000  0.00000  1.0000
  In  In4       1.0  0.67700  0.88000  0.00000  1.0000
  Sb  Sb1       1.0  0.80200  0.00194  0.00000  1.0000
  Sb  Sb2       1.0  0.00235  0.19000  0.00000  1.0000
  Sb  Sb3       1.0  0.50200  0.31000  0.00000  1.0000
  Sb  Sb4       1.0  0.30200  0.49800  0.00000  1.0000
  Sb  Sb5       1.0  0.69800  0.50200  0.00000  1.0000
  Sb  Sb6       1.0  0.49800  0.69000  0.00000  1.0000
  Sb  Sb7       1.0  0.99800  0.81000  0.00000  1.0000
  Sb  Sb8       1.0  0.19800  0.99800  0.00000  1.0000
  Sb  Sb9       1.0  0.55000  0.13700  0.50000  1.0000
  Sb  Sb10      1.0  0.05000  0.36300  0.50000  1.0000
  Sb  Sb11      1.0  0.95000  0.63700  0.50000  1.0000
  Sb  Sb12      1.0  0.45000  0.86300  0.50000  1.0000
  Yb  Yb1       1.0  0.50000  0.00000  0.50000  1.0000
  Yb  Yb2       1.0  0.96000  0.09010  0.50000  1.0000
  Yb  Yb3       1.0  0.26900  0.24400  0.50000  1.0000
  Yb  Yb4       1.0  0.76900  0.25600  0.50000  1.0000
  Yb  Yb5       1.0  0.46000  0.41000  0.50000  1.0000
  Yb  Yb6       1.0  0.00000  0.50000  0.50000  1.0000
  Yb  Yb7       1.0  0.54000  0.59000  0.50000  1.0000
  Yb  Yb8       1.0  0.23100  0.74400  0.50000  1.0000
  Yb  Yb9       1.0  0.73100  0.75600  0.50000  1.0000
  Yb  Yb10      1.0  0.04030  0.91000  0.50000  1.0000
