data_image0
_chemical_formula_structural       Bi2Cu8Fe2Pb2S12
_chemical_formula_sum              "Bi2 Cu8 Fe2 Pb2 S12"
_cell_length_a       10.7919
_cell_length_b       12.0468
_cell_length_c       3.88422
_cell_angle_alpha    90
_cell_angle_beta     90
_cell_angle_gamma    90

_space_group_name_H-M_alt    "P 1"
_space_group_IT_number       1

loop_
  _space_group_symop_operation_xyz
  'x, y, z'

loop_
  _atom_site_type_symbol
  _atom_site_label
  _atom_site_symmetry_multiplicity
  _atom_site_fract_x
  _atom_site_fract_y
  _atom_site_fract_z
  _atom_site_occupancy
  Bi  Bi1       1.0  0.84700  0.49400  0.00000  1.0000
  Bi  Bi2       1.0  0.15300  0.99400  0.00000  1.0000
  Cu  Cu1       1.0  0.48400  0.07400  0.00000  1.0000
  Cu  Cu2       1.0  0.51600  0.57400  0.00000  1.0000
  Cu  Cu3       1.0  0.78700  0.04070  0.50000  1.0000
  Cu  Cu4       1.0  0.01960  0.27400  0.50000  1.0000
  Cu  Cu5       1.0  0.62100  0.33700  0.50000  1.0000
  Cu  Cu6       1.0  0.21300  0.54100  0.50000  1.0000
  Cu  Cu7       1.0  0.98000  0.77400  0.50000  1.0000
  Cu  Cu8       1.0  0.37900  0.83700  0.50000  1.0000
  Fe  Fe1       1.0  0.70700  0.18100  0.00000  1.0000
  Fe  Fe2       1.0  0.29300  0.68100  0.00000  1.0000
  Pb  Pb1       1.0  0.30700  0.27900  0.50000  1.0000
  Pb  Pb2       1.0  0.69300  0.77900  0.50000  1.0000
  S   S1        1.0  0.11200  0.20800  0.00000  1.0000
  S   S2        1.0  0.52100  0.26800  0.00000  1.0000
  S   S3        1.0  0.32000  0.49400  0.00000  1.0000
  S   S4        1.0  0.88800  0.70800  0.00000  1.0000
  S   S5        1.0  0.47900  0.76800  0.00000  1.0000
  S   S6        1.0  0.68000  0.99400  0.00000  1.0000
  S   S7        1.0  0.36700  0.02930  0.50000  1.0000
  S   S8        1.0  0.80900  0.23500  0.50000  1.0000
  S   S9        1.0  0.01870  0.46300  0.50000  1.0000
  S   S10       1.0  0.63300  0.52900  0.50000  1.0000
  S   S11       1.0  0.19100  0.73500  0.50000  1.0000
  S   S12       1.0  0.98100  0.96300  0.50000  1.0000
