data_image0
_chemical_formula_structural       B20Fe2Th4
_chemical_formula_sum              "B20 Fe2 Th4"
_cell_length_a       5.62024
_cell_length_b       11.2278
_cell_length_c       4.17502
_cell_angle_alpha    90
_cell_angle_beta     90
_cell_angle_gamma    90

_space_group_name_H-M_alt    "P 1"
_space_group_IT_number       1

loop_
  _space_group_symop_operation_xyz
  'x, y, z'

loop_
  _atom_site_type_symbol
  _atom_site_label
  _atom_site_symmetry_multiplicity
  _atom_site_fract_x
  _atom_site_fract_y
  _atom_site_fract_z
  _atom_site_occupancy
  B   B1        1.0  0.37300  0.04000  0.00000  1.0000
  B   B2        1.0  0.03940  0.18700  0.00000  1.0000
  B   B3        1.0  0.35200  0.19700  0.00000  1.0000
  B   B4        1.0  0.85200  0.30300  0.00000  1.0000
  B   B5        1.0  0.53900  0.31300  0.00000  1.0000
  B   B6        1.0  0.87300  0.46000  0.00000  1.0000
  B   B7        1.0  0.12700  0.54000  0.00000  1.0000
  B   B8        1.0  0.46100  0.68700  0.00000  1.0000
  B   B9        1.0  0.14800  0.69700  0.00000  1.0000
  B   B10       1.0  0.64800  0.80300  0.00000  1.0000
  B   B11       1.0  0.96100  0.81300  0.00000  1.0000
  B   B12       1.0  0.62700  0.96000  0.00000  1.0000
  B   B13       1.0  0.20500  0.11400  0.29900  1.0000
  B   B14       1.0  0.70500  0.38600  0.29900  1.0000
  B   B15       1.0  0.29500  0.61400  0.29900  1.0000
  B   B16       1.0  0.79500  0.88600  0.29900  1.0000
  B   B17       1.0  0.20500  0.11400  0.70100  1.0000
  B   B18       1.0  0.70500  0.38600  0.70100  1.0000
  B   B19       1.0  0.29500  0.61400  0.70100  1.0000
  B   B20       1.0  0.79500  0.88600  0.70100  1.0000
  Fe  Fe1       1.0  0.00000  0.00000  0.00000  1.0000
  Fe  Fe2       1.0  0.50000  0.50000  0.00000  1.0000
  Th  Th1       1.0  0.70900  0.13100  0.50000  1.0000
  Th  Th2       1.0  0.20900  0.36900  0.50000  1.0000
  Th  Th3       1.0  0.79100  0.63100  0.50000  1.0000
  Th  Th4       1.0  0.29100  0.86900  0.50000  1.0000
