data_image0
_chemical_formula_structural       Cu4Ga2Gd2O14Sr4
_chemical_formula_sum              "Cu4 Ga2 Gd2 O14 Sr4"
_cell_length_a       5.37098
_cell_length_b       5.47061
_cell_length_c       12.0877
_cell_angle_alpha    103.079
_cell_angle_beta     102.836
_cell_angle_gamma    90

_space_group_name_H-M_alt    "P 1"
_space_group_IT_number       1

loop_
  _space_group_symop_operation_xyz
  'x, y, z'

loop_
  _atom_site_type_symbol
  _atom_site_label
  _atom_site_symmetry_multiplicity
  _atom_site_fract_x
  _atom_site_fract_y
  _atom_site_fract_z
  _atom_site_occupancy
  Cu  Cu1       1.0  0.07070  0.57200  0.14600  1.0000
  Cu  Cu2       1.0  0.57100  0.07370  0.14600  1.0000
  Cu  Cu3       1.0  0.42500  0.92600  0.85400  1.0000
  Cu  Cu4       1.0  0.92500  0.42800  0.85400  1.0000
  Ga  Ga1       1.0  0.28000  0.68300  0.50000  1.0000
  Ga  Ga2       1.0  0.78000  0.31700  0.50000  1.0000
  Gd  Gd1       1.0  0.99900  0.00000  0.00000  1.0000
  Gd  Gd2       1.0  0.49900  0.50000  0.00000  1.0000
  O   O1        1.0  0.81200  0.81400  0.12500  1.0000
  O   O2        1.0  0.31200  0.81100  0.12500  1.0000
  O   O3        1.0  0.31300  0.31600  0.13100  1.0000
  O   O4        1.0  0.81300  0.31500  0.13100  1.0000
  O   O5        1.0  0.14000  0.72200  0.35200  1.0000
  O   O6        1.0  0.64000  0.12900  0.35200  1.0000
  O   O7        1.0  0.63200  0.63400  0.50000  1.0000
  O   O8        1.0  0.13200  0.36600  0.50000  1.0000
  O   O9        1.0  0.28800  0.87100  0.64800  1.0000
  O   O10       1.0  0.78800  0.27800  0.64800  1.0000
  O   O11       1.0  0.68300  0.68500  0.86900  1.0000
  O   O12       1.0  0.18300  0.68400  0.86900  1.0000
  O   O13       1.0  0.18600  0.18900  0.87500  1.0000
  O   O14       1.0  0.68600  0.18600  0.87500  1.0000
  Sr  Sr1       1.0  0.64700  0.66500  0.30200  1.0000
  Sr  Sr2       1.0  0.14700  0.13700  0.30200  1.0000
  Sr  Sr3       1.0  0.84500  0.86300  0.69800  1.0000
  Sr  Sr4       1.0  0.34500  0.33500  0.69800  1.0000
