data_image0
_chemical_formula_structural       Al2Ca4F18Pb2
_chemical_formula_sum              "Al2 Ca4 F18 Pb2"
_cell_length_a       5.23369
_cell_length_b       5.23383
_cell_length_c       11.9753
_cell_angle_alpha    91.5349
_cell_angle_beta     101.033
_cell_angle_gamma    91.1988

_space_group_name_H-M_alt    "P 1"
_space_group_IT_number       1

loop_
  _space_group_symop_operation_xyz
  'x, y, z'

loop_
  _atom_site_type_symbol
  _atom_site_label
  _atom_site_symmetry_multiplicity
  _atom_site_fract_x
  _atom_site_fract_y
  _atom_site_fract_z
  _atom_site_occupancy
  Al  Al1       1.0  0.79300  0.79400  0.17900  1.0000
  Al  Al2       1.0  0.20700  0.20600  0.82100  1.0000
  Ca  Ca1       1.0  0.95800  0.24100  0.38500  1.0000
  Ca  Ca2       1.0  0.44900  0.73500  0.38600  1.0000
  Ca  Ca3       1.0  0.55100  0.26500  0.61400  1.0000
  Ca  Ca4       1.0  0.04180  0.75900  0.61500  1.0000
  F   F1        1.0  0.48500  0.70900  0.08800  1.0000
  F   F2        1.0  0.84000  0.06080  0.09120  1.0000
  F   F3        1.0  0.95900  0.59200  0.09590  1.0000
  F   F4        1.0  0.62000  0.00802  0.26400  1.0000
  F   F5        1.0  0.73700  0.54500  0.27300  1.0000
  F   F6        1.0  0.08750  0.89400  0.27700  1.0000
  F   F7        1.0  0.25700  0.38500  0.29000  1.0000
  F   F8        1.0  0.75000  0.48900  0.49500  1.0000
  F   F9        1.0  0.74800  0.99400  0.49900  1.0000
  F   F10       1.0  0.25200  0.00606  0.50100  1.0000
  F   F11       1.0  0.25000  0.51100  0.50500  1.0000
  F   F12       1.0  0.74300  0.61500  0.71000  1.0000
  F   F13       1.0  0.91300  0.10600  0.72300  1.0000
  F   F14       1.0  0.26300  0.45500  0.72700  1.0000
  F   F15       1.0  0.38000  0.99200  0.73600  1.0000
  F   F16       1.0  0.04060  0.40800  0.90400  1.0000
  F   F17       1.0  0.16000  0.93900  0.90900  1.0000
  F   F18       1.0  0.51500  0.29100  0.91200  1.0000
  Pb  Pb1       1.0  0.28700  0.26600  0.10300  1.0000
  Pb  Pb2       1.0  0.71300  0.73400  0.89700  1.0000
