data_image0
_chemical_formula_structural       Ba6P12Si8
_chemical_formula_sum              "Ba6 P12 Si8"
_cell_length_a       11.6192
_cell_length_b       7.35404
_cell_length_c       7.58373
_cell_angle_alpha    90
_cell_angle_beta     99.3791
_cell_angle_gamma    90

_space_group_name_H-M_alt    "P 1"
_space_group_IT_number       1

loop_
  _space_group_symop_operation_xyz
  'x, y, z'

loop_
  _atom_site_type_symbol
  _atom_site_label
  _atom_site_symmetry_multiplicity
  _atom_site_fract_x
  _atom_site_fract_y
  _atom_site_fract_z
  _atom_site_occupancy
  Ba  Ba1       1.0  0.85200  0.75000  0.08770  1.0000
  Ba  Ba2       1.0  0.13600  0.25000  0.40800  1.0000
  Ba  Ba3       1.0  0.49300  0.75000  0.49800  1.0000
  Ba  Ba4       1.0  0.50700  0.25000  0.50200  1.0000
  Ba  Ba5       1.0  0.86400  0.75000  0.59200  1.0000
  Ba  Ba6       1.0  0.14800  0.25000  0.91200  1.0000
  P   P1        1.0  0.91300  0.25000  0.10300  1.0000
  P   P2        1.0  0.31800  0.50100  0.20700  1.0000
  P   P3        1.0  0.31800  0.99900  0.20700  1.0000
  P   P4        1.0  0.68200  0.00062  0.29800  1.0000
  P   P5        1.0  0.68200  0.49900  0.29800  1.0000
  P   P6        1.0  0.08710  0.75000  0.39600  1.0000
  P   P7        1.0  0.91300  0.25000  0.60400  1.0000
  P   P8        1.0  0.31800  0.50100  0.70200  1.0000
  P   P9        1.0  0.31800  0.99900  0.70200  1.0000
  P   P10       1.0  0.68200  0.00077  0.79300  1.0000
  P   P11       1.0  0.68200  0.49900  0.79300  1.0000
  P   P12       1.0  0.08710  0.75000  0.89700  1.0000
  Si  Si1       1.0  0.59100  0.07850  0.02290  1.0000
  Si  Si2       1.0  0.59100  0.42200  0.02290  1.0000
  Si  Si3       1.0  0.20300  0.75000  0.17700  1.0000
  Si  Si4       1.0  0.79700  0.25000  0.32600  1.0000
  Si  Si5       1.0  0.20300  0.75000  0.67400  1.0000
  Si  Si6       1.0  0.79700  0.25000  0.82300  1.0000
  Si  Si7       1.0  0.40900  0.57800  0.97700  1.0000
  Si  Si8       1.0  0.40900  0.92200  0.97700  1.0000
