data_image0
_chemical_formula_structural       Mn4O16Te6
_chemical_formula_sum              "Mn4 O16 Te6"
_cell_length_a       5.36293
_cell_length_b       6.92384
_cell_length_c       11.7597
_cell_angle_alpha    97.4524
_cell_angle_beta     90
_cell_angle_gamma    112.785

_space_group_name_H-M_alt    "P 1"
_space_group_IT_number       1

loop_
  _space_group_symop_operation_xyz
  'x, y, z'

loop_
  _atom_site_type_symbol
  _atom_site_label
  _atom_site_symmetry_multiplicity
  _atom_site_fract_x
  _atom_site_fract_y
  _atom_site_fract_z
  _atom_site_occupancy
  Mn  Mn1       1.0  0.97000  0.54100  0.14800  1.0000
  Mn  Mn2       1.0  0.42900  0.45900  0.35200  1.0000
  Mn  Mn3       1.0  0.57100  0.54100  0.64800  1.0000
  Mn  Mn4       1.0  0.03040  0.45900  0.85100  1.0000
  O   O1        1.0  0.28100  0.52800  0.02850  1.0000
  O   O2        1.0  0.99500  0.23000  0.13900  1.0000
  O   O3        1.0  0.99700  0.84900  0.14300  1.0000
  O   O4        1.0  0.55600  0.38300  0.18900  1.0000
  O   O5        1.0  0.17300  0.61700  0.31100  1.0000
  O   O6        1.0  0.14800  0.15100  0.35700  1.0000
  O   O7        1.0  0.76400  0.77000  0.36100  1.0000
  O   O8        1.0  0.75400  0.47200  0.47100  1.0000
  O   O9        1.0  0.24600  0.52800  0.52900  1.0000
  O   O10       1.0  0.23600  0.23000  0.63900  1.0000
  O   O11       1.0  0.85200  0.84900  0.64300  1.0000
  O   O12       1.0  0.82700  0.38300  0.68900  1.0000
  O   O13       1.0  0.44400  0.61700  0.81100  1.0000
  O   O14       1.0  0.00284  0.15100  0.85700  1.0000
  O   O15       1.0  0.00544  0.77000  0.86100  1.0000
  O   O16       1.0  0.71900  0.47200  0.97100  1.0000
  Te  Te1       1.0  0.32600  0.26900  0.05350  1.0000
  Te  Te2       1.0  0.85000  0.00000  0.25000  1.0000
  Te  Te3       1.0  0.05750  0.73100  0.44700  1.0000
  Te  Te4       1.0  0.94300  0.26900  0.55300  1.0000
  Te  Te5       1.0  0.15000  0.00000  0.75000  1.0000
  Te  Te6       1.0  0.67400  0.73100  0.94700  1.0000
