data_image0
_chemical_formula_structural       Cl6O12Pr6U2
_chemical_formula_sum              "Cl6 O12 Pr6 U2"
_cell_length_a       9.43531
_cell_length_b       9.43545
_cell_length_c       5.59246
_cell_angle_alpha    90
_cell_angle_beta     90
_cell_angle_gamma    120

_space_group_name_H-M_alt    "P 1"
_space_group_IT_number       1

loop_
  _space_group_symop_operation_xyz
  'x, y, z'

loop_
  _atom_site_type_symbol
  _atom_site_label
  _atom_site_symmetry_multiplicity
  _atom_site_fract_x
  _atom_site_fract_y
  _atom_site_fract_z
  _atom_site_occupancy
  Cl  Cl1       1.0  0.18700  0.24600  0.25000  1.0000
  Cl  Cl2       1.0  0.05930  0.81300  0.25000  1.0000
  Cl  Cl3       1.0  0.75400  0.94100  0.25000  1.0000
  Cl  Cl4       1.0  0.24600  0.05930  0.75000  1.0000
  Cl  Cl5       1.0  0.94100  0.18700  0.75000  1.0000
  Cl  Cl6       1.0  0.81300  0.75400  0.75000  1.0000
  O   O1        1.0  0.15000  0.51400  0.00343  1.0000
  O   O2        1.0  0.36400  0.85000  0.00344  1.0000
  O   O3        1.0  0.48600  0.63600  0.00344  1.0000
  O   O4        1.0  0.48600  0.63600  0.49700  1.0000
  O   O5        1.0  0.36400  0.85000  0.49700  1.0000
  O   O6        1.0  0.15000  0.51400  0.49700  1.0000
  O   O7        1.0  0.85000  0.48600  0.50300  1.0000
  O   O8        1.0  0.63600  0.15000  0.50300  1.0000
  O   O9        1.0  0.51400  0.36400  0.50300  1.0000
  O   O10       1.0  0.51400  0.36400  0.99700  1.0000
  O   O11       1.0  0.63600  0.15000  0.99700  1.0000
  O   O12       1.0  0.85000  0.48600  0.99700  1.0000
  Pr  Pr1       1.0  0.40300  0.09210  0.25000  1.0000
  Pr  Pr2       1.0  0.90800  0.31100  0.25000  1.0000
  Pr  Pr3       1.0  0.68900  0.59700  0.25000  1.0000
  Pr  Pr4       1.0  0.31100  0.40300  0.75000  1.0000
  Pr  Pr5       1.0  0.09210  0.68900  0.75000  1.0000
  Pr  Pr6       1.0  0.59700  0.90800  0.75000  1.0000
  U   U1        1.0  0.33300  0.66700  0.25000  1.0000
  U   U2        1.0  0.66700  0.33300  0.75000  1.0000
