data_image0
_chemical_formula_structural       Cd14Th12
_chemical_formula_sum              "Cd14 Th12"
_cell_length_a       11.646
_cell_length_b       9.88644
_cell_length_c       6.01511
_cell_angle_alpha    90
_cell_angle_beta     90
_cell_angle_gamma    90

_space_group_name_H-M_alt    "P 1"
_space_group_IT_number       1

loop_
  _space_group_symop_operation_xyz
  'x, y, z'

loop_
  _atom_site_type_symbol
  _atom_site_label
  _atom_site_symmetry_multiplicity
  _atom_site_fract_x
  _atom_site_fract_y
  _atom_site_fract_z
  _atom_site_occupancy
  Cd  Cd1       1.0  0.00000  0.00000  0.00000  1.0000
  Cd  Cd2       1.0  0.24700  0.09800  0.00000  1.0000
  Cd  Cd3       1.0  0.74700  0.40200  0.00000  1.0000
  Cd  Cd4       1.0  0.50000  0.50000  0.00000  1.0000
  Cd  Cd5       1.0  0.25300  0.59800  0.00000  1.0000
  Cd  Cd6       1.0  0.75300  0.90200  0.00000  1.0000
  Cd  Cd7       1.0  0.82000  0.15400  0.25600  1.0000
  Cd  Cd8       1.0  0.32000  0.34600  0.25600  1.0000
  Cd  Cd9       1.0  0.68000  0.65400  0.25600  1.0000
  Cd  Cd10      1.0  0.18000  0.84600  0.25600  1.0000
  Cd  Cd11      1.0  0.82000  0.15400  0.74400  1.0000
  Cd  Cd12      1.0  0.32000  0.34600  0.74400  1.0000
  Cd  Cd13      1.0  0.68000  0.65400  0.74400  1.0000
  Cd  Cd14      1.0  0.18000  0.84600  0.74400  1.0000
  Th  Th1       1.0  0.54300  0.15500  0.00000  1.0000
  Th  Th2       1.0  0.04340  0.34500  0.00000  1.0000
  Th  Th3       1.0  0.95700  0.65500  0.00000  1.0000
  Th  Th4       1.0  0.45700  0.84500  0.00000  1.0000
  Th  Th5       1.0  0.37400  0.05070  0.50000  1.0000
  Th  Th6       1.0  0.08630  0.16900  0.50000  1.0000
  Th  Th7       1.0  0.58600  0.33100  0.50000  1.0000
  Th  Th8       1.0  0.87400  0.44900  0.50000  1.0000
  Th  Th9       1.0  0.12600  0.55100  0.50000  1.0000
  Th  Th10      1.0  0.41400  0.66900  0.50000  1.0000
  Th  Th11      1.0  0.91400  0.83100  0.50000  1.0000
  Th  Th12      1.0  0.62600  0.94900  0.50000  1.0000
