data_image0
_chemical_formula_structural       Al6C12Zr8
_chemical_formula_sum              "Al6 C12 Zr8"
_cell_length_a       3.35587
_cell_length_b       3.35587
_cell_length_c       33.1022
_cell_angle_alpha    90
_cell_angle_beta     90
_cell_angle_gamma    120

_space_group_name_H-M_alt    "P 1"
_space_group_IT_number       1

loop_
  _space_group_symop_operation_xyz
  'x, y, z'

loop_
  _atom_site_type_symbol
  _atom_site_label
  _atom_site_symmetry_multiplicity
  _atom_site_fract_x
  _atom_site_fract_y
  _atom_site_fract_z
  _atom_site_occupancy
  Al  Al1       1.0  0.66700  0.33300  0.18900  1.0000
  Al  Al2       1.0  0.33300  0.66700  0.25000  1.0000
  Al  Al3       1.0  0.66700  0.33300  0.31100  1.0000
  Al  Al4       1.0  0.33300  0.66700  0.68900  1.0000
  Al  Al5       1.0  0.66700  0.33300  0.75000  1.0000
  Al  Al6       1.0  0.33300  0.66700  0.81100  1.0000
  C   C1        1.0  0.00000  0.00000  0.00000  1.0000
  C   C2        1.0  0.66700  0.33300  0.08300  1.0000
  C   C3        1.0  0.33300  0.66700  0.16800  1.0000
  C   C4        1.0  0.66700  0.33300  0.25000  1.0000
  C   C5        1.0  0.33300  0.66700  0.33200  1.0000
  C   C6        1.0  0.66700  0.33300  0.41700  1.0000
  C   C7        1.0  0.00000  0.00000  0.50000  1.0000
  C   C8        1.0  0.33300  0.66700  0.58300  1.0000
  C   C9        1.0  0.66700  0.33300  0.66800  1.0000
  C   C10       1.0  0.33300  0.66700  0.75000  1.0000
  C   C11       1.0  0.66700  0.33300  0.83200  1.0000
  C   C12       1.0  0.33300  0.66700  0.91700  1.0000
  Zr  Zr1       1.0  0.33300  0.66700  0.04020  1.0000
  Zr  Zr2       1.0  0.00000  0.00000  0.12100  1.0000
  Zr  Zr3       1.0  0.00000  0.00000  0.37900  1.0000
  Zr  Zr4       1.0  0.33300  0.66700  0.46000  1.0000
  Zr  Zr5       1.0  0.66700  0.33300  0.54000  1.0000
  Zr  Zr6       1.0  0.00000  0.00000  0.62100  1.0000
  Zr  Zr7       1.0  0.00000  0.00000  0.87900  1.0000
  Zr  Zr8       1.0  0.66700  0.33300  0.96000  1.0000
