data_image0
_chemical_formula_structural       Al2I6O18
_chemical_formula_sum              "Al2 I6 O18"
_cell_length_a       8.91426
_cell_length_b       8.91428
_cell_length_c       5.11255
_cell_angle_alpha    90
_cell_angle_beta     90
_cell_angle_gamma    120

_space_group_name_H-M_alt    "P 1"
_space_group_IT_number       1

loop_
  _space_group_symop_operation_xyz
  'x, y, z'

loop_
  _atom_site_type_symbol
  _atom_site_label
  _atom_site_symmetry_multiplicity
  _atom_site_fract_x
  _atom_site_fract_y
  _atom_site_fract_z
  _atom_site_occupancy
  Al  Al1       1.0  0.33300  0.66700  0.08400  1.0000
  Al  Al2       1.0  0.66700  0.33300  0.58400  1.0000
  I   I1        1.0  0.68800  0.02170  0.21400  1.0000
  I   I2        1.0  0.33400  0.31200  0.21400  1.0000
  I   I3        1.0  0.97800  0.66600  0.21400  1.0000
  I   I4        1.0  0.66600  0.68800  0.71400  1.0000
  I   I5        1.0  0.31200  0.97800  0.71400  1.0000
  I   I6        1.0  0.02170  0.33400  0.71400  1.0000
  O   O1        1.0  0.19800  0.71800  0.31400  1.0000
  O   O2        1.0  0.52000  0.80200  0.31400  1.0000
  O   O3        1.0  0.28200  0.48000  0.31400  1.0000
  O   O4        1.0  0.87200  0.44600  0.37500  1.0000
  O   O5        1.0  0.55400  0.42600  0.37500  1.0000
  O   O6        1.0  0.57400  0.12800  0.37500  1.0000
  O   O7        1.0  0.21500  0.16700  0.48200  1.0000
  O   O8        1.0  0.95200  0.78500  0.48200  1.0000
  O   O9        1.0  0.83300  0.04810  0.48200  1.0000
  O   O10       1.0  0.80200  0.28200  0.81400  1.0000
  O   O11       1.0  0.48000  0.19800  0.81400  1.0000
  O   O12       1.0  0.71800  0.52000  0.81400  1.0000
  O   O13       1.0  0.12800  0.55400  0.87500  1.0000
  O   O14       1.0  0.44600  0.57400  0.87500  1.0000
  O   O15       1.0  0.42600  0.87200  0.87500  1.0000
  O   O16       1.0  0.04810  0.21500  0.98200  1.0000
  O   O17       1.0  0.78500  0.83300  0.98200  1.0000
  O   O18       1.0  0.16700  0.95200  0.98200  1.0000
