data_image0
_chemical_formula_structural       Cu2Ni4O16P4
_chemical_formula_sum              "Cu2 Ni4 O16 P4"
_cell_length_a       6.36175
_cell_length_b       9.34555
_cell_length_c       4.66656
_cell_angle_alpha    90
_cell_angle_beta     90.6446
_cell_angle_gamma    90

_space_group_name_H-M_alt    "P 1"
_space_group_IT_number       1

loop_
  _space_group_symop_operation_xyz
  'x, y, z'

loop_
  _atom_site_type_symbol
  _atom_site_label
  _atom_site_symmetry_multiplicity
  _atom_site_fract_x
  _atom_site_fract_y
  _atom_site_fract_z
  _atom_site_occupancy
  Cu  Cu1       1.0  0.00000  0.00000  0.00000  1.0000
  Cu  Cu2       1.0  0.50000  0.50000  0.50000  1.0000
  Ni  Ni1       1.0  0.84900  0.62400  0.02450  1.0000
  Ni  Ni2       1.0  0.65100  0.12400  0.47600  1.0000
  Ni  Ni3       1.0  0.34900  0.87600  0.52400  1.0000
  Ni  Ni4       1.0  0.15100  0.37600  0.97600  1.0000
  O   O1        1.0  0.15600  0.58500  0.08240  1.0000
  O   O2        1.0  0.32300  0.83600  0.10200  1.0000
  O   O3        1.0  0.54600  0.61400  0.15700  1.0000
  O   O4        1.0  0.87900  0.82500  0.17600  1.0000
  O   O5        1.0  0.62100  0.32500  0.32400  1.0000
  O   O6        1.0  0.95400  0.11400  0.34300  1.0000
  O   O7        1.0  0.17700  0.33600  0.39800  1.0000
  O   O8        1.0  0.34400  0.08510  0.41800  1.0000
  O   O9        1.0  0.65600  0.91500  0.58200  1.0000
  O   O10       1.0  0.82300  0.66400  0.60200  1.0000
  O   O11       1.0  0.04600  0.88600  0.65700  1.0000
  O   O12       1.0  0.37900  0.67500  0.67600  1.0000
  O   O13       1.0  0.12100  0.17500  0.82400  1.0000
  O   O14       1.0  0.45400  0.38600  0.84300  1.0000
  O   O15       1.0  0.67700  0.16400  0.89800  1.0000
  O   O16       1.0  0.84400  0.41500  0.91800  1.0000
  P   P1        1.0  0.34800  0.68000  0.00743  1.0000
  P   P2        1.0  0.15200  0.18000  0.49300  1.0000
  P   P3        1.0  0.84800  0.82000  0.50700  1.0000
  P   P4        1.0  0.65200  0.32000  0.99300  1.0000
