data_image0
_chemical_formula_structural       Pt6S16Ta4
_chemical_formula_sum              "Pt6 S16 Ta4"
_cell_length_a       14.6285
_cell_length_b       10.5578
_cell_length_c       3.48489
_cell_angle_alpha    90
_cell_angle_beta     90
_cell_angle_gamma    90

_space_group_name_H-M_alt    "P 1"
_space_group_IT_number       1

loop_
  _space_group_symop_operation_xyz
  'x, y, z'

loop_
  _atom_site_type_symbol
  _atom_site_label
  _atom_site_symmetry_multiplicity
  _atom_site_fract_x
  _atom_site_fract_y
  _atom_site_fract_z
  _atom_site_occupancy
  Pt  Pt1       1.0  0.00000  0.00000  0.00000  1.0000
  Pt  Pt2       1.0  0.72200  0.13400  0.00000  1.0000
  Pt  Pt3       1.0  0.22200  0.36600  0.00000  1.0000
  Pt  Pt4       1.0  0.50000  0.50000  0.00000  1.0000
  Pt  Pt5       1.0  0.77800  0.63400  0.00000  1.0000
  Pt  Pt6       1.0  0.27800  0.86600  0.00000  1.0000
  S   S1        1.0  0.15800  0.03760  0.00000  1.0000
  S   S2        1.0  0.99800  0.22300  0.00000  1.0000
  S   S3        1.0  0.49800  0.27700  0.00000  1.0000
  S   S4        1.0  0.65800  0.46200  0.00000  1.0000
  S   S5        1.0  0.34200  0.53800  0.00000  1.0000
  S   S6        1.0  0.50200  0.72300  0.00000  1.0000
  S   S7        1.0  0.00177  0.77700  0.00000  1.0000
  S   S8        1.0  0.84200  0.96200  0.00000  1.0000
  S   S9        1.0  0.62400  0.06290  0.50000  1.0000
  S   S10       1.0  0.28700  0.24300  0.50000  1.0000
  S   S11       1.0  0.78700  0.25700  0.50000  1.0000
  S   S12       1.0  0.12400  0.43700  0.50000  1.0000
  S   S13       1.0  0.87600  0.56300  0.50000  1.0000
  S   S14       1.0  0.21300  0.74300  0.50000  1.0000
  S   S15       1.0  0.71300  0.75700  0.50000  1.0000
  S   S16       1.0  0.37600  0.93700  0.50000  1.0000
  Ta  Ta1       1.0  0.12100  0.20400  0.50000  1.0000
  Ta  Ta2       1.0  0.62100  0.29600  0.50000  1.0000
  Ta  Ta3       1.0  0.37900  0.70400  0.50000  1.0000
  Ta  Ta4       1.0  0.87900  0.79600  0.50000  1.0000
