data_image0
_chemical_formula_structural       B4Be4O14Sr4
_chemical_formula_sum              "B4 Be4 O14 Sr4"
_cell_length_a       4.68091
_cell_length_b       4.6809
_cell_length_c       15.3288
_cell_angle_alpha    90
_cell_angle_beta     90
_cell_angle_gamma    120.003

_space_group_name_H-M_alt    "P 1"
_space_group_IT_number       1

loop_
  _space_group_symop_operation_xyz
  'x, y, z'

loop_
  _atom_site_type_symbol
  _atom_site_label
  _atom_site_symmetry_multiplicity
  _atom_site_fract_x
  _atom_site_fract_y
  _atom_site_fract_z
  _atom_site_occupancy
  B   B1        1.0  0.66700  0.33300  0.13600  1.0000
  B   B2        1.0  0.66700  0.33300  0.36400  1.0000
  B   B3        1.0  0.66700  0.33300  0.63600  1.0000
  B   B4        1.0  0.66700  0.33300  0.86400  1.0000
  Be  Be1       1.0  0.33300  0.66700  0.10200  1.0000
  Be  Be2       1.0  0.33300  0.66700  0.39800  1.0000
  Be  Be3       1.0  0.33300  0.66700  0.60200  1.0000
  Be  Be4       1.0  0.33300  0.66700  0.89800  1.0000
  O   O1        1.0  0.33300  0.66700  0.00000  1.0000
  O   O2        1.0  0.63300  0.02360  0.13700  1.0000
  O   O3        1.0  0.97600  0.60900  0.13700  1.0000
  O   O4        1.0  0.39100  0.36700  0.13700  1.0000
  O   O5        1.0  0.39100  0.36700  0.36300  1.0000
  O   O6        1.0  0.97600  0.60900  0.36300  1.0000
  O   O7        1.0  0.63300  0.02360  0.36300  1.0000
  O   O8        1.0  0.33300  0.66700  0.50000  1.0000
  O   O9        1.0  0.39100  0.02370  0.63700  1.0000
  O   O10       1.0  0.63300  0.60900  0.63700  1.0000
  O   O11       1.0  0.97600  0.36700  0.63700  1.0000
  O   O12       1.0  0.97600  0.36700  0.86300  1.0000
  O   O13       1.0  0.63300  0.60900  0.86300  1.0000
  O   O14       1.0  0.39100  0.02370  0.86300  1.0000
  Sr  Sr1       1.0  0.00000  0.00000  0.00000  1.0000
  Sr  Sr2       1.0  0.00000  0.00000  0.25000  1.0000
  Sr  Sr3       1.0  0.00000  0.00000  0.50000  1.0000
  Sr  Sr4       1.0  0.00000  0.00000  0.75000  1.0000
