data_image0
_chemical_formula_structural       Ca4Ni14P8
_chemical_formula_sum              "Ca4 Ni14 P8"
_cell_length_a       3.68778
_cell_length_b       9.18158
_cell_length_c       10.3442
_cell_angle_alpha    90
_cell_angle_beta     90
_cell_angle_gamma    90

_space_group_name_H-M_alt    "P 1"
_space_group_IT_number       1

loop_
  _space_group_symop_operation_xyz
  'x, y, z'

loop_
  _atom_site_type_symbol
  _atom_site_label
  _atom_site_symmetry_multiplicity
  _atom_site_fract_x
  _atom_site_fract_y
  _atom_site_fract_z
  _atom_site_occupancy
  Ca  Ca1       1.0  0.00000  0.43700  0.17900  1.0000
  Ca  Ca2       1.0  0.00000  0.06080  0.39500  1.0000
  Ca  Ca3       1.0  0.50000  0.56300  0.67900  1.0000
  Ca  Ca4       1.0  0.50000  0.93900  0.89500  1.0000
  Ni  Ni1       1.0  0.50000  0.27100  0.00864  1.0000
  Ni  Ni2       1.0  0.00000  0.09550  0.09560  1.0000
  Ni  Ni3       1.0  0.50000  0.69400  0.10100  1.0000
  Ni  Ni4       1.0  0.50000  0.94100  0.20000  1.0000
  Ni  Ni5       1.0  0.00000  0.74800  0.27300  1.0000
  Ni  Ni6       1.0  0.50000  0.58500  0.37300  1.0000
  Ni  Ni7       1.0  0.50000  0.31600  0.41400  1.0000
  Ni  Ni8       1.0  0.00000  0.72900  0.50900  1.0000
  Ni  Ni9       1.0  0.50000  0.90500  0.59600  1.0000
  Ni  Ni10      1.0  0.00000  0.30600  0.60100  1.0000
  Ni  Ni11      1.0  0.00000  0.05890  0.70000  1.0000
  Ni  Ni12      1.0  0.50000  0.25200  0.77300  1.0000
  Ni  Ni13      1.0  0.00000  0.41500  0.87300  1.0000
  Ni  Ni14      1.0  0.00000  0.68400  0.91400  1.0000
  P   P1        1.0  0.00000  0.84400  0.08330  1.0000
  P   P2        1.0  0.50000  0.18800  0.21200  1.0000
  P   P3        1.0  0.50000  0.82000  0.39100  1.0000
  P   P4        1.0  0.00000  0.47900  0.45900  1.0000
  P   P5        1.0  0.50000  0.15600  0.58300  1.0000
  P   P6        1.0  0.00000  0.81200  0.71200  1.0000
  P   P7        1.0  0.00000  0.18000  0.89100  1.0000
  P   P8        1.0  0.50000  0.52100  0.95900  1.0000
