data_image0
_chemical_formula_structural       Gd2O18P6
_chemical_formula_sum              "Gd2 O18 P6"
_cell_length_a       6.90945
_cell_length_b       6.90945
_cell_length_c       7.11301
_cell_angle_alpha    90
_cell_angle_beta     90
_cell_angle_gamma    105.048

_space_group_name_H-M_alt    "P 1"
_space_group_IT_number       1

loop_
  _space_group_symop_operation_xyz
  'x, y, z'

loop_
  _atom_site_type_symbol
  _atom_site_label
  _atom_site_symmetry_multiplicity
  _atom_site_fract_x
  _atom_site_fract_y
  _atom_site_fract_z
  _atom_site_occupancy
  Gd  Gd1       1.0  0.87800  0.87800  0.00000  1.0000
  Gd  Gd2       1.0  0.12200  0.12200  0.50000  1.0000
  O   O1        1.0  0.17500  0.79400  0.03810  1.0000
  O   O2        1.0  0.79000  0.53500  0.04360  1.0000
  O   O3        1.0  0.47300  0.25200  0.05400  1.0000
  O   O4        1.0  0.12700  0.17500  0.17300  1.0000
  O   O5        1.0  0.37800  0.62200  0.25000  1.0000
  O   O6        1.0  0.82500  0.87300  0.32700  1.0000
  O   O7        1.0  0.74800  0.52700  0.44600  1.0000
  O   O8        1.0  0.46500  0.21000  0.45600  1.0000
  O   O9        1.0  0.20600  0.82500  0.46200  1.0000
  O   O10       1.0  0.82500  0.20600  0.53800  1.0000
  O   O11       1.0  0.21000  0.46500  0.54400  1.0000
  O   O12       1.0  0.52700  0.74800  0.55400  1.0000
  O   O13       1.0  0.87300  0.82500  0.67300  1.0000
  O   O14       1.0  0.62200  0.37800  0.75000  1.0000
  O   O15       1.0  0.17500  0.12700  0.82700  1.0000
  O   O16       1.0  0.25200  0.47300  0.94600  1.0000
  O   O17       1.0  0.53500  0.79000  0.95600  1.0000
  O   O18       1.0  0.79400  0.17500  0.96200  1.0000
  P   P1        1.0  0.25100  0.25100  0.00000  1.0000
  P   P2        1.0  0.33800  0.69000  0.04150  1.0000
  P   P3        1.0  0.31000  0.66200  0.45800  1.0000
  P   P4        1.0  0.74900  0.74900  0.50000  1.0000
  P   P5        1.0  0.66200  0.31000  0.54200  1.0000
  P   P6        1.0  0.69000  0.33800  0.95800  1.0000
