data_image0
_chemical_formula_structural       CoF6H12O6Sn
_chemical_formula_sum              "Co1 F6 H12 O6 Sn1"
_cell_length_a       6.30093
_cell_length_b       6.30093
_cell_length_c       6.30093
_cell_angle_alpha    95.2365
_cell_angle_beta     95.2365
_cell_angle_gamma    95.2365

_space_group_name_H-M_alt    "P 1"
_space_group_IT_number       1

loop_
  _space_group_symop_operation_xyz
  'x, y, z'

loop_
  _atom_site_type_symbol
  _atom_site_label
  _atom_site_symmetry_multiplicity
  _atom_site_fract_x
  _atom_site_fract_y
  _atom_site_fract_z
  _atom_site_occupancy
  Co  Co1       1.0  0.50000  0.50000  0.50000  1.0000
  F   F1        1.0  0.72400  0.85600  0.06710  1.0000
  F   F2        1.0  0.93300  0.27600  0.14400  1.0000
  F   F3        1.0  0.14400  0.93300  0.27600  1.0000
  F   F4        1.0  0.85600  0.06710  0.72400  1.0000
  F   F5        1.0  0.06710  0.72400  0.85600  1.0000
  F   F6        1.0  0.27600  0.14400  0.93300  1.0000
  H   H1        1.0  0.45100  0.32200  0.08880  1.0000
  H   H2        1.0  0.69600  0.34600  0.18000  1.0000
  H   H3        1.0  0.65400  0.82000  0.30400  1.0000
  H   H4        1.0  0.08880  0.45100  0.32200  1.0000
  H   H5        1.0  0.18000  0.69600  0.34600  1.0000
  H   H6        1.0  0.32200  0.08880  0.45100  1.0000
  H   H7        1.0  0.67800  0.91100  0.54900  1.0000
  H   H8        1.0  0.82000  0.30400  0.65400  1.0000
  H   H9        1.0  0.91100  0.54900  0.67800  1.0000
  H   H10       1.0  0.34600  0.18000  0.69600  1.0000
  H   H11       1.0  0.30400  0.65400  0.82000  1.0000
  H   H12       1.0  0.54900  0.67800  0.91100  1.0000
  O   O1        1.0  0.55900  0.40700  0.19300  1.0000
  O   O2        1.0  0.19300  0.55900  0.40700  1.0000
  O   O3        1.0  0.59300  0.80700  0.44100  1.0000
  O   O4        1.0  0.40700  0.19300  0.55900  1.0000
  O   O5        1.0  0.80700  0.44100  0.59300  1.0000
  O   O6        1.0  0.44100  0.59300  0.80700  1.0000
  Sn  Sn1       1.0  0.00000  0.00000  0.00000  1.0000
