data_image0
_chemical_formula_structural       O15Rh5Sr6
_chemical_formula_sum              "O15 Rh5 Sr6"
_cell_length_a       7.07665
_cell_length_b       7.07665
_cell_length_c       7.07666
_cell_angle_alpha    94.702
_cell_angle_beta     85.298
_cell_angle_gamma    94.702

_space_group_name_H-M_alt    "P 1"
_space_group_IT_number       1

loop_
  _space_group_symop_operation_xyz
  'x, y, z'

loop_
  _atom_site_type_symbol
  _atom_site_label
  _atom_site_symmetry_multiplicity
  _atom_site_fract_x
  _atom_site_fract_y
  _atom_site_fract_z
  _atom_site_occupancy
  O   O1        1.0  0.83200  0.83200  0.00000  1.0000
  O   O2        1.0  0.20600  0.65000  0.01440  1.0000
  O   O3        1.0  0.00000  0.16800  0.16800  1.0000
  O   O4        1.0  0.35000  0.98600  0.20600  1.0000
  O   O5        1.0  0.56300  0.64600  0.25800  1.0000
  O   O6        1.0  0.01440  0.79400  0.35000  1.0000
  O   O7        1.0  0.25800  0.43700  0.35400  1.0000
  O   O8        1.0  0.74200  0.35400  0.43700  1.0000
  O   O9        1.0  0.35400  0.74200  0.56300  1.0000
  O   O10       1.0  0.43700  0.25800  0.64600  1.0000
  O   O11       1.0  0.79400  0.01440  0.65000  1.0000
  O   O12       1.0  0.64600  0.56300  0.74200  1.0000
  O   O13       1.0  0.98600  0.35000  0.79400  1.0000
  O   O14       1.0  0.16800  1.00000  0.83200  1.0000
  O   O15       1.0  0.65000  0.20600  0.98600  1.0000
  Rh  Rh1       1.0  0.09560  0.90400  0.09560  1.0000
  Rh  Rh2       1.0  0.29000  0.71000  0.29000  1.0000
  Rh  Rh3       1.0  0.50000  0.50000  0.50000  1.0000
  Rh  Rh4       1.0  0.71000  0.29000  0.71000  1.0000
  Rh  Rh5       1.0  0.90400  0.09560  0.90400  1.0000
  Sr  Sr1       1.0  0.32200  0.32200  0.00000  1.0000
  Sr  Sr2       1.0  0.85700  0.50000  0.14300  1.0000
  Sr  Sr3       1.0  0.67800  0.00000  0.32200  1.0000
  Sr  Sr4       1.0  0.14300  0.14300  0.50000  1.0000
  Sr  Sr5       1.0  0.00000  0.67800  0.67800  1.0000
  Sr  Sr6       1.0  0.50000  0.85700  0.85700  1.0000
