data_image0
_chemical_formula_structural       C4N4S18
_chemical_formula_sum              "C4 N4 S18"
_cell_length_a       8.50891
_cell_length_b       5.96953
_cell_length_c       12.4321
_cell_angle_alpha    90
_cell_angle_beta     102.349
_cell_angle_gamma    90

_space_group_name_H-M_alt    "P 1"
_space_group_IT_number       1

loop_
  _space_group_symop_operation_xyz
  'x, y, z'

loop_
  _atom_site_type_symbol
  _atom_site_label
  _atom_site_symmetry_multiplicity
  _atom_site_fract_x
  _atom_site_fract_y
  _atom_site_fract_z
  _atom_site_occupancy
  C   C1        1.0  0.54900  0.66700  0.25200  1.0000
  C   C2        1.0  0.30400  0.06570  0.47800  1.0000
  C   C3        1.0  0.69600  0.56600  0.52200  1.0000
  C   C4        1.0  0.45100  0.16700  0.74800  1.0000
  N   N1        1.0  0.55000  0.47000  0.25300  1.0000
  N   N2        1.0  0.32800  0.26000  0.48800  1.0000
  N   N3        1.0  0.67200  0.76000  0.51200  1.0000
  N   N4        1.0  0.45000  0.97000  0.74700  1.0000
  S   S1        1.0  0.26400  0.99900  0.02680  1.0000
  S   S2        1.0  0.16800  0.31000  0.05190  1.0000
  S   S3        1.0  0.50600  0.01670  0.08620  1.0000
  S   S4        1.0  0.14900  0.31600  0.21400  1.0000
  S   S5        1.0  0.93300  0.17200  0.22600  1.0000
  S   S6        1.0  0.97900  0.83100  0.24400  1.0000
  S   S7        1.0  0.54600  0.94900  0.25600  1.0000
  S   S8        1.0  0.03050  0.76500  0.40900  1.0000
  S   S9        1.0  0.28200  0.78700  0.46500  1.0000
  S   S10       1.0  0.71800  0.28700  0.53500  1.0000
  S   S11       1.0  0.97000  0.26500  0.59100  1.0000
  S   S12       1.0  0.45400  0.44900  0.74400  1.0000
  S   S13       1.0  0.02050  0.33100  0.75600  1.0000
  S   S14       1.0  0.06700  0.67200  0.77400  1.0000
  S   S15       1.0  0.85100  0.81600  0.78600  1.0000
  S   S16       1.0  0.49400  0.51700  0.91400  1.0000
  S   S17       1.0  0.83200  0.81000  0.94800  1.0000
  S   S18       1.0  0.73600  0.49900  0.97300  1.0000
