data_image0
_chemical_formula_structural       La4O18W4
_chemical_formula_sum              "La4 O18 W4"
_cell_length_a       7.2453
_cell_length_b       7.25993
_cell_length_c       7.01865
_cell_angle_alpha    96.3361
_cell_angle_beta     94.5942
_cell_angle_gamma    70.3374

_space_group_name_H-M_alt    "P 1"
_space_group_IT_number       1

loop_
  _space_group_symop_operation_xyz
  'x, y, z'

loop_
  _atom_site_type_symbol
  _atom_site_label
  _atom_site_symmetry_multiplicity
  _atom_site_fract_x
  _atom_site_fract_y
  _atom_site_fract_z
  _atom_site_occupancy
  La  La1       1.0  0.84800  0.74200  0.15600  1.0000
  La  La2       1.0  0.41600  0.27000  0.37600  1.0000
  La  La3       1.0  0.58400  0.73000  0.62400  1.0000
  La  La4       1.0  0.15200  0.25800  0.84400  1.0000
  O   O1        1.0  0.15500  0.71700  0.01110  1.0000
  O   O2        1.0  0.46000  0.29500  0.02350  1.0000
  O   O3        1.0  0.19200  0.05420  0.14100  1.0000
  O   O4        1.0  0.09250  0.41900  0.19000  1.0000
  O   O5        1.0  0.80800  0.09140  0.27400  1.0000
  O   O6        1.0  0.52700  0.90600  0.32000  1.0000
  O   O7        1.0  0.74300  0.49700  0.34400  1.0000
  O   O8        1.0  0.35200  0.64700  0.34900  1.0000
  O   O9        1.0  0.09640  0.22400  0.49500  1.0000
  O   O10       1.0  0.90400  0.77600  0.50500  1.0000
  O   O11       1.0  0.64800  0.35300  0.65100  1.0000
  O   O12       1.0  0.25700  0.50300  0.65600  1.0000
  O   O13       1.0  0.47300  0.09420  0.68000  1.0000
  O   O14       1.0  0.19200  0.90900  0.72600  1.0000
  O   O15       1.0  0.90800  0.58100  0.81000  1.0000
  O   O16       1.0  0.80800  0.94600  0.85900  1.0000
  O   O17       1.0  0.53900  0.70500  0.97600  1.0000
  O   O18       1.0  0.84500  0.28300  0.98900  1.0000
  W   W1        1.0  0.35500  0.79500  0.15700  1.0000
  W   W2        1.0  0.93800  0.27200  0.28100  1.0000
  W   W3        1.0  0.06230  0.72800  0.71900  1.0000
  W   W4        1.0  0.64500  0.20500  0.84300  1.0000
