data_image0
_chemical_formula_structural       O6P8S12
_chemical_formula_sum              "O6 P8 S12"
_cell_length_a       6.60945
_cell_length_b       12.3698
_cell_length_c       7.39598
_cell_angle_alpha    90
_cell_angle_beta     103.993
_cell_angle_gamma    90

_space_group_name_H-M_alt    "P 1"
_space_group_IT_number       1

loop_
  _space_group_symop_operation_xyz
  'x, y, z'

loop_
  _atom_site_type_symbol
  _atom_site_label
  _atom_site_symmetry_multiplicity
  _atom_site_fract_x
  _atom_site_fract_y
  _atom_site_fract_z
  _atom_site_occupancy
  O   O1        1.0  0.30100  0.14800  0.03700  1.0000
  O   O2        1.0  0.30100  0.35200  0.03700  1.0000
  O   O3        1.0  0.79900  0.75000  0.26800  1.0000
  O   O4        1.0  0.20100  0.25000  0.73200  1.0000
  O   O5        1.0  0.69900  0.64800  0.96300  1.0000
  O   O6        1.0  0.69900  0.85200  0.96300  1.0000
  P   P1        1.0  0.21100  0.75000  0.04010  1.0000
  P   P2        1.0  0.29600  0.25000  0.17600  1.0000
  P   P3        1.0  0.82000  0.63000  0.18200  1.0000
  P   P4        1.0  0.82000  0.87000  0.18200  1.0000
  P   P5        1.0  0.18000  0.13000  0.81800  1.0000
  P   P6        1.0  0.18000  0.37000  0.81800  1.0000
  P   P7        1.0  0.70400  0.75000  0.82400  1.0000
  P   P8        1.0  0.78900  0.25000  0.96000  1.0000
  S   S1        1.0  0.13400  0.61200  0.18500  1.0000
  S   S2        1.0  0.13400  0.88800  0.18500  1.0000
  S   S3        1.0  0.00180  0.25000  0.22800  1.0000
  S   S4        1.0  0.70900  0.51700  0.30200  1.0000
  S   S5        1.0  0.70900  0.98300  0.30200  1.0000
  S   S6        1.0  0.51800  0.25000  0.39300  1.0000
  S   S7        1.0  0.48200  0.75000  0.60700  1.0000
  S   S8        1.0  0.29100  0.01710  0.69800  1.0000
  S   S9        1.0  0.29100  0.48300  0.69800  1.0000
  S   S10       1.0  0.99800  0.75000  0.77200  1.0000
  S   S11       1.0  0.86600  0.11200  0.81500  1.0000
  S   S12       1.0  0.86600  0.38800  0.81500  1.0000
