data_image0
_chemical_formula_structural       Ni14P8Pr4
_chemical_formula_sum              "Ni14 P8 Pr4"
_cell_length_a       3.77147
_cell_length_b       9.2435
_cell_length_c       10.4617
_cell_angle_alpha    90
_cell_angle_beta     90
_cell_angle_gamma    90

_space_group_name_H-M_alt    "P 1"
_space_group_IT_number       1

loop_
  _space_group_symop_operation_xyz
  'x, y, z'

loop_
  _atom_site_type_symbol
  _atom_site_label
  _atom_site_symmetry_multiplicity
  _atom_site_fract_x
  _atom_site_fract_y
  _atom_site_fract_z
  _atom_site_occupancy
  Ni  Ni1       1.0  0.50000  0.30500  0.07430  1.0000
  Ni  Ni2       1.0  0.00000  0.90300  0.08550  1.0000
  Ni  Ni3       1.0  0.50000  0.72500  0.17200  1.0000
  Ni  Ni4       1.0  0.00000  0.31800  0.26100  1.0000
  Ni  Ni5       1.0  0.00000  0.58300  0.30500  1.0000
  Ni  Ni6       1.0  0.50000  0.74800  0.40200  1.0000
  Ni  Ni7       1.0  0.00000  0.93900  0.48000  1.0000
  Ni  Ni8       1.0  0.00000  0.69500  0.57400  1.0000
  Ni  Ni9       1.0  0.50000  0.09670  0.58500  1.0000
  Ni  Ni10      1.0  0.00000  0.27500  0.67200  1.0000
  Ni  Ni11      1.0  0.50000  0.68200  0.76100  1.0000
  Ni  Ni12      1.0  0.50000  0.41700  0.80500  1.0000
  Ni  Ni13      1.0  0.00000  0.25200  0.90200  1.0000
  Ni  Ni14      1.0  0.50000  0.06110  0.98000  1.0000
  P   P1        1.0  0.00000  0.15700  0.08950  1.0000
  P   P2        1.0  0.50000  0.47600  0.21800  1.0000
  P   P3        1.0  0.00000  0.81600  0.28800  1.0000
  P   P4        1.0  0.00000  0.18600  0.47200  1.0000
  P   P5        1.0  0.50000  0.84300  0.58900  1.0000
  P   P6        1.0  0.00000  0.52400  0.71800  1.0000
  P   P7        1.0  0.50000  0.18400  0.78800  1.0000
  P   P8        1.0  0.50000  0.81400  0.97200  1.0000
  Pr  Pr1       1.0  0.00000  0.56200  0.00097  1.0000
  Pr  Pr2       1.0  0.50000  0.06110  0.28300  1.0000
  Pr  Pr3       1.0  0.50000  0.43800  0.50100  1.0000
  Pr  Pr4       1.0  0.00000  0.93900  0.78300  1.0000
