data_image0
_chemical_formula_structural       Au16Ga2K8
_chemical_formula_sum              "Au16 Ga2 K8"
_cell_length_a       5.77974
_cell_length_b       11.0335
_cell_length_c       11.1853
_cell_angle_alpha    96.8863
_cell_angle_beta     90
_cell_angle_gamma    105.184

_space_group_name_H-M_alt    "P 1"
_space_group_IT_number       1

loop_
  _space_group_symop_operation_xyz
  'x, y, z'

loop_
  _atom_site_type_symbol
  _atom_site_label
  _atom_site_symmetry_multiplicity
  _atom_site_fract_x
  _atom_site_fract_y
  _atom_site_fract_z
  _atom_site_occupancy
  Au  Au1       1.0  0.00000  0.00000  0.00000  1.0000
  Au  Au2       1.0  0.35600  0.23600  0.07890  1.0000
  Au  Au3       1.0  0.88000  0.23600  0.07890  1.0000
  Au  Au4       1.0  0.90000  0.80000  0.14800  1.0000
  Au  Au5       1.0  0.79000  0.58100  0.26800  1.0000
  Au  Au6       1.0  0.14700  0.79500  0.36800  1.0000
  Au  Au7       1.0  0.64700  0.79500  0.36800  1.0000
  Au  Au8       1.0  0.62400  0.24900  0.42600  1.0000
  Au  Au9       1.0  0.50000  0.00000  0.50000  1.0000
  Au  Au10      1.0  0.37600  0.75100  0.57400  1.0000
  Au  Au11      1.0  0.35300  0.20500  0.63200  1.0000
  Au  Au12      1.0  0.85300  0.20500  0.63200  1.0000
  Au  Au13      1.0  0.21000  0.41900  0.73200  1.0000
  Au  Au14      1.0  0.09980  0.20000  0.85200  1.0000
  Au  Au15      1.0  0.12000  0.76400  0.92100  1.0000
  Au  Au16      1.0  0.64400  0.76400  0.92100  1.0000
  Ga  Ga1       1.0  0.67400  0.34700  0.23700  1.0000
  Ga  Ga2       1.0  0.32600  0.65300  0.76300  1.0000
  K   K1        1.0  0.28400  0.56800  0.10300  1.0000
  K   K2        1.0  0.48500  0.96900  0.16500  1.0000
  K   K3        1.0  0.04610  0.09230  0.34300  1.0000
  K   K4        1.0  0.22400  0.44800  0.40800  1.0000
  K   K5        1.0  0.77600  0.55200  0.59200  1.0000
  K   K6        1.0  0.95400  0.90800  0.65700  1.0000
  K   K7        1.0  0.51500  0.03060  0.83500  1.0000
  K   K8        1.0  0.71600  0.43200  0.89700  1.0000
