data_image0
_chemical_formula_structural       Ni6S16Ta4
_chemical_formula_sum              "Ni6 S16 Ta4"
_cell_length_a       14.16
_cell_length_b       10.1248
_cell_length_c       3.3416
_cell_angle_alpha    90
_cell_angle_beta     90
_cell_angle_gamma    90

_space_group_name_H-M_alt    "P 1"
_space_group_IT_number       1

loop_
  _space_group_symop_operation_xyz
  'x, y, z'

loop_
  _atom_site_type_symbol
  _atom_site_label
  _atom_site_symmetry_multiplicity
  _atom_site_fract_x
  _atom_site_fract_y
  _atom_site_fract_z
  _atom_site_occupancy
  Ni  Ni1       1.0  0.00000  0.00000  0.00000  1.0000
  Ni  Ni2       1.0  0.72500  0.13000  0.00000  1.0000
  Ni  Ni3       1.0  0.22500  0.37000  0.00000  1.0000
  Ni  Ni4       1.0  0.50000  0.50000  0.00000  1.0000
  Ni  Ni5       1.0  0.77500  0.63000  0.00000  1.0000
  Ni  Ni6       1.0  0.27500  0.87000  0.00000  1.0000
  S   S1        1.0  0.15500  0.02750  0.00000  1.0000
  S   S2        1.0  0.99100  0.21900  0.00000  1.0000
  S   S3        1.0  0.49100  0.28100  0.00000  1.0000
  S   S4        1.0  0.65500  0.47200  0.00000  1.0000
  S   S5        1.0  0.34500  0.52800  0.00000  1.0000
  S   S6        1.0  0.50900  0.71900  0.00000  1.0000
  S   S7        1.0  0.00859  0.78100  0.00000  1.0000
  S   S8        1.0  0.84500  0.97200  0.00000  1.0000
  S   S9        1.0  0.63200  0.05860  0.50000  1.0000
  S   S10       1.0  0.28600  0.24800  0.50000  1.0000
  S   S11       1.0  0.78600  0.25200  0.50000  1.0000
  S   S12       1.0  0.13200  0.44100  0.50000  1.0000
  S   S13       1.0  0.86800  0.55900  0.50000  1.0000
  S   S14       1.0  0.21400  0.74800  0.50000  1.0000
  S   S15       1.0  0.71400  0.75200  0.50000  1.0000
  S   S16       1.0  0.36800  0.94100  0.50000  1.0000
  Ta  Ta1       1.0  0.11900  0.20200  0.50000  1.0000
  Ta  Ta2       1.0  0.61900  0.29800  0.50000  1.0000
  Ta  Ta3       1.0  0.38100  0.70200  0.50000  1.0000
  Ta  Ta4       1.0  0.88100  0.79800  0.50000  1.0000
