data_image0
_chemical_formula_structural       Ir4Zn22
_chemical_formula_sum              "Ir4 Zn22"
_cell_length_a       7.88907
_cell_length_b       7.88907
_cell_length_c       7.88907
_cell_angle_alpha    109.471
_cell_angle_beta     109.471
_cell_angle_gamma    109.471

_space_group_name_H-M_alt    "P 1"
_space_group_IT_number       1

loop_
  _space_group_symop_operation_xyz
  'x, y, z'

loop_
  _atom_site_type_symbol
  _atom_site_label
  _atom_site_symmetry_multiplicity
  _atom_site_fract_x
  _atom_site_fract_y
  _atom_site_fract_z
  _atom_site_occupancy
  Ir  Ir1       1.0  0.34600  0.00000  0.00000  1.0000
  Ir  Ir2       1.0  0.00000  0.34600  0.00000  1.0000
  Ir  Ir3       1.0  0.00000  0.00000  0.34600  1.0000
  Ir  Ir4       1.0  0.65400  0.65400  0.65400  1.0000
  Zn  Zn1       1.0  0.78900  0.00000  0.00000  1.0000
  Zn  Zn2       1.0  0.64900  0.26600  0.00000  1.0000
  Zn  Zn3       1.0  0.35700  0.35700  0.00000  1.0000
  Zn  Zn4       1.0  0.64300  0.64300  0.00000  1.0000
  Zn  Zn5       1.0  0.26600  0.64900  0.00000  1.0000
  Zn  Zn6       1.0  0.00000  0.78900  0.00000  1.0000
  Zn  Zn7       1.0  0.21100  0.21100  0.21100  1.0000
  Zn  Zn8       1.0  0.64900  0.00000  0.26600  1.0000
  Zn  Zn9       1.0  0.00000  0.64900  0.26600  1.0000
  Zn  Zn10      1.0  0.61600  0.35100  0.35100  1.0000
  Zn  Zn11      1.0  0.35100  0.61600  0.35100  1.0000
  Zn  Zn12      1.0  0.35700  0.00000  0.35700  1.0000
  Zn  Zn13      1.0  0.00000  0.35700  0.35700  1.0000
  Zn  Zn14      1.0  0.73400  0.73400  0.38400  1.0000
  Zn  Zn15      1.0  0.35100  0.35100  0.61600  1.0000
  Zn  Zn16      1.0  0.64300  0.00000  0.64300  1.0000
  Zn  Zn17      1.0  0.00000  0.64300  0.64300  1.0000
  Zn  Zn18      1.0  0.26600  0.00000  0.64900  1.0000
  Zn  Zn19      1.0  0.00000  0.26600  0.64900  1.0000
  Zn  Zn20      1.0  0.73400  0.38400  0.73400  1.0000
  Zn  Zn21      1.0  0.38400  0.73400  0.73400  1.0000
  Zn  Zn22      1.0  0.00000  0.00000  0.78900  1.0000
