data_image0
_chemical_formula_structural       C2Mn2Na6O14P2
_chemical_formula_sum              "C2 Mn2 Na6 O14 P2"
_cell_length_a       8.96639
_cell_length_b       6.68797
_cell_length_c       5.10861
_cell_angle_alpha    90
_cell_angle_beta     90.1328
_cell_angle_gamma    90

_space_group_name_H-M_alt    "P 1"
_space_group_IT_number       1

loop_
  _space_group_symop_operation_xyz
  'x, y, z'

loop_
  _atom_site_type_symbol
  _atom_site_label
  _atom_site_symmetry_multiplicity
  _atom_site_fract_x
  _atom_site_fract_y
  _atom_site_fract_z
  _atom_site_occupancy
  C   C1        1.0  0.94000  0.25000  0.26400  1.0000
  C   C2        1.0  0.06000  0.75000  0.73600  1.0000
  Mn  Mn1       1.0  0.63900  0.25000  0.22400  1.0000
  Mn  Mn2       1.0  0.36100  0.75000  0.77600  1.0000
  Na  Na1       1.0  0.91700  0.75000  0.23900  1.0000
  Na  Na2       1.0  0.25800  0.00145  0.24800  1.0000
  Na  Na3       1.0  0.25800  0.49900  0.24800  1.0000
  Na  Na4       1.0  0.74200  0.50100  0.75200  1.0000
  Na  Na5       1.0  0.74200  0.99900  0.75200  1.0000
  Na  Na6       1.0  0.08300  0.25000  0.76100  1.0000
  O   O1        1.0  0.87700  0.25000  0.03490  1.0000
  O   O2        1.0  0.43200  0.75000  0.17800  1.0000
  O   O3        1.0  0.68200  0.56500  0.21500  1.0000
  O   O4        1.0  0.68200  0.93500  0.21500  1.0000
  O   O5        1.0  0.08370  0.25000  0.28600  1.0000
  O   O6        1.0  0.42700  0.25000  0.39700  1.0000
  O   O7        1.0  0.85700  0.25000  0.47200  1.0000
  O   O8        1.0  0.14300  0.75000  0.52800  1.0000
  O   O9        1.0  0.57300  0.75000  0.60300  1.0000
  O   O10       1.0  0.91600  0.75000  0.71400  1.0000
  O   O11       1.0  0.31800  0.06500  0.78500  1.0000
  O   O12       1.0  0.31800  0.43500  0.78500  1.0000
  O   O13       1.0  0.56800  0.25000  0.82200  1.0000
  O   O14       1.0  0.12300  0.75000  0.96500  1.0000
  P   P1        1.0  0.59000  0.75000  0.29900  1.0000
  P   P2        1.0  0.41000  0.25000  0.70100  1.0000
