data_image0
_chemical_formula_structural       Mn5O16Pb3V2
_chemical_formula_sum              "Mn5 O16 Pb3 V2"
_cell_length_a       5.74803
_cell_length_b       5.74796
_cell_length_c       11.3483
_cell_angle_alpha    90
_cell_angle_beta     90.001
_cell_angle_gamma    120

_space_group_name_H-M_alt    "P 1"
_space_group_IT_number       1

loop_
  _space_group_symop_operation_xyz
  'x, y, z'

loop_
  _atom_site_type_symbol
  _atom_site_label
  _atom_site_symmetry_multiplicity
  _atom_site_fract_x
  _atom_site_fract_y
  _atom_site_fract_z
  _atom_site_occupancy
  Mn  Mn1       1.0  0.00000  0.00000  0.30900  1.0000
  Mn  Mn2       1.0  0.00000  0.50000  0.50000  1.0000
  Mn  Mn3       1.0  0.50000  0.00000  0.50000  1.0000
  Mn  Mn4       1.0  0.50000  0.50000  0.50000  1.0000
  Mn  Mn5       1.0  0.00000  0.00000  0.69100  1.0000
  O   O1        1.0  0.33300  0.66700  0.01090  1.0000
  O   O2        1.0  0.83600  0.16400  0.18300  1.0000
  O   O3        1.0  0.83600  0.67100  0.18300  1.0000
  O   O4        1.0  0.32900  0.16400  0.18300  1.0000
  O   O5        1.0  0.64700  0.82400  0.40500  1.0000
  O   O6        1.0  0.17600  0.35300  0.40500  1.0000
  O   O7        1.0  0.17600  0.82400  0.40500  1.0000
  O   O8        1.0  0.66700  0.33300  0.41300  1.0000
  O   O9        1.0  0.33300  0.66700  0.58700  1.0000
  O   O10       1.0  0.82400  0.64700  0.59500  1.0000
  O   O11       1.0  0.82400  0.17600  0.59500  1.0000
  O   O12       1.0  0.35300  0.17600  0.59500  1.0000
  O   O13       1.0  0.67100  0.83600  0.81700  1.0000
  O   O14       1.0  0.16400  0.32900  0.81700  1.0000
  O   O15       1.0  0.16400  0.83600  0.81700  1.0000
  O   O16       1.0  0.66700  0.33300  0.98900  1.0000
  Pb  Pb1       1.0  0.00000  0.00000  0.00000  1.0000
  Pb  Pb2       1.0  0.33300  0.66700  0.23400  1.0000
  Pb  Pb3       1.0  0.66700  0.33300  0.76600  1.0000
  V   V1        1.0  0.66700  0.33300  0.13800  1.0000
  V   V2        1.0  0.33300  0.66700  0.86200  1.0000
