data_image0
_chemical_formula_structural       B20Nd4Ni2
_chemical_formula_sum              "B20 Nd4 Ni2"
_cell_length_a       5.62499
_cell_length_b       11.2052
_cell_length_c       4.18689
_cell_angle_alpha    90
_cell_angle_beta     90
_cell_angle_gamma    90

_space_group_name_H-M_alt    "P 1"
_space_group_IT_number       1

loop_
  _space_group_symop_operation_xyz
  'x, y, z'

loop_
  _atom_site_type_symbol
  _atom_site_label
  _atom_site_symmetry_multiplicity
  _atom_site_fract_x
  _atom_site_fract_y
  _atom_site_fract_z
  _atom_site_occupancy
  B   B1        1.0  0.37400  0.04130  0.00000  1.0000
  B   B2        1.0  0.03390  0.18700  0.00000  1.0000
  B   B3        1.0  0.34300  0.19800  0.00000  1.0000
  B   B4        1.0  0.84300  0.30200  0.00000  1.0000
  B   B5        1.0  0.53400  0.31300  0.00000  1.0000
  B   B6        1.0  0.87400  0.45900  0.00000  1.0000
  B   B7        1.0  0.12600  0.54100  0.00000  1.0000
  B   B8        1.0  0.46600  0.68700  0.00000  1.0000
  B   B9        1.0  0.15700  0.69800  0.00000  1.0000
  B   B10       1.0  0.65700  0.80200  0.00000  1.0000
  B   B11       1.0  0.96600  0.81300  0.00000  1.0000
  B   B12       1.0  0.62600  0.95900  0.00000  1.0000
  B   B13       1.0  0.20200  0.11400  0.30000  1.0000
  B   B14       1.0  0.70200  0.38600  0.30000  1.0000
  B   B15       1.0  0.29800  0.61400  0.30000  1.0000
  B   B16       1.0  0.79800  0.88600  0.30000  1.0000
  B   B17       1.0  0.20200  0.11400  0.70000  1.0000
  B   B18       1.0  0.70200  0.38600  0.70000  1.0000
  B   B19       1.0  0.29800  0.61400  0.70000  1.0000
  B   B20       1.0  0.79800  0.88600  0.70000  1.0000
  Nd  Nd1       1.0  0.68900  0.13700  0.50000  1.0000
  Nd  Nd2       1.0  0.18900  0.36300  0.50000  1.0000
  Nd  Nd3       1.0  0.81100  0.63700  0.50000  1.0000
  Nd  Nd4       1.0  0.31100  0.86300  0.50000  1.0000
  Ni  Ni1       1.0  0.00000  0.00000  0.00000  1.0000
  Ni  Ni2       1.0  0.50000  0.50000  0.00000  1.0000
