data_image0
_chemical_formula_structural       Ce2K4O16P4
_chemical_formula_sum              "Ce2 K4 O16 P4"
_cell_length_a       7.05938
_cell_length_b       7.05938
_cell_length_c       9.94668
_cell_angle_alpha    110.785
_cell_angle_beta     110.785
_cell_angle_gamma    90

_space_group_name_H-M_alt    "P 1"
_space_group_IT_number       1

loop_
  _space_group_symop_operation_xyz
  'x, y, z'

loop_
  _atom_site_type_symbol
  _atom_site_label
  _atom_site_symmetry_multiplicity
  _atom_site_fract_x
  _atom_site_fract_y
  _atom_site_fract_z
  _atom_site_occupancy
  Ce  Ce1       1.0  0.00000  0.00000  0.00000  1.0000
  Ce  Ce2       1.0  0.25000  0.75000  0.50000  1.0000
  K   K1        1.0  0.62500  0.37500  0.25000  1.0000
  K   K2        1.0  0.62500  0.87500  0.25000  1.0000
  K   K3        1.0  0.12500  0.37500  0.75000  1.0000
  K   K4        1.0  0.62500  0.37500  0.75000  1.0000
  O   O1        1.0  0.01030  0.34100  0.02070  1.0000
  O   O2        1.0  0.01030  0.68000  0.02070  1.0000
  O   O3        1.0  0.29700  0.61800  0.23600  1.0000
  O   O4        1.0  0.93900  0.61800  0.23600  1.0000
  O   O5        1.0  0.31100  0.13200  0.26400  1.0000
  O   O6        1.0  0.95300  0.13200  0.26400  1.0000
  O   O7        1.0  0.24000  0.07000  0.47900  1.0000
  O   O8        1.0  0.24000  0.40900  0.47900  1.0000
  O   O9        1.0  0.59100  0.76000  0.52100  1.0000
  O   O10       1.0  0.93000  0.76000  0.52100  1.0000
  O   O11       1.0  0.86800  0.04670  0.73600  1.0000
  O   O12       1.0  0.86800  0.68900  0.73600  1.0000
  O   O13       1.0  0.38200  0.06070  0.76400  1.0000
  O   O14       1.0  0.38200  0.70300  0.76400  1.0000
  O   O15       1.0  0.32000  0.99000  0.97900  1.0000
  O   O16       1.0  0.65900  0.99000  0.97900  1.0000
  P   P1        1.0  0.06600  0.56600  0.13200  1.0000
  P   P2        1.0  0.18400  0.18400  0.36800  1.0000
  P   P3        1.0  0.81600  0.81600  0.63200  1.0000
  P   P4        1.0  0.43400  0.93400  0.86800  1.0000
