data_image0
_chemical_formula_structural       Na16Sb8Sn2
_chemical_formula_sum              "Na16 Sb8 Sn2"
_cell_length_a       10.4219
_cell_length_b       10.4219
_cell_length_c       10.4219
_cell_angle_alpha    120
_cell_angle_beta     90
_cell_angle_gamma    120

_space_group_name_H-M_alt    "P 1"
_space_group_IT_number       1

loop_
  _space_group_symop_operation_xyz
  'x, y, z'

loop_
  _atom_site_type_symbol
  _atom_site_label
  _atom_site_symmetry_multiplicity
  _atom_site_fract_x
  _atom_site_fract_y
  _atom_site_fract_z
  _atom_site_occupancy
  Na  Na1       1.0  0.00000  0.00000  0.00000  1.0000
  Na  Na2       1.0  0.00000  0.50000  0.00000  1.0000
  Na  Na3       1.0  0.50000  0.50000  0.00000  1.0000
  Na  Na4       1.0  0.39700  0.79500  0.14700  1.0000
  Na  Na5       1.0  0.39700  0.25000  0.14700  1.0000
  Na  Na6       1.0  0.85300  0.25000  0.14700  1.0000
  Na  Na7       1.0  0.14700  0.29500  0.39700  1.0000
  Na  Na8       1.0  0.14700  0.75000  0.39700  1.0000
  Na  Na9       1.0  0.60300  0.75000  0.39700  1.0000
  Na  Na10      1.0  0.00000  0.00000  0.50000  1.0000
  Na  Na11      1.0  0.85300  0.70500  0.60300  1.0000
  Na  Na12      1.0  0.39700  0.25000  0.60300  1.0000
  Na  Na13      1.0  0.85300  0.25000  0.60300  1.0000
  Na  Na14      1.0  0.60300  0.20500  0.85300  1.0000
  Na  Na15      1.0  0.14700  0.75000  0.85300  1.0000
  Na  Na16      1.0  0.60300  0.75000  0.85300  1.0000
  Sb  Sb1       1.0  0.23800  0.47500  0.21300  1.0000
  Sb  Sb2       1.0  0.21300  0.97500  0.23800  1.0000
  Sb  Sb3       1.0  0.76200  0.97500  0.23800  1.0000
  Sb  Sb4       1.0  0.76200  0.52500  0.23800  1.0000
  Sb  Sb5       1.0  0.23800  0.02450  0.76200  1.0000
  Sb  Sb6       1.0  0.23800  0.47500  0.76200  1.0000
  Sb  Sb7       1.0  0.78700  0.02450  0.76200  1.0000
  Sb  Sb8       1.0  0.76200  0.52500  0.78700  1.0000
  Sn  Sn1       1.0  0.87500  0.75000  0.12500  1.0000
  Sn  Sn2       1.0  0.12500  0.25000  0.87500  1.0000
