data_image0
_chemical_formula_structural       Be8Na2O14Sb2
_chemical_formula_sum              "Be8 Na2 O14 Sb2"
_cell_length_a       5.44323
_cell_length_b       5.44323
_cell_length_c       8.86942
_cell_angle_alpha    90
_cell_angle_beta     90
_cell_angle_gamma    120

_space_group_name_H-M_alt    "P 1"
_space_group_IT_number       1

loop_
  _space_group_symop_operation_xyz
  'x, y, z'

loop_
  _atom_site_type_symbol
  _atom_site_label
  _atom_site_symmetry_multiplicity
  _atom_site_fract_x
  _atom_site_fract_y
  _atom_site_fract_z
  _atom_site_occupancy
  Be  Be1       1.0  0.00000  0.00000  0.06100  1.0000
  Be  Be2       1.0  0.16500  0.33100  0.31300  1.0000
  Be  Be3       1.0  0.16600  0.83500  0.31300  1.0000
  Be  Be4       1.0  0.66900  0.83500  0.31300  1.0000
  Be  Be5       1.0  0.00000  0.00000  0.56100  1.0000
  Be  Be6       1.0  0.33100  0.16500  0.81300  1.0000
  Be  Be7       1.0  0.83400  0.16500  0.81300  1.0000
  Be  Be8       1.0  0.83500  0.66900  0.81300  1.0000
  Na  Na1       1.0  0.66700  0.33300  0.12500  1.0000
  Na  Na2       1.0  0.33300  0.66700  0.62500  1.0000
  O   O1        1.0  0.16100  0.32100  0.12900  1.0000
  O   O2        1.0  0.16100  0.83900  0.12900  1.0000
  O   O3        1.0  0.67900  0.83900  0.12900  1.0000
  O   O4        1.0  0.49500  0.98900  0.37100  1.0000
  O   O5        1.0  0.01060  0.50500  0.37100  1.0000
  O   O6        1.0  0.49500  0.50500  0.37100  1.0000
  O   O7        1.0  0.00000  0.00000  0.37600  1.0000
  O   O8        1.0  0.32100  0.16100  0.62900  1.0000
  O   O9        1.0  0.83900  0.16100  0.62900  1.0000
  O   O10       1.0  0.83900  0.67900  0.62900  1.0000
  O   O11       1.0  0.50500  0.01050  0.87100  1.0000
  O   O12       1.0  0.50500  0.49500  0.87100  1.0000
  O   O13       1.0  0.98900  0.49500  0.87100  1.0000
  O   O14       1.0  0.00000  0.00000  0.87600  1.0000
  Sb  Sb1       1.0  0.33300  0.66700  0.00044  1.0000
  Sb  Sb2       1.0  0.66700  0.33300  0.50000  1.0000
