data_image0
_chemical_formula_structural       Cd2Na4O16S4
_chemical_formula_sum              "Cd2 Na4 O16 S4"
_cell_length_a       6.43738
_cell_length_b       6.43738
_cell_length_c       8.53377
_cell_angle_alpha    108.376
_cell_angle_beta     71.6241
_cell_angle_gamma    101.214

_space_group_name_H-M_alt    "P 1"
_space_group_IT_number       1

loop_
  _space_group_symop_operation_xyz
  'x, y, z'

loop_
  _atom_site_type_symbol
  _atom_site_label
  _atom_site_symmetry_multiplicity
  _atom_site_fract_x
  _atom_site_fract_y
  _atom_site_fract_z
  _atom_site_occupancy
  Cd  Cd1       1.0  0.06590  0.06590  0.25000  1.0000
  Cd  Cd2       1.0  0.93400  0.93400  0.75000  1.0000
  Na  Na1       1.0  0.69100  0.41900  0.06640  1.0000
  Na  Na2       1.0  0.41900  0.69100  0.43400  1.0000
  Na  Na3       1.0  0.58100  0.30900  0.56600  1.0000
  Na  Na4       1.0  0.30900  0.58100  0.93400  1.0000
  O   O1        1.0  0.77700  0.05020  0.05410  1.0000
  O   O2        1.0  0.51000  0.74400  0.13200  1.0000
  O   O3        1.0  0.00101  0.68500  0.16100  1.0000
  O   O4        1.0  0.12800  0.42100  0.24800  1.0000
  O   O5        1.0  0.42100  0.12800  0.25200  1.0000
  O   O6        1.0  0.68500  0.00101  0.33900  1.0000
  O   O7        1.0  0.74400  0.51000  0.36800  1.0000
  O   O8        1.0  0.05020  0.77700  0.44600  1.0000
  O   O9        1.0  0.95000  0.22300  0.55400  1.0000
  O   O10       1.0  0.25600  0.49000  0.63200  1.0000
  O   O11       1.0  0.31500  0.99900  0.66100  1.0000
  O   O12       1.0  0.57900  0.87200  0.74800  1.0000
  O   O13       1.0  0.87200  0.57900  0.75200  1.0000
  O   O14       1.0  0.99900  0.31500  0.83900  1.0000
  O   O15       1.0  0.49000  0.25600  0.86800  1.0000
  O   O16       1.0  0.22300  0.95000  0.94600  1.0000
  S   S1        1.0  0.59700  0.97700  0.19000  1.0000
  S   S2        1.0  0.97700  0.59700  0.31000  1.0000
  S   S3        1.0  0.02290  0.40300  0.69000  1.0000
  S   S4        1.0  0.40300  0.02290  0.81000  1.0000
