data_image0
_chemical_formula_structural       Ba6Ni5O15
_chemical_formula_sum              "Ba6 Ni5 O15"
_cell_length_a       7.10555
_cell_length_b       7.10555
_cell_length_c       7.10555
_cell_angle_alpha    88.1625
_cell_angle_beta     91.8375
_cell_angle_gamma    91.8375

_space_group_name_H-M_alt    "P 1"
_space_group_IT_number       1

loop_
  _space_group_symop_operation_xyz
  'x, y, z'

loop_
  _atom_site_type_symbol
  _atom_site_label
  _atom_site_symmetry_multiplicity
  _atom_site_fract_x
  _atom_site_fract_y
  _atom_site_fract_z
  _atom_site_occupancy
  Ba  Ba1       1.0  0.33600  0.33600  0.00000  1.0000
  Ba  Ba2       1.0  0.50000  0.85100  0.14900  1.0000
  Ba  Ba3       1.0  0.00000  0.66400  0.33600  1.0000
  Ba  Ba4       1.0  0.14900  0.14900  0.50000  1.0000
  Ba  Ba5       1.0  0.66400  0.00000  0.66400  1.0000
  Ba  Ba6       1.0  0.85100  0.50000  0.85100  1.0000
  Ni  Ni1       1.0  0.90500  0.09460  0.09460  1.0000
  Ni  Ni2       1.0  0.71100  0.28900  0.28900  1.0000
  Ni  Ni3       1.0  0.50000  0.50000  0.50000  1.0000
  Ni  Ni4       1.0  0.28900  0.71100  0.71100  1.0000
  Ni  Ni5       1.0  0.09460  0.90500  0.90500  1.0000
  O   O1        1.0  0.85500  0.85500  0.00000  1.0000
  O   O2        1.0  0.67000  0.19000  0.03570  1.0000
  O   O3        1.0  0.14500  0.00000  0.14500  1.0000
  O   O4        1.0  0.96400  0.33000  0.19000  1.0000
  O   O5        1.0  0.62300  0.52200  0.22700  1.0000
  O   O6        1.0  0.81000  0.03570  0.33000  1.0000
  O   O7        1.0  0.47800  0.22700  0.37700  1.0000
  O   O8        1.0  0.37700  0.77300  0.47800  1.0000
  O   O9        1.0  0.77300  0.37700  0.52200  1.0000
  O   O10       1.0  0.22700  0.47800  0.62300  1.0000
  O   O11       1.0  0.03570  0.81000  0.67000  1.0000
  O   O12       1.0  0.52200  0.62300  0.77300  1.0000
  O   O13       1.0  0.33000  0.96400  0.81000  1.0000
  O   O14       1.0  0.00000  0.14500  0.85500  1.0000
  O   O15       1.0  0.19000  0.67000  0.96400  1.0000
