data_image0
_chemical_formula_structural       Fe6O16Si4
_chemical_formula_sum              "Fe6 O16 Si4"
_cell_length_a       4.81844
_cell_length_b       10.158
_cell_length_c       5.7655
_cell_angle_alpha    92.2651
_cell_angle_beta     90
_cell_angle_gamma    90

_space_group_name_H-M_alt    "P 1"
_space_group_IT_number       1

loop_
  _space_group_symop_operation_xyz
  'x, y, z'

loop_
  _atom_site_type_symbol
  _atom_site_label
  _atom_site_symmetry_multiplicity
  _atom_site_fract_x
  _atom_site_fract_y
  _atom_site_fract_z
  _atom_site_occupancy
  Fe  Fe1       1.0  0.00000  0.00000  0.00000  1.0000
  Fe  Fe2       1.0  0.50000  0.50000  0.00000  1.0000
  Fe  Fe3       1.0  0.98900  0.72900  0.26100  1.0000
  Fe  Fe4       1.0  0.51100  0.22900  0.26100  1.0000
  Fe  Fe5       1.0  0.01130  0.27100  0.73900  1.0000
  Fe  Fe6       1.0  0.48900  0.77100  0.73900  1.0000
  O   O1        1.0  0.22800  0.32900  0.03060  1.0000
  O   O2        1.0  0.27200  0.82900  0.03060  1.0000
  O   O3        1.0  0.32500  0.05790  0.24100  1.0000
  O   O4        1.0  0.17500  0.55800  0.24100  1.0000
  O   O5        1.0  0.77300  0.89600  0.24300  1.0000
  O   O6        1.0  0.72700  0.39600  0.24300  1.0000
  O   O7        1.0  0.20900  0.32400  0.46200  1.0000
  O   O8        1.0  0.29100  0.82400  0.46200  1.0000
  O   O9        1.0  0.70900  0.17600  0.53800  1.0000
  O   O10       1.0  0.79100  0.67600  0.53800  1.0000
  O   O11       1.0  0.22700  0.10400  0.75700  1.0000
  O   O12       1.0  0.27300  0.60400  0.75700  1.0000
  O   O13       1.0  0.82600  0.44200  0.75900  1.0000
  O   O14       1.0  0.67400  0.94200  0.75900  1.0000
  O   O15       1.0  0.72800  0.17100  0.96900  1.0000
  O   O16       1.0  0.77200  0.67100  0.96900  1.0000
  Si  Si1       1.0  0.43700  0.90700  0.25400  1.0000
  Si  Si2       1.0  0.06270  0.40700  0.25400  1.0000
  Si  Si3       1.0  0.56300  0.09340  0.74600  1.0000
  Si  Si4       1.0  0.93700  0.59300  0.74600  1.0000
