data_image0
_chemical_formula_structural       Cl6La6O12U2
_chemical_formula_sum              "Cl6 La6 O12 U2"
_cell_length_a       9.5091
_cell_length_b       9.50919
_cell_length_c       5.62562
_cell_angle_alpha    90
_cell_angle_beta     90
_cell_angle_gamma    120

_space_group_name_H-M_alt    "P 1"
_space_group_IT_number       1

loop_
  _space_group_symop_operation_xyz
  'x, y, z'

loop_
  _atom_site_type_symbol
  _atom_site_label
  _atom_site_symmetry_multiplicity
  _atom_site_fract_x
  _atom_site_fract_y
  _atom_site_fract_z
  _atom_site_occupancy
  Cl  Cl1       1.0  0.19000  0.24800  0.25000  1.0000
  Cl  Cl2       1.0  0.05780  0.81000  0.25000  1.0000
  Cl  Cl3       1.0  0.75200  0.94200  0.25000  1.0000
  Cl  Cl4       1.0  0.24800  0.05780  0.75000  1.0000
  Cl  Cl5       1.0  0.94200  0.19000  0.75000  1.0000
  Cl  Cl6       1.0  0.81000  0.75200  0.75000  1.0000
  La  La1       1.0  0.40400  0.09100  0.25000  1.0000
  La  La2       1.0  0.90900  0.31300  0.25000  1.0000
  La  La3       1.0  0.68700  0.59600  0.25000  1.0000
  La  La4       1.0  0.31300  0.40400  0.75000  1.0000
  La  La5       1.0  0.09100  0.68700  0.75000  1.0000
  La  La6       1.0  0.59600  0.90900  0.75000  1.0000
  O   O1        1.0  0.48400  0.63500  0.00570  1.0000
  O   O2        1.0  0.36500  0.84900  0.00570  1.0000
  O   O3        1.0  0.15100  0.51600  0.00570  1.0000
  O   O4        1.0  0.15100  0.51600  0.49400  1.0000
  O   O5        1.0  0.36500  0.84900  0.49400  1.0000
  O   O6        1.0  0.48400  0.63500  0.49400  1.0000
  O   O7        1.0  0.51600  0.36500  0.50600  1.0000
  O   O8        1.0  0.63500  0.15100  0.50600  1.0000
  O   O9        1.0  0.84900  0.48400  0.50600  1.0000
  O   O10       1.0  0.84900  0.48400  0.99400  1.0000
  O   O11       1.0  0.63500  0.15100  0.99400  1.0000
  O   O12       1.0  0.51600  0.36500  0.99400  1.0000
  U   U1        1.0  0.33300  0.66700  0.25000  1.0000
  U   U2        1.0  0.66700  0.33300  0.75000  1.0000
