data_image0
_chemical_formula_structural       Ba12Ge10N4
_chemical_formula_sum              "Ba12 Ge10 N4"
_cell_length_a       4.2168
_cell_length_b       18.9846
_cell_length_c       9.67808
_cell_angle_alpha    90
_cell_angle_beta     90
_cell_angle_gamma    90

_space_group_name_H-M_alt    "P 1"
_space_group_IT_number       1

loop_
  _space_group_symop_operation_xyz
  'x, y, z'

loop_
  _atom_site_type_symbol
  _atom_site_label
  _atom_site_symmetry_multiplicity
  _atom_site_fract_x
  _atom_site_fract_y
  _atom_site_fract_z
  _atom_site_occupancy
  Ba  Ba1       1.0  0.25000  0.06660  0.11200  1.0000
  Ba  Ba2       1.0  0.25000  0.43300  0.11200  1.0000
  Ba  Ba3       1.0  0.75000  0.25000  0.15400  1.0000
  Ba  Ba4       1.0  0.75000  0.75000  0.24500  1.0000
  Ba  Ba5       1.0  0.75000  0.11000  0.46500  1.0000
  Ba  Ba6       1.0  0.75000  0.39000  0.46500  1.0000
  Ba  Ba7       1.0  0.25000  0.61000  0.53500  1.0000
  Ba  Ba8       1.0  0.25000  0.89000  0.53500  1.0000
  Ba  Ba9       1.0  0.25000  0.25000  0.75500  1.0000
  Ba  Ba10      1.0  0.25000  0.75000  0.84600  1.0000
  Ba  Ba11      1.0  0.75000  0.56700  0.88800  1.0000
  Ba  Ba12      1.0  0.75000  0.93300  0.88800  1.0000
  Ge  Ge1       1.0  0.25000  0.61800  0.15400  1.0000
  Ge  Ge2       1.0  0.25000  0.88200  0.15400  1.0000
  Ge  Ge3       1.0  0.75000  0.55700  0.26100  1.0000
  Ge  Ge4       1.0  0.75000  0.94300  0.26100  1.0000
  Ge  Ge5       1.0  0.25000  0.25000  0.41100  1.0000
  Ge  Ge6       1.0  0.75000  0.75000  0.58900  1.0000
  Ge  Ge7       1.0  0.25000  0.05690  0.73900  1.0000
  Ge  Ge8       1.0  0.25000  0.44300  0.73900  1.0000
  Ge  Ge9       1.0  0.75000  0.11800  0.84600  1.0000
  Ge  Ge10      1.0  0.75000  0.38200  0.84600  1.0000
  N   N1        1.0  0.25000  0.17000  0.29200  1.0000
  N   N2        1.0  0.25000  0.33000  0.29200  1.0000
  N   N3        1.0  0.75000  0.67000  0.70800  1.0000
  N   N4        1.0  0.75000  0.83000  0.70800  1.0000
