data_image0
_chemical_formula_structural       Ba2Co8O14Y2
_chemical_formula_sum              "Ba2 Co8 O14 Y2"
_cell_length_a       6.34401
_cell_length_b       6.38075
_cell_length_c       10.2302
_cell_angle_alpha    90
_cell_angle_beta     90
_cell_angle_gamma    119.81

_space_group_name_H-M_alt    "P 1"
_space_group_IT_number       1

loop_
  _space_group_symop_operation_xyz
  'x, y, z'

loop_
  _atom_site_type_symbol
  _atom_site_label
  _atom_site_symmetry_multiplicity
  _atom_site_fract_x
  _atom_site_fract_y
  _atom_site_fract_z
  _atom_site_occupancy
  Ba  Ba1       1.0  0.66900  0.33900  0.49500  1.0000
  Ba  Ba2       1.0  0.33100  0.66100  0.99500  1.0000
  Co  Co1       1.0  0.33900  0.17000  0.19000  1.0000
  Co  Co2       1.0  0.83100  0.17000  0.19000  1.0000
  Co  Co3       1.0  0.83300  0.66600  0.19100  1.0000
  Co  Co4       1.0  0.00106  0.00213  0.44700  1.0000
  Co  Co5       1.0  0.16900  0.83000  0.69000  1.0000
  Co  Co6       1.0  0.66100  0.83000  0.69000  1.0000
  Co  Co7       1.0  0.16700  0.33400  0.69100  1.0000
  Co  Co8       1.0  0.99900  0.99800  0.94700  1.0000
  O   O1        1.0  0.50300  0.49900  0.25200  1.0000
  O   O2        1.0  0.99700  0.49900  0.25200  1.0000
  O   O3        1.0  0.50100  0.00241  0.25300  1.0000
  O   O4        1.0  0.00219  0.00438  0.25800  1.0000
  O   O5        1.0  0.16100  0.32300  0.49800  1.0000
  O   O6        1.0  0.15300  0.82900  0.49900  1.0000
  O   O7        1.0  0.67600  0.82900  0.49900  1.0000
  O   O8        1.0  0.00325  0.50100  0.75200  1.0000
  O   O9        1.0  0.49700  0.50100  0.75200  1.0000
  O   O10       1.0  0.49900  0.99800  0.75300  1.0000
  O   O11       1.0  0.99800  0.99600  0.75800  1.0000
  O   O12       1.0  0.83900  0.67700  0.99800  1.0000
  O   O13       1.0  0.32400  0.17100  0.99900  1.0000
  O   O14       1.0  0.84700  0.17100  0.99900  1.0000
  Y   Y1        1.0  0.33400  0.66800  0.37200  1.0000
  Y   Y2        1.0  0.66600  0.33200  0.87200  1.0000
