data_image0
_chemical_formula_structural       Fe4Ni2O16P4
_chemical_formula_sum              "Fe4 Ni2 O16 P4"
_cell_length_a       10.3146
_cell_length_b       4.69815
_cell_length_c       5.98917
_cell_angle_alpha    90
_cell_angle_beta     91.3005
_cell_angle_gamma    90

_space_group_name_H-M_alt    "P 1"
_space_group_IT_number       1

loop_
  _space_group_symop_operation_xyz
  'x, y, z'

loop_
  _atom_site_type_symbol
  _atom_site_label
  _atom_site_symmetry_multiplicity
  _atom_site_fract_x
  _atom_site_fract_y
  _atom_site_fract_z
  _atom_site_occupancy
  Fe  Fe1       1.0  0.78000  0.52400  0.23800  1.0000
  Fe  Fe2       1.0  0.28000  0.97600  0.23800  1.0000
  Fe  Fe3       1.0  0.72000  0.02390  0.76200  1.0000
  Fe  Fe4       1.0  0.22000  0.47600  0.76200  1.0000
  Ni  Ni1       1.0  0.00000  0.00000  0.50000  1.0000
  Ni  Ni2       1.0  0.50000  0.50000  0.50000  1.0000
  O   O1        1.0  0.67800  0.18800  0.06670  1.0000
  O   O2        1.0  0.17800  0.31200  0.06670  1.0000
  O   O3        1.0  0.95600  0.29800  0.25400  1.0000
  O   O4        1.0  0.45600  0.20200  0.25400  1.0000
  O   O5        1.0  0.09850  0.74800  0.27700  1.0000
  O   O6        1.0  0.59900  0.75200  0.27700  1.0000
  O   O7        1.0  0.15900  0.26900  0.47300  1.0000
  O   O8        1.0  0.65900  0.23100  0.47300  1.0000
  O   O9        1.0  0.34100  0.76900  0.52700  1.0000
  O   O10       1.0  0.84100  0.73100  0.52700  1.0000
  O   O11       1.0  0.40100  0.24800  0.72300  1.0000
  O   O12       1.0  0.90100  0.25200  0.72300  1.0000
  O   O13       1.0  0.54400  0.79800  0.74600  1.0000
  O   O14       1.0  0.04370  0.70200  0.74600  1.0000
  O   O15       1.0  0.82200  0.68800  0.93300  1.0000
  O   O16       1.0  0.32200  0.81200  0.93300  1.0000
  P   P1        1.0  0.59500  0.07790  0.26000  1.0000
  P   P2        1.0  0.09540  0.42200  0.26000  1.0000
  P   P3        1.0  0.90500  0.57800  0.74000  1.0000
  P   P4        1.0  0.40500  0.92200  0.74000  1.0000
