data_image0
_chemical_formula_structural       Cu4Fe8S14
_chemical_formula_sum              "Cu4 Fe8 S14"
_cell_length_a       5.10279
_cell_length_b       8.22003
_cell_length_c       11.2297
_cell_angle_alpha    90
_cell_angle_beta     90
_cell_angle_gamma    90

_space_group_name_H-M_alt    "P 1"
_space_group_IT_number       1

loop_
  _space_group_symop_operation_xyz
  'x, y, z'

loop_
  _atom_site_type_symbol
  _atom_site_label
  _atom_site_symmetry_multiplicity
  _atom_site_fract_x
  _atom_site_fract_y
  _atom_site_fract_z
  _atom_site_occupancy
  Cu  Cu1       1.0  0.51000  0.00000  0.23800  1.0000
  Cu  Cu2       1.0  0.99000  0.00000  0.23800  1.0000
  Cu  Cu3       1.0  0.00963  0.00000  0.76200  1.0000
  Cu  Cu4       1.0  0.49000  0.00000  0.76200  1.0000
  Fe  Fe1       1.0  0.00057  0.34700  0.27800  1.0000
  Fe  Fe2       1.0  0.49900  0.34700  0.27800  1.0000
  Fe  Fe3       1.0  0.00057  0.65300  0.27800  1.0000
  Fe  Fe4       1.0  0.49900  0.65300  0.27800  1.0000
  Fe  Fe5       1.0  0.50100  0.34700  0.72200  1.0000
  Fe  Fe6       1.0  0.99900  0.34700  0.72200  1.0000
  Fe  Fe7       1.0  0.50100  0.65300  0.72200  1.0000
  Fe  Fe8       1.0  0.99900  0.65300  0.72200  1.0000
  S   S1        1.0  0.75000  0.00000  0.05750  1.0000
  S   S2        1.0  0.25000  0.21400  0.16200  1.0000
  S   S3        1.0  0.25000  0.78600  0.16200  1.0000
  S   S4        1.0  0.75000  0.50000  0.16700  1.0000
  S   S5        1.0  0.75000  0.19300  0.37800  1.0000
  S   S6        1.0  0.75000  0.80700  0.37800  1.0000
  S   S7        1.0  0.25000  0.50000  0.38800  1.0000
  S   S8        1.0  0.75000  0.50000  0.61200  1.0000
  S   S9        1.0  0.25000  0.19300  0.62200  1.0000
  S   S10       1.0  0.25000  0.80700  0.62200  1.0000
  S   S11       1.0  0.25000  0.50000  0.83300  1.0000
  S   S12       1.0  0.75000  0.21400  0.83800  1.0000
  S   S13       1.0  0.75000  0.78600  0.83800  1.0000
  S   S14       1.0  0.25000  0.00000  0.94200  1.0000
