data_image0
_chemical_formula_structural       P4S16Zn6
_chemical_formula_sum              "P4 S16 Zn6"
_cell_length_a       7.84301
_cell_length_b       7.84301
_cell_length_c       9.1379
_cell_angle_alpha    90
_cell_angle_beta     90
_cell_angle_gamma    90

_space_group_name_H-M_alt    "P 1"
_space_group_IT_number       1

loop_
  _space_group_symop_operation_xyz
  'x, y, z'

loop_
  _atom_site_type_symbol
  _atom_site_label
  _atom_site_symmetry_multiplicity
  _atom_site_fract_x
  _atom_site_fract_y
  _atom_site_fract_z
  _atom_site_occupancy
  P   P1        1.0  0.74400  0.24400  0.25000  1.0000
  P   P2        1.0  0.25600  0.75600  0.25000  1.0000
  P   P3        1.0  0.24400  0.25600  0.75000  1.0000
  P   P4        1.0  0.75600  0.74400  0.75000  1.0000
  S   S1        1.0  0.76600  0.03190  0.12500  1.0000
  S   S2        1.0  0.23400  0.96800  0.12500  1.0000
  S   S3        1.0  0.75300  0.47900  0.13900  1.0000
  S   S4        1.0  0.24700  0.52100  0.13900  1.0000
  S   S5        1.0  0.97900  0.25300  0.36100  1.0000
  S   S6        1.0  0.02090  0.74700  0.36100  1.0000
  S   S7        1.0  0.53200  0.26600  0.37500  1.0000
  S   S8        1.0  0.46800  0.73400  0.37500  1.0000
  S   S9        1.0  0.26600  0.46800  0.62500  1.0000
  S   S10       1.0  0.73400  0.53200  0.62500  1.0000
  S   S11       1.0  0.25300  0.02090  0.63900  1.0000
  S   S12       1.0  0.74700  0.97900  0.63900  1.0000
  S   S13       1.0  0.47900  0.24700  0.86100  1.0000
  S   S14       1.0  0.52100  0.75300  0.86100  1.0000
  S   S15       1.0  0.03190  0.23400  0.87500  1.0000
  S   S16       1.0  0.96800  0.76600  0.87500  1.0000
  Zn  Zn1       1.0  0.50000  0.50000  0.00000  1.0000
  Zn  Zn2       1.0  0.50000  0.00000  0.01850  1.0000
  Zn  Zn3       1.0  0.50000  0.00000  0.48200  1.0000
  Zn  Zn4       1.0  0.00000  0.00000  0.50000  1.0000
  Zn  Zn5       1.0  0.00000  0.50000  0.51800  1.0000
  Zn  Zn6       1.0  0.00000  0.50000  0.98200  1.0000
