data_image0
_chemical_formula_structural       Al18Gd2Ni6
_chemical_formula_sum              "Al18 Gd2 Ni6"
_cell_length_a       7.29363
_cell_length_b       7.29363
_cell_length_c       10.0793
_cell_angle_alpha    111.212
_cell_angle_beta     68.7884
_cell_angle_gamma    120

_space_group_name_H-M_alt    "P 1"
_space_group_IT_number       1

loop_
  _space_group_symop_operation_xyz
  'x, y, z'

loop_
  _atom_site_type_symbol
  _atom_site_label
  _atom_site_symmetry_multiplicity
  _atom_site_fract_x
  _atom_site_fract_y
  _atom_site_fract_z
  _atom_site_occupancy
  Al  Al1       1.0  0.66600  0.00000  0.00000  1.0000
  Al  Al2       1.0  0.33400  0.33400  0.00000  1.0000
  Al  Al3       1.0  0.00000  0.66600  0.00000  1.0000
  Al  Al4       1.0  0.28200  0.71800  0.15300  1.0000
  Al  Al5       1.0  0.94800  0.05160  0.15500  1.0000
  Al  Al6       1.0  0.61400  0.38600  0.15900  1.0000
  Al  Al7       1.0  0.23900  0.10200  0.29500  1.0000
  Al  Al8       1.0  0.89800  0.43200  0.29500  1.0000
  Al  Al9       1.0  0.56800  0.76100  0.29500  1.0000
  Al  Al10      1.0  0.50000  0.29200  0.50000  1.0000
  Al  Al11      1.0  0.29200  0.50000  0.50000  1.0000
  Al  Al12      1.0  0.70800  0.70800  0.50000  1.0000
  Al  Al13      1.0  0.10200  0.23900  0.70500  1.0000
  Al  Al14      1.0  0.76100  0.56800  0.70500  1.0000
  Al  Al15      1.0  0.43200  0.89800  0.70500  1.0000
  Al  Al16      1.0  0.38600  0.61400  0.84100  1.0000
  Al  Al17      1.0  0.05160  0.94800  0.84500  1.0000
  Al  Al18      1.0  0.71800  0.28200  0.84700  1.0000
  Gd  Gd1       1.0  0.16700  0.83300  0.49900  1.0000
  Gd  Gd2       1.0  0.83300  0.16700  0.50100  1.0000
  Ni  Ni1       1.0  0.58200  0.07860  0.25400  1.0000
  Ni  Ni2       1.0  0.24200  0.41800  0.25400  1.0000
  Ni  Ni3       1.0  0.92100  0.75800  0.25400  1.0000
  Ni  Ni4       1.0  0.41800  0.24200  0.74600  1.0000
  Ni  Ni5       1.0  0.07860  0.58200  0.74600  1.0000
  Ni  Ni6       1.0  0.75800  0.92100  0.74600  1.0000
