data_image0
_chemical_formula_structural       B20Ce4Ni2
_chemical_formula_sum              "B20 Ce4 Ni2"
_cell_length_a       5.66651
_cell_length_b       11.2813
_cell_length_c       4.21389
_cell_angle_alpha    90
_cell_angle_beta     90
_cell_angle_gamma    90

_space_group_name_H-M_alt    "P 1"
_space_group_IT_number       1

loop_
  _space_group_symop_operation_xyz
  'x, y, z'

loop_
  _atom_site_type_symbol
  _atom_site_label
  _atom_site_symmetry_multiplicity
  _atom_site_fract_x
  _atom_site_fract_y
  _atom_site_fract_z
  _atom_site_occupancy
  B   B1        1.0  0.37500  0.04200  0.00000  1.0000
  B   B2        1.0  0.03730  0.18800  0.00000  1.0000
  B   B3        1.0  0.34500  0.19700  0.00000  1.0000
  B   B4        1.0  0.84500  0.30300  0.00000  1.0000
  B   B5        1.0  0.53700  0.31200  0.00000  1.0000
  B   B6        1.0  0.87500  0.45800  0.00000  1.0000
  B   B7        1.0  0.12500  0.54200  0.00000  1.0000
  B   B8        1.0  0.46300  0.68800  0.00000  1.0000
  B   B9        1.0  0.15500  0.69700  0.00000  1.0000
  B   B10       1.0  0.65500  0.80300  0.00000  1.0000
  B   B11       1.0  0.96300  0.81200  0.00000  1.0000
  B   B12       1.0  0.62500  0.95800  0.00000  1.0000
  B   B13       1.0  0.20300  0.11400  0.29900  1.0000
  B   B14       1.0  0.70300  0.38600  0.29900  1.0000
  B   B15       1.0  0.29700  0.61400  0.29900  1.0000
  B   B16       1.0  0.79700  0.88600  0.29900  1.0000
  B   B17       1.0  0.20300  0.11400  0.70100  1.0000
  B   B18       1.0  0.70300  0.38600  0.70100  1.0000
  B   B19       1.0  0.29700  0.61400  0.70100  1.0000
  B   B20       1.0  0.79700  0.88600  0.70100  1.0000
  Ce  Ce1       1.0  0.69400  0.13600  0.50000  1.0000
  Ce  Ce2       1.0  0.19400  0.36400  0.50000  1.0000
  Ce  Ce3       1.0  0.80600  0.63600  0.50000  1.0000
  Ce  Ce4       1.0  0.30600  0.86400  0.50000  1.0000
  Ni  Ni1       1.0  0.00000  0.00000  0.00000  1.0000
  Ni  Ni2       1.0  0.50000  0.50000  0.00000  1.0000
