data_image0
_chemical_formula_structural       Al2K2O16Si6
_chemical_formula_sum              "Al2 K2 O16 Si6"
_cell_length_a       7.19894
_cell_length_b       7.61185
_cell_length_c       7.88783
_cell_angle_alpha    113.526
_cell_angle_beta     104.275
_cell_angle_gamma    103.832

_space_group_name_H-M_alt    "P 1"
_space_group_IT_number       1

loop_
  _space_group_symop_operation_xyz
  'x, y, z'

loop_
  _atom_site_type_symbol
  _atom_site_label
  _atom_site_symmetry_multiplicity
  _atom_site_fract_x
  _atom_site_fract_y
  _atom_site_fract_z
  _atom_site_occupancy
  Al  Al1       1.0  0.21600  0.82100  0.19300  1.0000
  Al  Al2       1.0  0.78400  0.17900  0.80700  1.0000
  K   K1        1.0  0.13500  0.28200  0.26800  1.0000
  K   K2        1.0  0.86500  0.71800  0.73200  1.0000
  O   O1        1.0  0.79000  0.33300  0.04300  1.0000
  O   O2        1.0  0.41400  0.30300  0.05280  1.0000
  O   O3        1.0  0.98300  0.86000  0.14200  1.0000
  O   O4        1.0  0.73300  0.67000  0.27600  1.0000
  O   O5        1.0  0.40400  0.07140  0.31400  1.0000
  O   O6        1.0  0.76700  0.03860  0.31400  1.0000
  O   O7        1.0  0.25100  0.70700  0.34400  1.0000
  O   O8        1.0  0.71900  0.38500  0.37300  1.0000
  O   O9        1.0  0.28100  0.61500  0.62700  1.0000
  O   O10       1.0  0.74900  0.29300  0.65600  1.0000
  O   O11       1.0  0.23300  0.96100  0.68600  1.0000
  O   O12       1.0  0.59600  0.92900  0.68600  1.0000
  O   O13       1.0  0.26700  0.33000  0.72400  1.0000
  O   O14       1.0  0.01650  0.14000  0.85800  1.0000
  O   O15       1.0  0.58600  0.69700  0.94700  1.0000
  O   O16       1.0  0.21000  0.66700  0.95700  1.0000
  Si  Si1       1.0  0.76800  0.81600  0.17200  1.0000
  Si  Si2       1.0  0.66500  0.41800  0.17700  1.0000
  Si  Si3       1.0  0.65100  0.18900  0.41500  1.0000
  Si  Si4       1.0  0.34900  0.81100  0.58500  1.0000
  Si  Si5       1.0  0.33500  0.58200  0.82300  1.0000
  Si  Si6       1.0  0.23200  0.18400  0.82800  1.0000
