data_image0
_chemical_formula_structural       Ni20Si4Tb2
_chemical_formula_sum              "Ni20 Si4 Tb2"
_cell_length_a       8.15957
_cell_length_b       8.15957
_cell_length_c       4.66545
_cell_angle_alpha    90
_cell_angle_beta     90
_cell_angle_gamma    90

_space_group_name_H-M_alt    "P 1"
_space_group_IT_number       1

loop_
  _space_group_symop_operation_xyz
  'x, y, z'

loop_
  _atom_site_type_symbol
  _atom_site_label
  _atom_site_symmetry_multiplicity
  _atom_site_fract_x
  _atom_site_fract_y
  _atom_site_fract_z
  _atom_site_occupancy
  Ni  Ni1       1.0  0.00000  0.00000  0.00000  1.0000
  Ni  Ni2       1.0  0.50000  0.00000  0.00000  1.0000
  Ni  Ni3       1.0  0.00000  0.50000  0.00000  1.0000
  Ni  Ni4       1.0  0.50000  0.50000  0.00000  1.0000
  Ni  Ni5       1.0  0.60300  0.25000  0.23900  1.0000
  Ni  Ni6       1.0  0.89700  0.25000  0.23900  1.0000
  Ni  Ni7       1.0  0.25000  0.60300  0.23900  1.0000
  Ni  Ni8       1.0  0.25000  0.89700  0.23900  1.0000
  Ni  Ni9       1.0  0.75000  0.52600  0.27100  1.0000
  Ni  Ni10      1.0  0.52600  0.75000  0.27100  1.0000
  Ni  Ni11      1.0  0.97400  0.75000  0.27100  1.0000
  Ni  Ni12      1.0  0.75000  0.97400  0.27100  1.0000
  Ni  Ni13      1.0  0.25000  0.02600  0.72900  1.0000
  Ni  Ni14      1.0  0.02600  0.25000  0.72900  1.0000
  Ni  Ni15      1.0  0.47400  0.25000  0.72900  1.0000
  Ni  Ni16      1.0  0.25000  0.47400  0.72900  1.0000
  Ni  Ni17      1.0  0.75000  0.10300  0.76100  1.0000
  Ni  Ni18      1.0  0.75000  0.39700  0.76100  1.0000
  Ni  Ni19      1.0  0.10300  0.75000  0.76100  1.0000
  Ni  Ni20      1.0  0.39700  0.75000  0.76100  1.0000
  Si  Si1       1.0  0.00000  0.00000  0.50000  1.0000
  Si  Si2       1.0  0.50000  0.00000  0.50000  1.0000
  Si  Si3       1.0  0.00000  0.50000  0.50000  1.0000
  Si  Si4       1.0  0.50000  0.50000  0.50000  1.0000
  Tb  Tb1       1.0  0.25000  0.25000  0.22200  1.0000
  Tb  Tb2       1.0  0.75000  0.75000  0.77800  1.0000
