data_image0
_chemical_formula_structural       Al18Er2Ni6
_chemical_formula_sum              "Al18 Er2 Ni6"
_cell_length_a       7.2698
_cell_length_b       7.2698
_cell_length_c       10.0396
_cell_angle_alpha    90
_cell_angle_beta     68.7735
_cell_angle_gamma    120

_space_group_name_H-M_alt    "P 1"
_space_group_IT_number       1

loop_
  _space_group_symop_operation_xyz
  'x, y, z'

loop_
  _atom_site_type_symbol
  _atom_site_label
  _atom_site_symmetry_multiplicity
  _atom_site_fract_x
  _atom_site_fract_y
  _atom_site_fract_z
  _atom_site_occupancy
  Al  Al1       1.0  0.33400  0.00000  0.00000  1.0000
  Al  Al2       1.0  0.00000  0.33400  0.00000  1.0000
  Al  Al3       1.0  0.66600  0.66600  0.00000  1.0000
  Al  Al4       1.0  0.56400  0.28200  0.15400  1.0000
  Al  Al5       1.0  0.89600  0.94800  0.15600  1.0000
  Al  Al6       1.0  0.22600  0.61300  0.16100  1.0000
  Al  Al7       1.0  0.13400  0.23700  0.29900  1.0000
  Al  Al8       1.0  0.80400  0.56700  0.29900  1.0000
  Al  Al9       1.0  0.46400  0.89700  0.29900  1.0000
  Al  Al10      1.0  0.79100  0.29100  0.50000  1.0000
  Al  Al11      1.0  0.20900  0.50000  0.50000  1.0000
  Al  Al12      1.0  0.00000  0.70900  0.50000  1.0000
  Al  Al13      1.0  0.86600  0.10300  0.70100  1.0000
  Al  Al14      1.0  0.53600  0.43300  0.70100  1.0000
  Al  Al15      1.0  0.19600  0.76300  0.70100  1.0000
  Al  Al16      1.0  0.77400  0.38700  0.83900  1.0000
  Al  Al17      1.0  0.10400  0.05180  0.84400  1.0000
  Al  Al18      1.0  0.43600  0.71800  0.84600  1.0000
  Er  Er1       1.0  0.33400  0.16700  0.49900  1.0000
  Er  Er2       1.0  0.66600  0.83300  0.50100  1.0000
  Ni  Ni1       1.0  0.82300  0.24100  0.25500  1.0000
  Ni  Ni2       1.0  0.50300  0.58200  0.25500  1.0000
  Ni  Ni3       1.0  0.16300  0.92200  0.25500  1.0000
  Ni  Ni4       1.0  0.49700  0.07840  0.74500  1.0000
  Ni  Ni5       1.0  0.17700  0.41800  0.74500  1.0000
  Ni  Ni6       1.0  0.83700  0.75900  0.74500  1.0000
