data_image0
_chemical_formula_structural       Cu8P16Si2
_chemical_formula_sum              "Cu8 P16 Si2"
_cell_length_a       5.73333
_cell_length_b       9.07775
_cell_length_c       9.07775
_cell_angle_alpha    95.7232
_cell_angle_beta     71.5915
_cell_angle_gamma    108.409

_space_group_name_H-M_alt    "P 1"
_space_group_IT_number       1

loop_
  _space_group_symop_operation_xyz
  'x, y, z'

loop_
  _atom_site_type_symbol
  _atom_site_label
  _atom_site_symmetry_multiplicity
  _atom_site_fract_x
  _atom_site_fract_y
  _atom_site_fract_z
  _atom_site_occupancy
  Cu  Cu1       1.0  0.32000  0.56000  0.03780  1.0000
  Cu  Cu2       1.0  0.64200  0.96200  0.06040  1.0000
  Cu  Cu3       1.0  0.24000  0.53800  0.44000  1.0000
  Cu  Cu4       1.0  0.29800  0.94000  0.46200  1.0000
  Cu  Cu5       1.0  0.70200  0.06040  0.53800  1.0000
  Cu  Cu6       1.0  0.76000  0.46200  0.56000  1.0000
  Cu  Cu7       1.0  0.35800  0.03780  0.94000  1.0000
  Cu  Cu8       1.0  0.68000  0.44000  0.96200  1.0000
  P   P1        1.0  0.71700  0.72200  0.04660  1.0000
  P   P2        1.0  0.91900  0.17500  0.13100  1.0000
  P   P3        1.0  0.74300  0.36900  0.17500  1.0000
  P   P4        1.0  0.23600  0.95300  0.22200  1.0000
  P   P5        1.0  0.00446  0.54700  0.27800  1.0000
  P   P6        1.0  0.05010  0.13100  0.32500  1.0000
  P   P7        1.0  0.37500  0.32500  0.36900  1.0000
  P   P8        1.0  0.54200  0.77800  0.45300  1.0000
  P   P9        1.0  0.45800  0.22200  0.54700  1.0000
  P   P10       1.0  0.62500  0.67500  0.63100  1.0000
  P   P11       1.0  0.95000  0.86900  0.67500  1.0000
  P   P12       1.0  0.99600  0.45300  0.72200  1.0000
  P   P13       1.0  0.76400  0.04660  0.77800  1.0000
  P   P14       1.0  0.25700  0.63100  0.82500  1.0000
  P   P15       1.0  0.08120  0.82500  0.86900  1.0000
  P   P16       1.0  0.28300  0.27800  0.95300  1.0000
  Si  Si1       1.0  0.87500  0.75000  0.25000  1.0000
  Si  Si2       1.0  0.12500  0.25000  0.75000  1.0000
