data_image0
_chemical_formula_structural       Al16Fe10
_chemical_formula_sum              "Al16 Fe10"
_cell_length_a       7.61083
_cell_length_b       7.61083
_cell_length_c       7.61083
_cell_angle_alpha    109.471
_cell_angle_beta     109.471
_cell_angle_gamma    109.471

_space_group_name_H-M_alt    "P 1"
_space_group_IT_number       1

loop_
  _space_group_symop_operation_xyz
  'x, y, z'

loop_
  _atom_site_type_symbol
  _atom_site_label
  _atom_site_symmetry_multiplicity
  _atom_site_fract_x
  _atom_site_fract_y
  _atom_site_fract_z
  _atom_site_occupancy
  Al  Al1       1.0  0.21200  0.00000  0.00000  1.0000
  Al  Al2       1.0  0.00000  0.21200  0.00000  1.0000
  Al  Al3       1.0  0.72800  0.35000  0.00000  1.0000
  Al  Al4       1.0  0.35000  0.72800  0.00000  1.0000
  Al  Al5       1.0  0.00000  0.00000  0.21200  1.0000
  Al  Al6       1.0  0.62200  0.27200  0.27200  1.0000
  Al  Al7       1.0  0.27200  0.62200  0.27200  1.0000
  Al  Al8       1.0  0.72800  0.00000  0.35000  1.0000
  Al  Al9       1.0  0.00000  0.72800  0.35000  1.0000
  Al  Al10      1.0  0.65000  0.65000  0.37800  1.0000
  Al  Al11      1.0  0.27200  0.27200  0.62200  1.0000
  Al  Al12      1.0  0.65000  0.37800  0.65000  1.0000
  Al  Al13      1.0  0.37800  0.65000  0.65000  1.0000
  Al  Al14      1.0  0.35000  0.00000  0.72800  1.0000
  Al  Al15      1.0  0.00000  0.35000  0.72800  1.0000
  Al  Al16      1.0  0.78800  0.78800  0.78800  1.0000
  Fe  Fe1       1.0  0.66300  0.00000  0.00000  1.0000
  Fe  Fe2       1.0  0.36000  0.36000  0.00000  1.0000
  Fe  Fe3       1.0  0.64000  0.64000  0.00000  1.0000
  Fe  Fe4       1.0  0.00000  0.66300  0.00000  1.0000
  Fe  Fe5       1.0  0.33700  0.33700  0.33700  1.0000
  Fe  Fe6       1.0  0.36000  0.00000  0.36000  1.0000
  Fe  Fe7       1.0  0.00000  0.36000  0.36000  1.0000
  Fe  Fe8       1.0  0.64000  0.00000  0.64000  1.0000
  Fe  Fe9       1.0  0.00000  0.64000  0.64000  1.0000
  Fe  Fe10      1.0  0.00000  0.00000  0.66300  1.0000
