data_image0
_chemical_formula_structural       Al4B4Na4O14
_chemical_formula_sum              "Al4 B4 Na4 O14"
_cell_length_a       4.80792
_cell_length_b       4.80758
_cell_length_c       15.0958
_cell_angle_alpha    89.9997
_cell_angle_beta     90.0001
_cell_angle_gamma    119.998

_space_group_name_H-M_alt    "P 1"
_space_group_IT_number       1

loop_
  _space_group_symop_operation_xyz
  'x, y, z'

loop_
  _atom_site_type_symbol
  _atom_site_label
  _atom_site_symmetry_multiplicity
  _atom_site_fract_x
  _atom_site_fract_y
  _atom_site_fract_z
  _atom_site_occupancy
  Al  Al1       1.0  0.66700  0.33300  0.13600  1.0000
  Al  Al2       1.0  0.66700  0.33300  0.36400  1.0000
  Al  Al3       1.0  0.33300  0.66700  0.63600  1.0000
  Al  Al4       1.0  0.33300  0.66700  0.86400  1.0000
  B   B1        1.0  0.33300  0.66700  0.10200  1.0000
  B   B2        1.0  0.33300  0.66700  0.39800  1.0000
  B   B3        1.0  0.66700  0.33300  0.60200  1.0000
  B   B4        1.0  0.66700  0.33300  0.89800  1.0000
  Na  Na1       1.0  0.00000  0.00000  0.00000  1.0000
  Na  Na2       1.0  0.00000  0.00000  0.25000  1.0000
  Na  Na3       1.0  0.00000  0.00000  0.50000  1.0000
  Na  Na4       1.0  0.00000  0.00000  0.75000  1.0000
  O   O1        1.0  0.34700  0.95900  0.10200  1.0000
  O   O2        1.0  0.61300  0.65300  0.10200  1.0000
  O   O3        1.0  0.04050  0.38700  0.10200  1.0000
  O   O4        1.0  0.66700  0.33300  0.25000  1.0000
  O   O5        1.0  0.04050  0.65300  0.39800  1.0000
  O   O6        1.0  0.61300  0.95900  0.39800  1.0000
  O   O7        1.0  0.34700  0.38700  0.39800  1.0000
  O   O8        1.0  0.65300  0.61300  0.60200  1.0000
  O   O9        1.0  0.38700  0.04050  0.60200  1.0000
  O   O10       1.0  0.96000  0.34700  0.60200  1.0000
  O   O11       1.0  0.33300  0.66700  0.75000  1.0000
  O   O12       1.0  0.96000  0.61300  0.89800  1.0000
  O   O13       1.0  0.38700  0.34700  0.89800  1.0000
  O   O14       1.0  0.65300  0.04060  0.89800  1.0000
