data_image0
_chemical_formula_structural       C2Co12W12
_chemical_formula_sum              "C2 Co12 W12"
_cell_length_a       7.70178
_cell_length_b       7.70178
_cell_length_c       7.70178
_cell_angle_alpha    120
_cell_angle_beta     90
_cell_angle_gamma    120

_space_group_name_H-M_alt    "P 1"
_space_group_IT_number       1

loop_
  _space_group_symop_operation_xyz
  'x, y, z'

loop_
  _atom_site_type_symbol
  _atom_site_label
  _atom_site_symmetry_multiplicity
  _atom_site_fract_x
  _atom_site_fract_y
  _atom_site_fract_z
  _atom_site_occupancy
  C   C1        1.0  0.87500  0.75000  0.12500  1.0000
  C   C2        1.0  0.12500  0.25000  0.87500  1.0000
  Co  Co1       1.0  0.50000  0.00000  0.00000  1.0000
  Co  Co2       1.0  0.70800  0.08410  0.29200  1.0000
  Co  Co3       1.0  0.37600  0.08410  0.29200  1.0000
  Co  Co4       1.0  0.70800  0.41600  0.29200  1.0000
  Co  Co5       1.0  0.29200  0.58400  0.37600  1.0000
  Co  Co6       1.0  0.50000  0.00000  0.50000  1.0000
  Co  Co7       1.0  0.00000  0.50000  0.50000  1.0000
  Co  Co8       1.0  0.50000  0.50000  0.50000  1.0000
  Co  Co9       1.0  0.70800  0.41600  0.62400  1.0000
  Co  Co10      1.0  0.29200  0.58400  0.70800  1.0000
  Co  Co11      1.0  0.29200  0.91600  0.70800  1.0000
  Co  Co12      1.0  0.62400  0.91600  0.70800  1.0000
  W   W1        1.0  0.32500  0.64900  0.07470  1.0000
  W   W2        1.0  0.32500  0.25000  0.07470  1.0000
  W   W3        1.0  0.92500  0.25000  0.07470  1.0000
  W   W4        1.0  0.07470  0.14900  0.32500  1.0000
  W   W5        1.0  0.07470  0.75000  0.32500  1.0000
  W   W6        1.0  0.67500  0.75000  0.32500  1.0000
  W   W7        1.0  0.92500  0.25000  0.67500  1.0000
  W   W8        1.0  0.92500  0.85100  0.67500  1.0000
  W   W9        1.0  0.32500  0.25000  0.67500  1.0000
  W   W10       1.0  0.07470  0.75000  0.92500  1.0000
  W   W11       1.0  0.67500  0.75000  0.92500  1.0000
  W   W12       1.0  0.67500  0.35100  0.92500  1.0000
