data_image0
_chemical_formula_structural       Pt10S12Tl4
_chemical_formula_sum              "Pt10 S12 Tl4"
_cell_length_a       7.03458
_cell_length_b       7.07893
_cell_length_c       11.2946
_cell_angle_alpha    90
_cell_angle_beta     97.8
_cell_angle_gamma    90

_space_group_name_H-M_alt    "P 1"
_space_group_IT_number       1

loop_
  _space_group_symop_operation_xyz
  'x, y, z'

loop_
  _atom_site_type_symbol
  _atom_site_label
  _atom_site_symmetry_multiplicity
  _atom_site_fract_x
  _atom_site_fract_y
  _atom_site_fract_z
  _atom_site_occupancy
  Pt  Pt1       1.0  0.00000  0.00000  0.00000  1.0000
  Pt  Pt2       1.0  0.23200  0.57100  0.23300  1.0000
  Pt  Pt3       1.0  0.74500  0.31100  0.24500  1.0000
  Pt  Pt4       1.0  0.75500  0.81100  0.25500  1.0000
  Pt  Pt5       1.0  0.26800  0.07140  0.26700  1.0000
  Pt  Pt6       1.0  0.50000  0.50000  0.50000  1.0000
  Pt  Pt7       1.0  0.73200  0.92900  0.73300  1.0000
  Pt  Pt8       1.0  0.24500  0.18900  0.74500  1.0000
  Pt  Pt9       1.0  0.25500  0.68900  0.75500  1.0000
  Pt  Pt10      1.0  0.76800  0.42900  0.76700  1.0000
  S   S1        1.0  0.26500  0.84100  0.11300  1.0000
  S   S2        1.0  0.90700  0.55900  0.16400  1.0000
  S   S3        1.0  0.93500  0.06380  0.19300  1.0000
  S   S4        1.0  0.56500  0.56400  0.30700  1.0000
  S   S5        1.0  0.59300  0.05860  0.33600  1.0000
  S   S6        1.0  0.23500  0.34100  0.38700  1.0000
  S   S7        1.0  0.76500  0.65900  0.61300  1.0000
  S   S8        1.0  0.40700  0.94100  0.66400  1.0000
  S   S9        1.0  0.43500  0.43600  0.69300  1.0000
  S   S10       1.0  0.06470  0.93600  0.80700  1.0000
  S   S11       1.0  0.09310  0.44100  0.83600  1.0000
  S   S12       1.0  0.73500  0.15900  0.88700  1.0000
  Tl  Tl1       1.0  0.38400  0.28700  0.04530  1.0000
  Tl  Tl2       1.0  0.11600  0.78700  0.45500  1.0000
  Tl  Tl3       1.0  0.88400  0.21300  0.54500  1.0000
  Tl  Tl4       1.0  0.61600  0.71300  0.95500  1.0000
