data_image0
_chemical_formula_structural       Na18Sn8
_chemical_formula_sum              "Na18 Sn8"
_cell_length_a       5.36831
_cell_length_b       5.36524
_cell_length_c       28.9063
_cell_angle_alpha    90
_cell_angle_beta     90
_cell_angle_gamma    59.9811

_space_group_name_H-M_alt    "P 1"
_space_group_IT_number       1

loop_
  _space_group_symop_operation_xyz
  'x, y, z'

loop_
  _atom_site_type_symbol
  _atom_site_label
  _atom_site_symmetry_multiplicity
  _atom_site_fract_x
  _atom_site_fract_y
  _atom_site_fract_z
  _atom_site_occupancy
  Na  Na1       1.0  0.16600  0.66700  0.01870  1.0000
  Na  Na2       1.0  0.83300  0.33400  0.09200  1.0000
  Na  Na3       1.0  0.16600  0.66800  0.13400  1.0000
  Na  Na4       1.0  0.49900  0.00135  0.18000  1.0000
  Na  Na5       1.0  0.16500  0.67000  0.25000  1.0000
  Na  Na6       1.0  0.49900  0.00135  0.32000  1.0000
  Na  Na7       1.0  0.16600  0.66800  0.36600  1.0000
  Na  Na8       1.0  0.83300  0.33400  0.40800  1.0000
  Na  Na9       1.0  0.16600  0.66700  0.48100  1.0000
  Na  Na10      1.0  0.83400  0.33300  0.51900  1.0000
  Na  Na11      1.0  0.16700  0.66600  0.59200  1.0000
  Na  Na12      1.0  0.83400  0.33200  0.63400  1.0000
  Na  Na13      1.0  0.50100  0.99900  0.68000  1.0000
  Na  Na14      1.0  0.83500  0.33000  0.75000  1.0000
  Na  Na15      1.0  0.50100  0.99900  0.82000  1.0000
  Na  Na16      1.0  0.83400  0.33200  0.86600  1.0000
  Na  Na17      1.0  0.16700  0.66600  0.90800  1.0000
  Na  Na18      1.0  0.83400  0.33300  0.98100  1.0000
  Sn  Sn1       1.0  0.50000  0.00050  0.05160  1.0000
  Sn  Sn2       1.0  0.83300  0.33500  0.20100  1.0000
  Sn  Sn3       1.0  0.83300  0.33500  0.29900  1.0000
  Sn  Sn4       1.0  0.50000  0.00050  0.44800  1.0000
  Sn  Sn5       1.0  0.50000  0.00000  0.55200  1.0000
  Sn  Sn6       1.0  0.16700  0.66500  0.70100  1.0000
  Sn  Sn7       1.0  0.16700  0.66500  0.79900  1.0000
  Sn  Sn8       1.0  0.50000  0.00000  0.94800  1.0000
