data_image0
_chemical_formula_structural       Pd20Te6
_chemical_formula_sum              "Pd20 Te6"
_cell_length_a       8.91188
_cell_length_b       8.91188
_cell_length_c       8.91188
_cell_angle_alpha    120
_cell_angle_beta     90
_cell_angle_gamma    120

_space_group_name_H-M_alt    "P 1"
_space_group_IT_number       1

loop_
  _space_group_symop_operation_xyz
  'x, y, z'

loop_
  _atom_site_type_symbol
  _atom_site_label
  _atom_site_symmetry_multiplicity
  _atom_site_fract_x
  _atom_site_fract_y
  _atom_site_fract_z
  _atom_site_occupancy
  Pd  Pd1       1.0  0.25800  0.00000  0.25800  1.0000
  Pd  Pd2       1.0  0.25800  0.51500  0.25800  1.0000
  Pd  Pd3       1.0  0.74200  0.00000  0.25800  1.0000
  Pd  Pd4       1.0  0.11600  0.23200  0.34800  1.0000
  Pd  Pd5       1.0  0.63400  0.26800  0.36600  1.0000
  Pd  Pd6       1.0  0.09850  0.73200  0.36600  1.0000
  Pd  Pd7       1.0  0.63400  0.73200  0.36600  1.0000
  Pd  Pd8       1.0  0.00764  0.01530  0.50800  1.0000
  Pd  Pd9       1.0  0.00764  0.50000  0.50800  1.0000
  Pd  Pd10      1.0  0.49200  0.50000  0.50800  1.0000
  Pd  Pd11      1.0  0.74200  0.00000  0.74200  1.0000
  Pd  Pd12      1.0  0.25800  0.00000  0.74200  1.0000
  Pd  Pd13      1.0  0.74200  0.48500  0.74200  1.0000
  Pd  Pd14      1.0  0.11600  0.23200  0.88400  1.0000
  Pd  Pd15      1.0  0.11600  0.76800  0.88400  1.0000
  Pd  Pd16      1.0  0.65200  0.76800  0.88400  1.0000
  Pd  Pd17      1.0  0.63400  0.26800  0.90200  1.0000
  Pd  Pd18      1.0  0.00764  0.50000  0.99200  1.0000
  Pd  Pd19      1.0  0.49200  0.50000  0.99200  1.0000
  Pd  Pd20      1.0  0.49200  0.98500  0.99200  1.0000
  Te  Te1       1.0  0.00000  0.00000  0.00000  1.0000
  Te  Te2       1.0  0.37500  0.75000  0.12500  1.0000
  Te  Te3       1.0  0.75000  0.50000  0.25000  1.0000
  Te  Te4       1.0  0.37500  0.25000  0.62500  1.0000
  Te  Te5       1.0  0.87500  0.25000  0.62500  1.0000
  Te  Te6       1.0  0.37500  0.75000  0.62500  1.0000
