data_image0
_chemical_formula_structural       B4Ca2Li8O12
_chemical_formula_sum              "B4 Ca2 Li8 O12"
_cell_length_a       9.19471
_cell_length_b       8.05856
_cell_length_c       3.44664
_cell_angle_alpha    90
_cell_angle_beta     90
_cell_angle_gamma    90

_space_group_name_H-M_alt    "P 1"
_space_group_IT_number       1

loop_
  _space_group_symop_operation_xyz
  'x, y, z'

loop_
  _atom_site_type_symbol
  _atom_site_label
  _atom_site_symmetry_multiplicity
  _atom_site_fract_x
  _atom_site_fract_y
  _atom_site_fract_z
  _atom_site_occupancy
  B   B1        1.0  0.29000  0.27200  0.00000  1.0000
  B   B2        1.0  0.71000  0.72800  0.00000  1.0000
  B   B3        1.0  0.79000  0.22800  0.50000  1.0000
  B   B4        1.0  0.21000  0.77200  0.50000  1.0000
  Ca  Ca1       1.0  0.00000  0.50000  0.00000  1.0000
  Ca  Ca2       1.0  0.50000  0.00000  0.50000  1.0000
  Li  Li1       1.0  0.19700  0.01320  0.00000  1.0000
  Li  Li2       1.0  0.54900  0.33000  0.00000  1.0000
  Li  Li3       1.0  0.45100  0.67000  0.00000  1.0000
  Li  Li4       1.0  0.80300  0.98700  0.00000  1.0000
  Li  Li5       1.0  0.04880  0.17000  0.50000  1.0000
  Li  Li6       1.0  0.69700  0.48700  0.50000  1.0000
  Li  Li7       1.0  0.30300  0.51300  0.50000  1.0000
  Li  Li8       1.0  0.95100  0.83000  0.50000  1.0000
  O   O1        1.0  0.38100  0.13400  0.00000  1.0000
  O   O2        1.0  0.14100  0.24800  0.00000  1.0000
  O   O3        1.0  0.35100  0.42900  0.00000  1.0000
  O   O4        1.0  0.64900  0.57100  0.00000  1.0000
  O   O5        1.0  0.85900  0.75200  0.00000  1.0000
  O   O6        1.0  0.61900  0.86600  0.00000  1.0000
  O   O7        1.0  0.85100  0.07120  0.50000  1.0000
  O   O8        1.0  0.64100  0.25200  0.50000  1.0000
  O   O9        1.0  0.88100  0.36600  0.50000  1.0000
  O   O10       1.0  0.11900  0.63400  0.50000  1.0000
  O   O11       1.0  0.35900  0.74800  0.50000  1.0000
  O   O12       1.0  0.14900  0.92900  0.50000  1.0000
