data_image0
_chemical_formula_structural       N14Si8Sr2Y2
_chemical_formula_sum              "N14 Si8 Sr2 Y2"
_cell_length_a       6.02177
_cell_length_b       6.02177
_cell_length_c       9.83044
_cell_angle_alpha    90
_cell_angle_beta     90
_cell_angle_gamma    120

_space_group_name_H-M_alt    "P 1"
_space_group_IT_number       1

loop_
  _space_group_symop_operation_xyz
  'x, y, z'

loop_
  _atom_site_type_symbol
  _atom_site_label
  _atom_site_symmetry_multiplicity
  _atom_site_fract_x
  _atom_site_fract_y
  _atom_site_fract_z
  _atom_site_occupancy
  N   N1        1.0  0.30600  0.15300  0.08700  1.0000
  N   N2        1.0  0.84700  0.15300  0.08700  1.0000
  N   N3        1.0  0.84700  0.69400  0.08700  1.0000
  N   N4        1.0  0.51100  0.02250  0.31200  1.0000
  N   N5        1.0  0.51100  0.48900  0.31200  1.0000
  N   N6        1.0  0.97800  0.48900  0.31200  1.0000
  N   N7        1.0  0.00000  0.00000  0.33600  1.0000
  N   N8        1.0  0.15300  0.84700  0.58700  1.0000
  N   N9        1.0  0.69400  0.84700  0.58700  1.0000
  N   N10       1.0  0.15300  0.30600  0.58700  1.0000
  N   N11       1.0  0.48900  0.97800  0.81200  1.0000
  N   N12       1.0  0.02250  0.51100  0.81200  1.0000
  N   N13       1.0  0.48900  0.51100  0.81200  1.0000
  N   N14       1.0  0.00000  0.00000  0.83600  1.0000
  Si  Si1       1.0  0.00000  0.00000  0.02680  1.0000
  Si  Si2       1.0  0.34700  0.17400  0.26000  1.0000
  Si  Si3       1.0  0.82600  0.17400  0.26000  1.0000
  Si  Si4       1.0  0.82600  0.65300  0.26000  1.0000
  Si  Si5       1.0  0.00000  0.00000  0.52700  1.0000
  Si  Si6       1.0  0.17400  0.82600  0.76000  1.0000
  Si  Si7       1.0  0.65300  0.82600  0.76000  1.0000
  Si  Si8       1.0  0.17400  0.34700  0.76000  1.0000
  Sr  Sr1       1.0  0.33300  0.66700  0.08220  1.0000
  Sr  Sr2       1.0  0.66700  0.33300  0.58200  1.0000
  Y   Y1        1.0  0.33300  0.66700  0.45100  1.0000
  Y   Y2        1.0  0.66700  0.33300  0.95100  1.0000
