data_image0
_chemical_formula_structural       La5MnO16Os3
_chemical_formula_sum              "La5 Mn1 O16 Os3"
_cell_length_a       5.66114
_cell_length_b       5.6732
_cell_length_c       10.1072
_cell_angle_alpha    94.2421
_cell_angle_beta     93.7914
_cell_angle_gamma    91.0996

_space_group_name_H-M_alt    "P 1"
_space_group_IT_number       1

loop_
  _space_group_symop_operation_xyz
  'x, y, z'

loop_
  _atom_site_type_symbol
  _atom_site_label
  _atom_site_symmetry_multiplicity
  _atom_site_fract_x
  _atom_site_fract_y
  _atom_site_fract_z
  _atom_site_occupancy
  La  La1       1.0  0.51100  0.02770  0.20500  1.0000
  La  La2       1.0  0.03370  0.50400  0.21000  1.0000
  La  La3       1.0  0.00000  0.00000  0.50000  1.0000
  La  La4       1.0  0.96600  0.49600  0.79000  1.0000
  La  La5       1.0  0.48900  0.97200  0.79500  1.0000
  Mn  Mn1       1.0  0.50000  0.50000  0.00000  1.0000
  O   O1        1.0  0.70100  0.18000  0.00483  1.0000
  O   O2        1.0  0.82500  0.70700  0.03570  1.0000
  O   O3        1.0  0.08100  0.07830  0.18900  1.0000
  O   O4        1.0  0.46100  0.45500  0.20200  1.0000
  O   O5        1.0  0.77200  0.77800  0.32400  1.0000
  O   O6        1.0  0.29900  0.78100  0.36700  1.0000
  O   O7        1.0  0.79500  0.31000  0.37000  1.0000
  O   O8        1.0  0.31700  0.30500  0.43100  1.0000
  O   O9        1.0  0.68300  0.69500  0.56900  1.0000
  O   O10       1.0  0.20500  0.69000  0.63000  1.0000
  O   O11       1.0  0.70100  0.21900  0.63300  1.0000
  O   O12       1.0  0.22800  0.22200  0.67600  1.0000
  O   O13       1.0  0.53900  0.54500  0.79800  1.0000
  O   O14       1.0  0.91900  0.92200  0.81100  1.0000
  O   O15       1.0  0.17500  0.29300  0.96400  1.0000
  O   O16       1.0  0.29900  0.82000  0.99500  1.0000
  Os  Os1       1.0  0.00000  0.00000  0.00000  1.0000
  Os  Os2       1.0  0.55300  0.55300  0.39300  1.0000
  Os  Os3       1.0  0.44700  0.44700  0.60700  1.0000
