data_image0
_chemical_formula_structural       Ni6Se16Ta4
_chemical_formula_sum              "Ni6 Se16 Ta4"
_cell_length_a       14.9266
_cell_length_b       10.5701
_cell_length_c       3.48596
_cell_angle_alpha    90
_cell_angle_beta     90
_cell_angle_gamma    90

_space_group_name_H-M_alt    "P 1"
_space_group_IT_number       1

loop_
  _space_group_symop_operation_xyz
  'x, y, z'

loop_
  _atom_site_type_symbol
  _atom_site_label
  _atom_site_symmetry_multiplicity
  _atom_site_fract_x
  _atom_site_fract_y
  _atom_site_fract_z
  _atom_site_occupancy
  Ni  Ni1       1.0  0.00000  0.00000  0.00000  1.0000
  Ni  Ni2       1.0  0.72200  0.13400  0.00000  1.0000
  Ni  Ni3       1.0  0.22200  0.36600  0.00000  1.0000
  Ni  Ni4       1.0  0.50000  0.50000  0.00000  1.0000
  Ni  Ni5       1.0  0.77800  0.63400  0.00000  1.0000
  Ni  Ni6       1.0  0.27800  0.86600  0.00000  1.0000
  Se  Se1       1.0  0.15600  0.02490  0.00000  1.0000
  Se  Se2       1.0  0.99100  0.22100  0.00000  1.0000
  Se  Se3       1.0  0.49100  0.27900  0.00000  1.0000
  Se  Se4       1.0  0.65600  0.47500  0.00000  1.0000
  Se  Se5       1.0  0.34400  0.52500  0.00000  1.0000
  Se  Se6       1.0  0.50900  0.72100  0.00000  1.0000
  Se  Se7       1.0  0.00939  0.77900  0.00000  1.0000
  Se  Se8       1.0  0.84400  0.97500  0.00000  1.0000
  Se  Se9       1.0  0.62900  0.05580  0.50000  1.0000
  Se  Se10      1.0  0.28700  0.24400  0.50000  1.0000
  Se  Se11      1.0  0.78700  0.25600  0.50000  1.0000
  Se  Se12      1.0  0.12900  0.44400  0.50000  1.0000
  Se  Se13      1.0  0.87100  0.55600  0.50000  1.0000
  Se  Se14      1.0  0.21300  0.74400  0.50000  1.0000
  Se  Se15      1.0  0.71300  0.75600  0.50000  1.0000
  Se  Se16      1.0  0.37100  0.94400  0.50000  1.0000
  Ta  Ta1       1.0  0.11900  0.20200  0.50000  1.0000
  Ta  Ta2       1.0  0.61900  0.29800  0.50000  1.0000
  Ta  Ta3       1.0  0.38100  0.70200  0.50000  1.0000
  Ta  Ta4       1.0  0.88100  0.79800  0.50000  1.0000
