data_image0
_chemical_formula_structural       Mn2O16Ta4Zn4
_chemical_formula_sum              "Mn2 O16 Ta4 Zn4"
_cell_length_a       5.24865
_cell_length_b       5.94253
_cell_length_c       10.0826
_cell_angle_alpha    107.139
_cell_angle_beta     90.2128
_cell_angle_gamma    90

_space_group_name_H-M_alt    "P 1"
_space_group_IT_number       1

loop_
  _space_group_symop_operation_xyz
  'x, y, z'

loop_
  _atom_site_type_symbol
  _atom_site_label
  _atom_site_symmetry_multiplicity
  _atom_site_fract_x
  _atom_site_fract_y
  _atom_site_fract_z
  _atom_site_occupancy
  Mn  Mn1       1.0  0.25000  0.34500  0.00000  1.0000
  Mn  Mn2       1.0  0.75000  0.65500  0.00000  1.0000
  O   O1        1.0  0.59300  0.43700  0.12100  1.0000
  O   O2        1.0  0.09270  0.68400  0.12100  1.0000
  O   O3        1.0  0.56900  0.96100  0.14100  1.0000
  O   O4        1.0  0.06930  0.18000  0.14100  1.0000
  O   O5        1.0  0.93900  0.07960  0.36200  1.0000
  O   O6        1.0  0.43900  0.28200  0.36200  1.0000
  O   O7        1.0  0.36800  0.83900  0.38700  1.0000
  O   O8        1.0  0.86800  0.54800  0.38700  1.0000
  O   O9        1.0  0.13200  0.45200  0.61300  1.0000
  O   O10       1.0  0.63200  0.16100  0.61300  1.0000
  O   O11       1.0  0.56100  0.71800  0.63800  1.0000
  O   O12       1.0  0.06100  0.92000  0.63800  1.0000
  O   O13       1.0  0.43100  0.03910  0.85900  1.0000
  O   O14       1.0  0.93100  0.82000  0.85900  1.0000
  O   O15       1.0  0.90700  0.31600  0.87900  1.0000
  O   O16       1.0  0.40700  0.56300  0.87900  1.0000
  Ta  Ta1       1.0  0.23700  0.95700  0.23300  1.0000
  Ta  Ta2       1.0  0.73700  0.27600  0.23300  1.0000
  Ta  Ta3       1.0  0.76300  0.04310  0.76700  1.0000
  Ta  Ta4       1.0  0.26300  0.72400  0.76700  1.0000
  Zn  Zn1       1.0  0.23800  0.56800  0.44100  1.0000
  Zn  Zn2       1.0  0.73800  0.87300  0.44100  1.0000
  Zn  Zn3       1.0  0.76200  0.43200  0.55900  1.0000
  Zn  Zn4       1.0  0.26200  0.12700  0.55900  1.0000
