data_image0
_chemical_formula_structural       Ba2Pd2
_chemical_formula_sum              "Ba2 Pd2"
_cell_length_a       4.42155
_cell_length_b       4.69163
_cell_length_c       6.31363
_cell_angle_alpha    90
_cell_angle_beta     69.503
_cell_angle_gamma    90

_space_group_name_H-M_alt    "P 1"
_space_group_IT_number       1

loop_
  _space_group_symop_operation_xyz
  'x, y, z'

loop_
  _atom_site_type_symbol
  _atom_site_label
  _atom_site_symmetry_multiplicity
  _atom_site_fract_x
  _atom_site_fract_y
  _atom_site_fract_z
  _atom_site_occupancy
  Ba  Ba1       1.0  0.86100  0.25000  0.27800  1.0000
  Ba  Ba2       1.0  0.13900  0.75000  0.72200  1.0000
  Pd  Pd1       1.0  0.42900  0.75000  0.14200  1.0000
  Pd  Pd2       1.0  0.57100  0.25000  0.85800  1.0000
