data_image0
_chemical_formula_structural       Cl6Nd6O12U2
_chemical_formula_sum              "Cl6 Nd6 O12 U2"
_cell_length_a       9.369
_cell_length_b       9.3691
_cell_length_c       5.55275
_cell_angle_alpha    90
_cell_angle_beta     90
_cell_angle_gamma    120

_space_group_name_H-M_alt    "P 1"
_space_group_IT_number       1

loop_
  _space_group_symop_operation_xyz
  'x, y, z'

loop_
  _atom_site_type_symbol
  _atom_site_label
  _atom_site_symmetry_multiplicity
  _atom_site_fract_x
  _atom_site_fract_y
  _atom_site_fract_z
  _atom_site_occupancy
  Cl  Cl1       1.0  0.18600  0.24600  0.25000  1.0000
  Cl  Cl2       1.0  0.06000  0.81400  0.25000  1.0000
  Cl  Cl3       1.0  0.75400  0.94000  0.25000  1.0000
  Cl  Cl4       1.0  0.24600  0.06000  0.75000  1.0000
  Cl  Cl5       1.0  0.94000  0.18600  0.75000  1.0000
  Cl  Cl6       1.0  0.81400  0.75400  0.75000  1.0000
  Nd  Nd1       1.0  0.40300  0.09250  0.25000  1.0000
  Nd  Nd2       1.0  0.90800  0.31100  0.25000  1.0000
  Nd  Nd3       1.0  0.68900  0.59700  0.25000  1.0000
  Nd  Nd4       1.0  0.31100  0.40300  0.75000  1.0000
  Nd  Nd5       1.0  0.09250  0.68900  0.75000  1.0000
  Nd  Nd6       1.0  0.59700  0.90800  0.75000  1.0000
  O   O1        1.0  0.14900  0.51300  0.00171  1.0000
  O   O2        1.0  0.48700  0.63600  0.00171  1.0000
  O   O3        1.0  0.36400  0.85100  0.00171  1.0000
  O   O4        1.0  0.48700  0.63600  0.49800  1.0000
  O   O5        1.0  0.36400  0.85100  0.49800  1.0000
  O   O6        1.0  0.14900  0.51300  0.49800  1.0000
  O   O7        1.0  0.85100  0.48700  0.50200  1.0000
  O   O8        1.0  0.51300  0.36400  0.50200  1.0000
  O   O9        1.0  0.63600  0.14900  0.50200  1.0000
  O   O10       1.0  0.63600  0.14900  0.99800  1.0000
  O   O11       1.0  0.51300  0.36400  0.99800  1.0000
  O   O12       1.0  0.85100  0.48700  0.99800  1.0000
  U   U1        1.0  0.33300  0.66700  0.25000  1.0000
  U   U2        1.0  0.66700  0.33300  0.75000  1.0000
