data_image0
_chemical_formula_structural       Cs2Mo6O18
_chemical_formula_sum              "Cs2 Mo6 O18"
_cell_length_a       6.40747
_cell_length_b       7.73217
_cell_length_c       8.73056
_cell_angle_alpha    116.284
_cell_angle_beta     93.9343
_cell_angle_gamma    90

_space_group_name_H-M_alt    "P 1"
_space_group_IT_number       1

loop_
  _space_group_symop_operation_xyz
  'x, y, z'

loop_
  _atom_site_type_symbol
  _atom_site_label
  _atom_site_symmetry_multiplicity
  _atom_site_fract_x
  _atom_site_fract_y
  _atom_site_fract_z
  _atom_site_occupancy
  Cs  Cs1       1.0  0.83300  0.69300  0.38700  1.0000
  Cs  Cs2       1.0  0.16700  0.30700  0.61300  1.0000
  Mo  Mo1       1.0  0.27200  0.31600  0.11200  1.0000
  Mo  Mo2       1.0  0.27200  0.79600  0.11200  1.0000
  Mo  Mo3       1.0  0.65000  0.11300  0.22600  1.0000
  Mo  Mo4       1.0  0.35000  0.88700  0.77400  1.0000
  Mo  Mo5       1.0  0.72800  0.20400  0.88800  1.0000
  Mo  Mo6       1.0  0.72800  0.68400  0.88800  1.0000
  O   O1        1.0  0.00000  0.25900  0.00000  1.0000
  O   O2        1.0  0.00000  0.74100  0.00000  1.0000
  O   O3        1.0  0.29800  0.53600  0.07160  1.0000
  O   O4        1.0  0.31100  0.03720  0.07450  1.0000
  O   O5        1.0  0.59500  0.31600  0.15400  1.0000
  O   O6        1.0  0.59500  0.83800  0.15400  1.0000
  O   O7        1.0  0.91700  0.13700  0.27400  1.0000
  O   O8        1.0  0.21900  0.42600  0.32300  1.0000
  O   O9        1.0  0.21900  0.89700  0.32300  1.0000
  O   O10       1.0  0.54300  0.21100  0.42200  1.0000
  O   O11       1.0  0.45700  0.78900  0.57800  1.0000
  O   O12       1.0  0.78100  0.10300  0.67700  1.0000
  O   O13       1.0  0.78100  0.57400  0.67700  1.0000
  O   O14       1.0  0.08260  0.86300  0.72600  1.0000
  O   O15       1.0  0.40500  0.16200  0.84600  1.0000
  O   O16       1.0  0.40500  0.68400  0.84600  1.0000
  O   O17       1.0  0.68900  0.96300  0.92600  1.0000
  O   O18       1.0  0.70200  0.46400  0.92800  1.0000
