data_image0
_chemical_formula_structural       O18P6Pr2
_chemical_formula_sum              "O18 P6 Pr2"
_cell_length_a       7.03374
_cell_length_b       7.03374
_cell_length_c       7.24584
_cell_angle_alpha    90
_cell_angle_beta     90
_cell_angle_gamma    74.737

_space_group_name_H-M_alt    "P 1"
_space_group_IT_number       1

loop_
  _space_group_symop_operation_xyz
  'x, y, z'

loop_
  _atom_site_type_symbol
  _atom_site_label
  _atom_site_symmetry_multiplicity
  _atom_site_fract_x
  _atom_site_fract_y
  _atom_site_fract_z
  _atom_site_occupancy
  O   O1        1.0  0.87900  0.87900  0.00000  1.0000
  O   O2        1.0  0.32400  0.62900  0.08110  1.0000
  O   O3        1.0  0.24900  0.97000  0.20100  1.0000
  O   O4        1.0  0.97200  0.28300  0.20600  1.0000
  O   O5        1.0  0.71400  0.67500  0.20900  1.0000
  O   O6        1.0  0.32500  0.28600  0.29100  1.0000
  O   O7        1.0  0.71700  0.02760  0.29400  1.0000
  O   O8        1.0  0.02970  0.75100  0.29900  1.0000
  O   O9        1.0  0.37100  0.67600  0.41900  1.0000
  O   O10       1.0  0.12100  0.12100  0.50000  1.0000
  O   O11       1.0  0.67600  0.37100  0.58100  1.0000
  O   O12       1.0  0.75100  0.02970  0.70100  1.0000
  O   O13       1.0  0.02760  0.71700  0.70600  1.0000
  O   O14       1.0  0.28600  0.32500  0.70900  1.0000
  O   O15       1.0  0.67500  0.71400  0.79100  1.0000
  O   O16       1.0  0.28300  0.97200  0.79400  1.0000
  O   O17       1.0  0.97000  0.24900  0.79900  1.0000
  O   O18       1.0  0.62900  0.32400  0.91900  1.0000
  P   P1        1.0  0.81500  0.83600  0.20600  1.0000
  P   P2        1.0  0.24900  0.75100  0.25000  1.0000
  P   P3        1.0  0.16400  0.18500  0.29400  1.0000
  P   P4        1.0  0.18500  0.16400  0.70600  1.0000
  P   P5        1.0  0.75100  0.24900  0.75000  1.0000
  P   P6        1.0  0.83600  0.81500  0.79400  1.0000
  Pr  Pr1       1.0  0.62400  0.37600  0.25000  1.0000
  Pr  Pr2       1.0  0.37600  0.62400  0.75000  1.0000
