data_image0
_chemical_formula_structural       Au9In13Sr4
_chemical_formula_sum              "Au9 In13 Sr4"
_cell_length_a       12.8592
_cell_length_b       12.8597
_cell_length_c       4.45382
_cell_angle_alpha    90
_cell_angle_beta     90
_cell_angle_gamma    119.999

_space_group_name_H-M_alt    "P 1"
_space_group_IT_number       1

loop_
  _space_group_symop_operation_xyz
  'x, y, z'

loop_
  _atom_site_type_symbol
  _atom_site_label
  _atom_site_symmetry_multiplicity
  _atom_site_fract_x
  _atom_site_fract_y
  _atom_site_fract_z
  _atom_site_occupancy
  Au  Au1       1.0  0.08820  0.17600  0.00000  1.0000
  Au  Au2       1.0  0.09290  0.54600  0.00000  1.0000
  Au  Au3       1.0  0.45400  0.54600  0.00000  1.0000
  Au  Au4       1.0  0.45400  0.90700  0.00000  1.0000
  Au  Au5       1.0  0.08820  0.91200  0.00000  1.0000
  Au  Au6       1.0  0.82400  0.91200  0.00000  1.0000
  Au  Au7       1.0  0.43100  0.21500  0.50000  1.0000
  Au  Au8       1.0  0.78500  0.21500  0.50000  1.0000
  Au  Au9       1.0  0.78500  0.56900  0.50000  1.0000
  In  In1       1.0  0.34200  0.04860  0.00000  1.0000
  In  In2       1.0  0.70700  0.04860  0.00000  1.0000
  In  In3       1.0  0.34200  0.29300  0.00000  1.0000
  In  In4       1.0  0.95100  0.29300  0.00000  1.0000
  In  In5       1.0  0.95100  0.65800  0.00000  1.0000
  In  In6       1.0  0.70700  0.65800  0.00000  1.0000
  In  In7       1.0  0.33300  0.66700  0.00000  1.0000
  In  In8       1.0  0.53300  0.06620  0.50000  1.0000
  In  In9       1.0  0.16700  0.08370  0.50000  1.0000
  In  In10      1.0  0.91600  0.08370  0.50000  1.0000
  In  In11      1.0  0.93400  0.46700  0.50000  1.0000
  In  In12      1.0  0.53300  0.46700  0.50000  1.0000
  In  In13      1.0  0.91600  0.83300  0.50000  1.0000
  Sr  Sr1       1.0  0.66700  0.33300  0.00000  1.0000
  Sr  Sr2       1.0  0.20600  0.41200  0.50000  1.0000
  Sr  Sr3       1.0  0.20600  0.79400  0.50000  1.0000
  Sr  Sr4       1.0  0.58800  0.79400  0.50000  1.0000
