data_image0
_chemical_formula_structural       Al4Sb12Yb10
_chemical_formula_sum              "Al4 Sb12 Yb10"
_cell_length_a       7.37364
_cell_length_b       23.0886
_cell_length_c       4.43998
_cell_angle_alpha    90
_cell_angle_beta     90
_cell_angle_gamma    90

_space_group_name_H-M_alt    "P 1"
_space_group_IT_number       1

loop_
  _space_group_symop_operation_xyz
  'x, y, z'

loop_
  _atom_site_type_symbol
  _atom_site_label
  _atom_site_symmetry_multiplicity
  _atom_site_fract_x
  _atom_site_fract_y
  _atom_site_fract_z
  _atom_site_occupancy
  Al  Al1       1.0  0.81500  0.12100  0.50000  1.0000
  Al  Al2       1.0  0.31500  0.37900  0.50000  1.0000
  Al  Al3       1.0  0.68500  0.62100  0.50000  1.0000
  Al  Al4       1.0  0.18500  0.87900  0.50000  1.0000
  Sb  Sb1       1.0  0.02770  0.13600  0.00000  1.0000
  Sb  Sb2       1.0  0.52800  0.36400  0.00000  1.0000
  Sb  Sb3       1.0  0.47200  0.63600  0.00000  1.0000
  Sb  Sb4       1.0  0.97200  0.86400  0.00000  1.0000
  Sb  Sb5       1.0  0.69800  0.00490  0.50000  1.0000
  Sb  Sb6       1.0  0.51300  0.18800  0.50000  1.0000
  Sb  Sb7       1.0  0.01310  0.31200  0.50000  1.0000
  Sb  Sb8       1.0  0.19800  0.49500  0.50000  1.0000
  Sb  Sb9       1.0  0.80200  0.50500  0.50000  1.0000
  Sb  Sb10      1.0  0.98700  0.68800  0.50000  1.0000
  Sb  Sb11      1.0  0.48700  0.81200  0.50000  1.0000
  Sb  Sb12      1.0  0.30200  0.99500  0.50000  1.0000
  Yb  Yb1       1.0  0.00000  0.00000  0.00000  1.0000
  Yb  Yb2       1.0  0.45300  0.08940  0.00000  1.0000
  Yb  Yb3       1.0  0.76900  0.24700  0.00000  1.0000
  Yb  Yb4       1.0  0.26900  0.25300  0.00000  1.0000
  Yb  Yb5       1.0  0.95300  0.41100  0.00000  1.0000
  Yb  Yb6       1.0  0.50000  0.50000  0.00000  1.0000
  Yb  Yb7       1.0  0.04690  0.58900  0.00000  1.0000
  Yb  Yb8       1.0  0.73100  0.74700  0.00000  1.0000
  Yb  Yb9       1.0  0.23100  0.75300  0.00000  1.0000
  Yb  Yb10      1.0  0.54700  0.91100  0.00000  1.0000
