data_image0
_chemical_formula_structural       Ba2O18Te2W4
_chemical_formula_sum              "Ba2 O18 Te2 W4"
_cell_length_a       5.46645
_cell_length_b       7.4368
_cell_length_c       8.86991
_cell_angle_alpha    90
_cell_angle_beta     90.2699
_cell_angle_gamma    90

_space_group_name_H-M_alt    "P 1"
_space_group_IT_number       1

loop_
  _space_group_symop_operation_xyz
  'x, y, z'

loop_
  _atom_site_type_symbol
  _atom_site_label
  _atom_site_symmetry_multiplicity
  _atom_site_fract_x
  _atom_site_fract_y
  _atom_site_fract_z
  _atom_site_occupancy
  Ba  Ba1       1.0  0.73400  0.60300  0.43700  1.0000
  Ba  Ba2       1.0  0.26600  0.10300  0.56300  1.0000
  O   O1        1.0  0.70600  0.28200  0.05840  1.0000
  O   O2        1.0  0.55000  0.94400  0.12600  1.0000
  O   O3        1.0  0.03380  0.01100  0.13900  1.0000
  O   O4        1.0  0.97600  0.64600  0.16700  1.0000
  O   O5        1.0  0.46200  0.58500  0.17300  1.0000
  O   O6        1.0  0.48300  0.24900  0.30000  1.0000
  O   O7        1.0  0.98500  0.29200  0.33200  1.0000
  O   O8        1.0  0.28100  0.82200  0.37200  1.0000
  O   O9        1.0  0.76900  0.97400  0.42000  1.0000
  O   O10       1.0  0.23100  0.47400  0.58000  1.0000
  O   O11       1.0  0.71900  0.32200  0.62800  1.0000
  O   O12       1.0  0.01540  0.79200  0.66800  1.0000
  O   O13       1.0  0.51700  0.74900  0.70000  1.0000
  O   O14       1.0  0.53800  0.08480  0.82700  1.0000
  O   O15       1.0  0.02400  0.14600  0.83300  1.0000
  O   O16       1.0  0.96600  0.51100  0.86100  1.0000
  O   O17       1.0  0.45000  0.44400  0.87400  1.0000
  O   O18       1.0  0.29400  0.78200  0.94200  1.0000
  Te  Te1       1.0  0.36800  0.36000  0.08890  1.0000
  Te  Te2       1.0  0.63200  0.86000  0.91100  1.0000
  W   W1        1.0  0.22200  0.80000  0.17500  1.0000
  W   W2        1.0  0.78100  0.12400  0.26400  1.0000
  W   W3        1.0  0.21900  0.62400  0.73600  1.0000
  W   W4        1.0  0.77800  0.30000  0.82500  1.0000
