data_image0
_chemical_formula_structural       I6In2O18
_chemical_formula_sum              "I6 In2 O18"
_cell_length_a       9.47021
_cell_length_b       9.47011
_cell_length_c       5.15277
_cell_angle_alpha    90
_cell_angle_beta     90
_cell_angle_gamma    120.003

_space_group_name_H-M_alt    "P 1"
_space_group_IT_number       1

loop_
  _space_group_symop_operation_xyz
  'x, y, z'

loop_
  _atom_site_type_symbol
  _atom_site_label
  _atom_site_symmetry_multiplicity
  _atom_site_fract_x
  _atom_site_fract_y
  _atom_site_fract_z
  _atom_site_occupancy
  I   I1        1.0  0.98000  0.66600  0.31900  1.0000
  I   I2        1.0  0.68500  0.01960  0.31900  1.0000
  I   I3        1.0  0.33400  0.31500  0.31900  1.0000
  I   I4        1.0  0.01960  0.33400  0.81900  1.0000
  I   I5        1.0  0.31500  0.98000  0.81900  1.0000
  I   I6        1.0  0.66600  0.68500  0.81900  1.0000
  In  In1       1.0  0.33300  0.66700  0.20200  1.0000
  In  In2       1.0  0.66700  0.33300  0.70200  1.0000
  O   O1        1.0  0.15600  0.92900  0.05620  1.0000
  O   O2        1.0  0.77300  0.84400  0.05620  1.0000
  O   O3        1.0  0.07090  0.22700  0.05630  1.0000
  O   O4        1.0  0.54000  0.81400  0.45000  1.0000
  O   O5        1.0  0.18600  0.72600  0.45000  1.0000
  O   O6        1.0  0.27400  0.46000  0.45000  1.0000
  O   O7        1.0  0.88600  0.45800  0.47300  1.0000
  O   O8        1.0  0.57200  0.11400  0.47300  1.0000
  O   O9        1.0  0.54200  0.42800  0.47300  1.0000
  O   O10       1.0  0.84400  0.07090  0.55600  1.0000
  O   O11       1.0  0.22700  0.15600  0.55600  1.0000
  O   O12       1.0  0.92900  0.77300  0.55600  1.0000
  O   O13       1.0  0.46000  0.18600  0.95000  1.0000
  O   O14       1.0  0.81400  0.27400  0.95000  1.0000
  O   O15       1.0  0.72600  0.54000  0.95000  1.0000
  O   O16       1.0  0.11400  0.54200  0.97300  1.0000
  O   O17       1.0  0.42800  0.88600  0.97300  1.0000
  O   O18       1.0  0.45800  0.57200  0.97300  1.0000
