data_image0
_chemical_formula_structural       Mn2Na4O16S4
_chemical_formula_sum              "Mn2 Na4 O16 S4"
_cell_length_a       6.37682
_cell_length_b       6.37682
_cell_length_c       8.56531
_cell_angle_alpha    109.825
_cell_angle_beta     70.1745
_cell_angle_gamma    101.999

_space_group_name_H-M_alt    "P 1"
_space_group_IT_number       1

loop_
  _space_group_symop_operation_xyz
  'x, y, z'

loop_
  _atom_site_type_symbol
  _atom_site_label
  _atom_site_symmetry_multiplicity
  _atom_site_fract_x
  _atom_site_fract_y
  _atom_site_fract_z
  _atom_site_occupancy
  Mn  Mn1       1.0  0.07240  0.07240  0.25000  1.0000
  Mn  Mn2       1.0  0.92800  0.92800  0.75000  1.0000
  Na  Na1       1.0  0.69000  0.41500  0.06670  1.0000
  Na  Na2       1.0  0.41500  0.69000  0.43300  1.0000
  Na  Na3       1.0  0.58500  0.31000  0.56700  1.0000
  Na  Na4       1.0  0.31000  0.58500  0.93300  1.0000
  O   O1        1.0  0.77100  0.04360  0.03860  1.0000
  O   O2        1.0  0.51500  0.73500  0.13300  1.0000
  O   O3        1.0  0.01450  0.70200  0.17400  1.0000
  O   O4        1.0  0.12000  0.41300  0.24600  1.0000
  O   O5        1.0  0.41300  0.12000  0.25400  1.0000
  O   O6        1.0  0.70200  0.01450  0.32600  1.0000
  O   O7        1.0  0.73500  0.51500  0.36700  1.0000
  O   O8        1.0  0.04360  0.77100  0.46100  1.0000
  O   O9        1.0  0.95600  0.22900  0.53900  1.0000
  O   O10       1.0  0.26500  0.48500  0.63300  1.0000
  O   O11       1.0  0.29800  0.98500  0.67400  1.0000
  O   O12       1.0  0.58700  0.88000  0.74600  1.0000
  O   O13       1.0  0.88000  0.58700  0.75400  1.0000
  O   O14       1.0  0.98500  0.29800  0.82600  1.0000
  O   O15       1.0  0.48500  0.26500  0.86700  1.0000
  O   O16       1.0  0.22900  0.95600  0.96100  1.0000
  S   S1        1.0  0.59900  0.97500  0.18400  1.0000
  S   S2        1.0  0.97500  0.59900  0.31600  1.0000
  S   S3        1.0  0.02480  0.40100  0.68400  1.0000
  S   S4        1.0  0.40100  0.02480  0.81600  1.0000
