data_image0
_chemical_formula_structural       Cl4Co2O12Se4Sr4
_chemical_formula_sum              "Cl4 Co2 O12 Se4 Sr4"
_cell_length_a       5.35978
_cell_length_b       6.42354
_cell_length_c       12.2736
_cell_angle_alpha    90
_cell_angle_beta     92.6501
_cell_angle_gamma    90

_space_group_name_H-M_alt    "P 1"
_space_group_IT_number       1

loop_
  _space_group_symop_operation_xyz
  'x, y, z'

loop_
  _atom_site_type_symbol
  _atom_site_label
  _atom_site_symmetry_multiplicity
  _atom_site_fract_x
  _atom_site_fract_y
  _atom_site_fract_z
  _atom_site_occupancy
  Cl  Cl1       1.0  0.54300  0.16900  0.10600  1.0000
  Cl  Cl2       1.0  0.95700  0.66900  0.39400  1.0000
  Cl  Cl3       1.0  0.04260  0.33100  0.60600  1.0000
  Cl  Cl4       1.0  0.45700  0.83100  0.89400  1.0000
  Co  Co1       1.0  0.50000  0.50000  0.00000  1.0000
  Co  Co2       1.0  0.00000  0.00000  0.50000  1.0000
  O   O1        1.0  0.22400  0.57700  0.10600  1.0000
  O   O2        1.0  0.74400  0.62200  0.12100  1.0000
  O   O3        1.0  0.05610  0.93100  0.17900  1.0000
  O   O4        1.0  0.44400  0.43100  0.32100  1.0000
  O   O5        1.0  0.75600  0.12200  0.37900  1.0000
  O   O6        1.0  0.27600  0.07730  0.39400  1.0000
  O   O7        1.0  0.72400  0.92300  0.60600  1.0000
  O   O8        1.0  0.24400  0.87800  0.62100  1.0000
  O   O9        1.0  0.55600  0.56900  0.67900  1.0000
  O   O10       1.0  0.94400  0.06910  0.82100  1.0000
  O   O11       1.0  0.25600  0.37800  0.87900  1.0000
  O   O12       1.0  0.77600  0.42300  0.89400  1.0000
  Se  Se1       1.0  0.99400  0.76400  0.07370  1.0000
  Se  Se2       1.0  0.50600  0.26400  0.42600  1.0000
  Se  Se3       1.0  0.49400  0.73600  0.57400  1.0000
  Se  Se4       1.0  0.00620  0.23600  0.92600  1.0000
  Sr  Sr1       1.0  0.01200  0.30300  0.23300  1.0000
  Sr  Sr2       1.0  0.48800  0.80300  0.26700  1.0000
  Sr  Sr3       1.0  0.51200  0.19700  0.73300  1.0000
  Sr  Sr4       1.0  0.98800  0.69700  0.76700  1.0000
