data_image0
_chemical_formula_structural       BBa2Cl17Zr6
_chemical_formula_sum              "B1 Ba2 Cl17 Zr6"
_cell_length_a       9.74278
_cell_length_b       9.74278
_cell_length_c       9.74278
_cell_angle_alpha    105.259
_cell_angle_beta     118.27
_cell_angle_gamma    105.259

_space_group_name_H-M_alt    "P 1"
_space_group_IT_number       1

loop_
  _space_group_symop_operation_xyz
  'x, y, z'

loop_
  _atom_site_type_symbol
  _atom_site_label
  _atom_site_symmetry_multiplicity
  _atom_site_fract_x
  _atom_site_fract_y
  _atom_site_fract_z
  _atom_site_occupancy
  B   B1        1.0  0.00000  0.00000  0.00000  1.0000
  Ba  Ba1       1.0  0.75000  0.50000  0.25000  1.0000
  Ba  Ba2       1.0  0.25000  0.50000  0.75000  1.0000
  Cl  Cl1       1.0  0.32500  0.86400  0.04830  1.0000
  Cl  Cl2       1.0  0.40500  0.53300  0.12800  1.0000
  Cl  Cl3       1.0  0.72500  0.85900  0.13400  1.0000
  Cl  Cl4       1.0  0.04830  0.72300  0.18500  1.0000
  Cl  Cl5       1.0  0.13400  0.41000  0.27500  1.0000
  Cl  Cl6       1.0  0.46100  0.27700  0.32500  1.0000
  Cl  Cl7       1.0  0.87200  0.27700  0.40500  1.0000
  Cl  Cl8       1.0  0.18500  0.13600  0.46100  1.0000
  Cl  Cl9       1.0  0.50000  0.00000  0.50000  1.0000
  Cl  Cl10      1.0  0.81500  0.86400  0.53900  1.0000
  Cl  Cl11      1.0  0.12800  0.72300  0.59500  1.0000
  Cl  Cl12      1.0  0.53900  0.72300  0.67500  1.0000
  Cl  Cl13      1.0  0.86600  0.59000  0.72500  1.0000
  Cl  Cl14      1.0  0.95200  0.27700  0.81500  1.0000
  Cl  Cl15      1.0  0.27500  0.14100  0.86600  1.0000
  Cl  Cl16      1.0  0.59500  0.46700  0.87200  1.0000
  Cl  Cl17      1.0  0.67500  0.13600  0.95200  1.0000
  Zr  Zr1       1.0  0.18500  0.24800  0.06340  1.0000
  Zr  Zr2       1.0  0.93700  0.12100  0.18500  1.0000
  Zr  Zr3       1.0  0.23400  0.00000  0.23400  1.0000
  Zr  Zr4       1.0  0.76600  0.00000  0.76600  1.0000
  Zr  Zr5       1.0  0.06340  0.87900  0.81500  1.0000
  Zr  Zr6       1.0  0.81500  0.75200  0.93700  1.0000
