data_image0
_chemical_formula_structural       Co4K12O10
_chemical_formula_sum              "Co4 K12 O10"
_cell_length_a       6.55216
_cell_length_b       6.55216
_cell_length_c       11.8615
_cell_angle_alpha    90
_cell_angle_beta     90
_cell_angle_gamma    90

_space_group_name_H-M_alt    "P 1"
_space_group_IT_number       1

loop_
  _space_group_symop_operation_xyz
  'x, y, z'

loop_
  _atom_site_type_symbol
  _atom_site_label
  _atom_site_symmetry_multiplicity
  _atom_site_fract_x
  _atom_site_fract_y
  _atom_site_fract_z
  _atom_site_occupancy
  Co  Co1       1.0  0.79100  0.20900  0.00000  1.0000
  Co  Co2       1.0  0.20900  0.79100  0.00000  1.0000
  Co  Co3       1.0  0.29100  0.29100  0.50000  1.0000
  Co  Co4       1.0  0.70900  0.70900  0.50000  1.0000
  K   K1        1.0  0.31600  0.31600  0.00000  1.0000
  K   K2        1.0  0.68400  0.68400  0.00000  1.0000
  K   K3        1.0  0.00000  0.00000  0.21800  1.0000
  K   K4        1.0  0.50000  0.00000  0.25000  1.0000
  K   K5        1.0  0.00000  0.50000  0.25000  1.0000
  K   K6        1.0  0.50000  0.50000  0.28200  1.0000
  K   K7        1.0  0.81600  0.18400  0.50000  1.0000
  K   K8        1.0  0.18400  0.81600  0.50000  1.0000
  K   K9        1.0  0.50000  0.50000  0.71800  1.0000
  K   K10       1.0  0.50000  0.00000  0.75000  1.0000
  K   K11       1.0  0.00000  0.50000  0.75000  1.0000
  K   K12       1.0  0.00000  0.00000  0.78200  1.0000
  O   O1        1.0  0.00000  0.00000  0.00000  1.0000
  O   O2        1.0  0.70800  0.29200  0.13900  1.0000
  O   O3        1.0  0.29200  0.70800  0.13900  1.0000
  O   O4        1.0  0.20800  0.20800  0.36100  1.0000
  O   O5        1.0  0.79200  0.79200  0.36100  1.0000
  O   O6        1.0  0.50000  0.50000  0.50000  1.0000
  O   O7        1.0  0.20800  0.20800  0.63900  1.0000
  O   O8        1.0  0.79200  0.79200  0.63900  1.0000
  O   O9        1.0  0.70800  0.29200  0.86100  1.0000
  O   O10       1.0  0.29200  0.70800  0.86100  1.0000
