data_image0
_chemical_formula_structural       As2Cu3O8
_chemical_formula_sum              "As2 Cu3 O8"
_cell_length_a       5.03027
_cell_length_b       5.40741
_cell_length_c       6.34303
_cell_angle_alpha    69.985
_cell_angle_beta     85.5527
_cell_angle_gamma    68.2781

_space_group_name_H-M_alt    "P 1"
_space_group_IT_number       1

loop_
  _space_group_symop_operation_xyz
  'x, y, z'

loop_
  _atom_site_type_symbol
  _atom_site_label
  _atom_site_symmetry_multiplicity
  _atom_site_fract_x
  _atom_site_fract_y
  _atom_site_fract_z
  _atom_site_occupancy
  As  As1       1.0  0.63300  0.64700  0.22100  1.0000
  As  As2       1.0  0.36700  0.35300  0.77900  1.0000
  Cu  Cu1       1.0  0.00000  0.00000  0.00000  1.0000
  Cu  Cu2       1.0  0.26500  0.21600  0.32500  1.0000
  Cu  Cu3       1.0  0.73500  0.78400  0.67500  1.0000
  O   O1        1.0  0.22000  0.20600  0.03110  1.0000
  O   O2        1.0  0.30600  0.64200  0.16400  1.0000
  O   O3        1.0  0.62300  0.87700  0.36400  1.0000
  O   O4        1.0  0.85500  0.31600  0.36700  1.0000
  O   O5        1.0  0.14500  0.68400  0.63300  1.0000
  O   O6        1.0  0.37800  0.12300  0.63600  1.0000
  O   O7        1.0  0.69400  0.35800  0.83600  1.0000
  O   O8        1.0  0.78000  0.79400  0.96900  1.0000
