data_image0
_chemical_formula_structural       Cl4Cu4O12Se4Sr2
_chemical_formula_sum              "Cl4 Cu4 O12 Se4 Sr2"
_cell_length_a       7.16489
_cell_length_b       7.14968
_cell_length_c       8.07146
_cell_angle_alpha    90
_cell_angle_beta     95.9616
_cell_angle_gamma    90

_space_group_name_H-M_alt    "P 1"
_space_group_IT_number       1

loop_
  _space_group_symop_operation_xyz
  'x, y, z'

loop_
  _atom_site_type_symbol
  _atom_site_label
  _atom_site_symmetry_multiplicity
  _atom_site_fract_x
  _atom_site_fract_y
  _atom_site_fract_z
  _atom_site_occupancy
  Cl  Cl1       1.0  0.37600  0.72400  0.21900  1.0000
  Cl  Cl2       1.0  0.94500  0.68800  0.37800  1.0000
  Cl  Cl3       1.0  0.05500  0.18800  0.62200  1.0000
  Cl  Cl4       1.0  0.62400  0.22400  0.78100  1.0000
  Cu  Cu1       1.0  0.86300  0.46600  0.09430  1.0000
  Cu  Cu2       1.0  0.19500  0.48300  0.41200  1.0000
  Cu  Cu3       1.0  0.80500  0.98300  0.58800  1.0000
  Cu  Cu4       1.0  0.13700  0.96600  0.90600  1.0000
  O   O1        1.0  0.29600  0.13900  0.05640  1.0000
  O   O2        1.0  0.97000  0.03070  0.07530  1.0000
  O   O3        1.0  0.64300  0.34900  0.17000  1.0000
  O   O4        1.0  0.05830  0.34400  0.23600  1.0000
  O   O5        1.0  0.68900  0.08680  0.38500  1.0000
  O   O6        1.0  0.38800  0.29200  0.38700  1.0000
  O   O7        1.0  0.61200  0.79200  0.61300  1.0000
  O   O8        1.0  0.31100  0.58700  0.61500  1.0000
  O   O9        1.0  0.94200  0.84400  0.76400  1.0000
  O   O10       1.0  0.35700  0.84900  0.83000  1.0000
  O   O11       1.0  0.03050  0.53100  0.92500  1.0000
  O   O12       1.0  0.70400  0.63900  0.94400  1.0000
  Se  Se1       1.0  0.15100  0.11200  0.21800  1.0000
  Se  Se2       1.0  0.62900  0.32300  0.38400  1.0000
  Se  Se3       1.0  0.37100  0.82300  0.61600  1.0000
  Se  Se4       1.0  0.84900  0.61200  0.78200  1.0000
  Sr  Sr1       1.0  0.62700  0.97000  0.06900  1.0000
  Sr  Sr2       1.0  0.37300  0.47000  0.93100  1.0000
