data_image0
_chemical_formula_structural       Ba10Cd4F2Sb10
_chemical_formula_sum              "Ba10 Cd4 F2 Sb10"
_cell_length_a       4.96786
_cell_length_b       11.9677
_cell_length_c       15.5145
_cell_angle_alpha    90
_cell_angle_beta     90
_cell_angle_gamma    78.021

_space_group_name_H-M_alt    "P 1"
_space_group_IT_number       1

loop_
  _space_group_symop_operation_xyz
  'x, y, z'

loop_
  _atom_site_type_symbol
  _atom_site_label
  _atom_site_symmetry_multiplicity
  _atom_site_fract_x
  _atom_site_fract_y
  _atom_site_fract_z
  _atom_site_occupancy
  Ba  Ba1       1.0  0.00000  0.00000  0.00000  1.0000
  Ba  Ba2       1.0  0.72500  0.54900  0.11800  1.0000
  Ba  Ba3       1.0  0.89900  0.20200  0.25000  1.0000
  Ba  Ba4       1.0  0.09510  0.81000  0.25000  1.0000
  Ba  Ba5       1.0  0.72500  0.54900  0.38200  1.0000
  Ba  Ba6       1.0  0.00000  0.00000  0.50000  1.0000
  Ba  Ba7       1.0  0.27500  0.45100  0.61800  1.0000
  Ba  Ba8       1.0  0.90500  0.19000  0.75000  1.0000
  Ba  Ba9       1.0  0.10100  0.79800  0.75000  1.0000
  Ba  Ba10      1.0  0.27500  0.45100  0.88200  1.0000
  Cd  Cd1       1.0  0.36600  0.26700  0.08930  1.0000
  Cd  Cd2       1.0  0.36600  0.26700  0.41100  1.0000
  Cd  Cd3       1.0  0.63400  0.73300  0.58900  1.0000
  Cd  Cd4       1.0  0.63400  0.73300  0.91100  1.0000
  F   F1        1.0  0.65000  0.70000  0.25000  1.0000
  F   F2        1.0  0.35000  0.30000  0.75000  1.0000
  Sb  Sb1       1.0  0.14900  0.70300  0.01040  1.0000
  Sb  Sb2       1.0  0.49000  0.01910  0.15800  1.0000
  Sb  Sb3       1.0  0.29200  0.41600  0.25000  1.0000
  Sb  Sb4       1.0  0.49000  0.01910  0.34200  1.0000
  Sb  Sb5       1.0  0.14900  0.70300  0.49000  1.0000
  Sb  Sb6       1.0  0.85100  0.29700  0.51000  1.0000
  Sb  Sb7       1.0  0.51000  0.98100  0.65800  1.0000
  Sb  Sb8       1.0  0.70800  0.58400  0.75000  1.0000
  Sb  Sb9       1.0  0.51000  0.98100  0.84200  1.0000
  Sb  Sb10      1.0  0.85100  0.29700  0.99000  1.0000
