data_image0
_chemical_formula_structural       Cl4Cu4O12Sr2Te4
_chemical_formula_sum              "Cl4 Cu4 O12 Sr2 Te4"
_cell_length_a       7.21804
_cell_length_b       7.19797
_cell_length_c       8.26962
_cell_angle_alpha    90
_cell_angle_beta     96.7985
_cell_angle_gamma    90

_space_group_name_H-M_alt    "P 1"
_space_group_IT_number       1

loop_
  _space_group_symop_operation_xyz
  'x, y, z'

loop_
  _atom_site_type_symbol
  _atom_site_label
  _atom_site_symmetry_multiplicity
  _atom_site_fract_x
  _atom_site_fract_y
  _atom_site_fract_z
  _atom_site_occupancy
  Cl  Cl1       1.0  0.05430  0.27900  0.12300  1.0000
  Cl  Cl2       1.0  0.60600  0.29300  0.26500  1.0000
  Cl  Cl3       1.0  0.39400  0.79300  0.73500  1.0000
  Cl  Cl4       1.0  0.94600  0.77900  0.87700  1.0000
  Cu  Cu1       1.0  0.82100  0.05440  0.08070  1.0000
  Cu  Cu2       1.0  0.14100  0.03770  0.41700  1.0000
  Cu  Cu3       1.0  0.85900  0.53800  0.58300  1.0000
  Cu  Cu4       1.0  0.17900  0.55400  0.91900  1.0000
  O   O1        1.0  0.30800  0.65300  0.11800  1.0000
  O   O2        1.0  0.63100  0.86400  0.12500  1.0000
  O   O3        1.0  0.96600  0.92100  0.25700  1.0000
  O   O4        1.0  0.35700  0.92200  0.34300  1.0000
  O   O5        1.0  0.03620  0.59800  0.43800  1.0000
  O   O6        1.0  0.70200  0.70700  0.44200  1.0000
  O   O7        1.0  0.29800  0.20700  0.55800  1.0000
  O   O8        1.0  0.96400  0.09770  0.56200  1.0000
  O   O9        1.0  0.64300  0.42200  0.65700  1.0000
  O   O10       1.0  0.03410  0.42100  0.74300  1.0000
  O   O11       1.0  0.36900  0.36400  0.87500  1.0000
  O   O12       1.0  0.69200  0.15300  0.88200  1.0000
  Sr  Sr1       1.0  0.37300  0.54200  0.43600  1.0000
  Sr  Sr2       1.0  0.62700  0.04250  0.56400  1.0000
  Te  Te1       1.0  0.36700  0.90900  0.11400  1.0000
  Te  Te2       1.0  0.85100  0.67800  0.26200  1.0000
  Te  Te3       1.0  0.14900  0.17800  0.73800  1.0000
  Te  Te4       1.0  0.63300  0.40900  0.88600  1.0000
