data_image0
_chemical_formula_structural       Ba2C4Ca4F4O12
_chemical_formula_sum              "Ba2 C4 Ca4 F4 O12"
_cell_length_a       5.73498
_cell_length_b       6.838
_cell_length_c       9.3895
_cell_angle_alpha    90
_cell_angle_beta     90
_cell_angle_gamma    114.793

_space_group_name_H-M_alt    "P 1"
_space_group_IT_number       1

loop_
  _space_group_symop_operation_xyz
  'x, y, z'

loop_
  _atom_site_type_symbol
  _atom_site_label
  _atom_site_symmetry_multiplicity
  _atom_site_fract_x
  _atom_site_fract_y
  _atom_site_fract_z
  _atom_site_occupancy
  Ba  Ba1       1.0  0.00494  0.00000  0.25000  1.0000
  Ba  Ba2       1.0  0.99500  0.00000  0.75000  1.0000
  C   C1        1.0  0.90000  0.49300  0.25000  1.0000
  C   C2        1.0  0.40700  0.50700  0.25000  1.0000
  C   C3        1.0  0.59300  0.49300  0.75000  1.0000
  C   C4        1.0  0.10000  0.50700  0.75000  1.0000
  Ca  Ca1       1.0  0.64600  0.29100  0.00000  1.0000
  Ca  Ca2       1.0  0.35400  0.70900  0.00000  1.0000
  Ca  Ca3       1.0  0.64600  0.29100  0.50000  1.0000
  Ca  Ca4       1.0  0.35400  0.70900  0.50000  1.0000
  F   F1        1.0  0.26000  0.00000  0.00505  1.0000
  F   F2        1.0  0.26000  0.00000  0.49500  1.0000
  F   F3        1.0  0.74000  0.00000  0.50500  1.0000
  F   F4        1.0  0.74000  0.00000  0.99500  1.0000
  O   O1        1.0  0.36000  0.40400  0.13100  1.0000
  O   O2        1.0  0.95600  0.59600  0.13100  1.0000
  O   O3        1.0  0.77300  0.28400  0.25000  1.0000
  O   O4        1.0  0.48900  0.71600  0.25000  1.0000
  O   O5        1.0  0.36000  0.40400  0.36900  1.0000
  O   O6        1.0  0.95600  0.59600  0.36900  1.0000
  O   O7        1.0  0.04380  0.40400  0.63100  1.0000
  O   O8        1.0  0.64000  0.59600  0.63100  1.0000
  O   O9        1.0  0.51100  0.28400  0.75000  1.0000
  O   O10       1.0  0.22700  0.71600  0.75000  1.0000
  O   O11       1.0  0.04380  0.40400  0.86900  1.0000
  O   O12       1.0  0.64000  0.59600  0.86900  1.0000
