data_image0
_chemical_formula_structural       Hg2O16P4Pd4
_chemical_formula_sum              "Hg2 O16 P4 Pd4"
_cell_length_a       6.64718
_cell_length_b       6.64718
_cell_length_c       8.68275
_cell_angle_alpha    102.185
_cell_angle_beta     102.185
_cell_angle_gamma    116.653

_space_group_name_H-M_alt    "P 1"
_space_group_IT_number       1

loop_
  _space_group_symop_operation_xyz
  'x, y, z'

loop_
  _atom_site_type_symbol
  _atom_site_label
  _atom_site_symmetry_multiplicity
  _atom_site_fract_x
  _atom_site_fract_y
  _atom_site_fract_z
  _atom_site_occupancy
  Hg  Hg1       1.0  0.62500  0.87500  0.25000  1.0000
  Hg  Hg2       1.0  0.37500  0.12500  0.75000  1.0000
  O   O1        1.0  0.34700  0.08810  0.04430  1.0000
  O   O2        1.0  0.69800  0.45600  0.04430  1.0000
  O   O3        1.0  0.22700  0.74900  0.23000  1.0000
  O   O4        1.0  0.00337  0.98100  0.23000  1.0000
  O   O5        1.0  0.75100  0.27300  0.27000  1.0000
  O   O6        1.0  0.51900  0.49700  0.27000  1.0000
  O   O7        1.0  0.41200  0.15300  0.45600  1.0000
  O   O8        1.0  0.04390  0.80200  0.45600  1.0000
  O   O9        1.0  0.95600  0.19800  0.54400  1.0000
  O   O10       1.0  0.58800  0.84700  0.54400  1.0000
  O   O11       1.0  0.48100  0.50300  0.73000  1.0000
  O   O12       1.0  0.24900  0.72700  0.73000  1.0000
  O   O13       1.0  0.99700  0.01920  0.77000  1.0000
  O   O14       1.0  0.77300  0.25100  0.77000  1.0000
  O   O15       1.0  0.30200  0.54400  0.95600  1.0000
  O   O16       1.0  0.65300  0.91200  0.95600  1.0000
  P   P1        1.0  0.57900  0.32900  0.15900  1.0000
  P   P2        1.0  0.17100  0.92100  0.34100  1.0000
  P   P3        1.0  0.82900  0.07930  0.65900  1.0000
  P   P4        1.0  0.42100  0.67100  0.84100  1.0000
  Pd  Pd1       1.0  0.00000  0.00000  0.00000  1.0000
  Pd  Pd2       1.0  0.00000  0.50000  0.00000  1.0000
  Pd  Pd3       1.0  0.00000  0.50000  0.50000  1.0000
  Pd  Pd4       1.0  0.50000  0.50000  0.50000  1.0000
