data_image0
_chemical_formula_structural       Ce6Cl6O12Ta2
_chemical_formula_sum              "Ce6 Cl6 O12 Ta2"
_cell_length_a       9.48455
_cell_length_b       9.48454
_cell_length_c       5.34606
_cell_angle_alpha    90
_cell_angle_beta     90
_cell_angle_gamma    120.001

_space_group_name_H-M_alt    "P 1"
_space_group_IT_number       1

loop_
  _space_group_symop_operation_xyz
  'x, y, z'

loop_
  _atom_site_type_symbol
  _atom_site_label
  _atom_site_symmetry_multiplicity
  _atom_site_fract_x
  _atom_site_fract_y
  _atom_site_fract_z
  _atom_site_occupancy
  Ce  Ce1       1.0  0.69100  0.09160  0.25000  1.0000
  Ce  Ce2       1.0  0.40100  0.30900  0.25000  1.0000
  Ce  Ce3       1.0  0.90800  0.59900  0.25000  1.0000
  Ce  Ce4       1.0  0.09160  0.40100  0.75000  1.0000
  Ce  Ce5       1.0  0.59900  0.69100  0.75000  1.0000
  Ce  Ce6       1.0  0.30900  0.90800  0.75000  1.0000
  Cl  Cl1       1.0  0.05120  0.23700  0.25000  1.0000
  Cl  Cl2       1.0  0.76300  0.81400  0.25000  1.0000
  Cl  Cl3       1.0  0.18600  0.94900  0.25000  1.0000
  Cl  Cl4       1.0  0.81400  0.05120  0.75000  1.0000
  Cl  Cl5       1.0  0.23700  0.18600  0.75000  1.0000
  Cl  Cl6       1.0  0.94900  0.76300  0.75000  1.0000
  O   O1        1.0  0.48000  0.84200  0.01340  1.0000
  O   O2        1.0  0.36200  0.52000  0.01340  1.0000
  O   O3        1.0  0.15800  0.63800  0.01340  1.0000
  O   O4        1.0  0.15800  0.63800  0.48700  1.0000
  O   O5        1.0  0.36200  0.52000  0.48700  1.0000
  O   O6        1.0  0.48000  0.84200  0.48700  1.0000
  O   O7        1.0  0.52000  0.15800  0.51300  1.0000
  O   O8        1.0  0.63800  0.48000  0.51300  1.0000
  O   O9        1.0  0.84200  0.36200  0.51300  1.0000
  O   O10       1.0  0.84200  0.36200  0.98700  1.0000
  O   O11       1.0  0.63800  0.48000  0.98700  1.0000
  O   O12       1.0  0.52000  0.15800  0.98700  1.0000
  Ta  Ta1       1.0  0.33300  0.66700  0.25000  1.0000
  Ta  Ta2       1.0  0.66700  0.33300  0.75000  1.0000
