data_image0
_chemical_formula_structural       La4Se18U4
_chemical_formula_sum              "La4 Se18 U4"
_cell_length_a       10.8127
_cell_length_b       5.61061
_cell_length_c       10.5459
_cell_angle_alpha    90
_cell_angle_beta     90
_cell_angle_gamma    90

_space_group_name_H-M_alt    "P 1"
_space_group_IT_number       1

loop_
  _space_group_symop_operation_xyz
  'x, y, z'

loop_
  _atom_site_type_symbol
  _atom_site_label
  _atom_site_symmetry_multiplicity
  _atom_site_fract_x
  _atom_site_fract_y
  _atom_site_fract_z
  _atom_site_occupancy
  La  La1       1.0  0.25000  0.50000  0.02620  1.0000
  La  La2       1.0  0.75000  0.50000  0.42900  1.0000
  La  La3       1.0  0.25000  0.50000  0.57100  1.0000
  La  La4       1.0  0.75000  0.50000  0.97400  1.0000
  Se  Se1       1.0  0.62400  0.00000  0.00024  1.0000
  Se  Se2       1.0  0.87600  0.00000  0.00024  1.0000
  Se  Se3       1.0  0.55000  0.50000  0.19100  1.0000
  Se  Se4       1.0  0.95000  0.50000  0.19100  1.0000
  Se  Se5       1.0  0.25000  0.24900  0.28700  1.0000
  Se  Se6       1.0  0.25000  0.75100  0.28700  1.0000
  Se  Se7       1.0  0.75000  0.00000  0.31300  1.0000
  Se  Se8       1.0  0.00000  0.24900  0.50000  1.0000
  Se  Se9       1.0  0.50000  0.24900  0.50000  1.0000
  Se  Se10      1.0  0.00000  0.75100  0.50000  1.0000
  Se  Se11      1.0  0.50000  0.75100  0.50000  1.0000
  Se  Se12      1.0  0.25000  0.00000  0.68700  1.0000
  Se  Se13      1.0  0.75000  0.24900  0.71300  1.0000
  Se  Se14      1.0  0.75000  0.75100  0.71300  1.0000
  Se  Se15      1.0  0.04980  0.50000  0.80900  1.0000
  Se  Se16      1.0  0.45000  0.50000  0.80900  1.0000
  Se  Se17      1.0  0.12400  0.00000  0.00000  1.0000
  Se  Se18      1.0  0.37600  0.00000  0.00000  1.0000
  U   U1        1.0  0.00837  0.00000  0.25200  1.0000
  U   U2        1.0  0.49200  0.00000  0.25200  1.0000
  U   U3        1.0  0.50800  0.00000  0.74800  1.0000
  U   U4        1.0  0.99200  0.00000  0.74800  1.0000
