data_image0
_chemical_formula_structural       Ba10I6P10
_chemical_formula_sum              "Ba10 I6 P10"
_cell_length_a       4.59759
_cell_length_b       9.55298
_cell_length_c       21.6839
_cell_angle_alpha    92.3498
_cell_angle_beta     96.0856
_cell_angle_gamma    90

_space_group_name_H-M_alt    "P 1"
_space_group_IT_number       1

loop_
  _space_group_symop_operation_xyz
  'x, y, z'

loop_
  _atom_site_type_symbol
  _atom_site_label
  _atom_site_symmetry_multiplicity
  _atom_site_fract_x
  _atom_site_fract_y
  _atom_site_fract_z
  _atom_site_occupancy
  Ba  Ba1       1.0  0.04170  0.35100  0.08340  1.0000
  Ba  Ba2       1.0  0.05970  0.79300  0.11900  1.0000
  Ba  Ba3       1.0  0.63900  0.58700  0.27700  1.0000
  Ba  Ba4       1.0  0.65800  0.04750  0.31600  1.0000
  Ba  Ba5       1.0  0.74000  0.77800  0.48000  1.0000
  Ba  Ba6       1.0  0.26000  0.22200  0.52000  1.0000
  Ba  Ba7       1.0  0.34200  0.95300  0.68400  1.0000
  Ba  Ba8       1.0  0.36100  0.41300  0.72300  1.0000
  Ba  Ba9       1.0  0.94000  0.20700  0.88100  1.0000
  Ba  Ba10      1.0  0.95800  0.64900  0.91700  1.0000
  I   I1        1.0  0.55100  0.06810  0.10200  1.0000
  I   I2        1.0  0.12500  0.30000  0.25000  1.0000
  I   I3        1.0  0.71000  0.39600  0.42000  1.0000
  I   I4        1.0  0.29000  0.60400  0.58000  1.0000
  I   I5        1.0  0.87500  0.70000  0.75000  1.0000
  I   I6        1.0  0.44900  0.93200  0.89800  1.0000
  P   P1        1.0  0.51400  0.60500  0.02840  1.0000
  P   P2        1.0  0.56300  0.56000  0.12700  1.0000
  P   P3        1.0  0.13000  0.82700  0.26100  1.0000
  P   P4        1.0  0.18000  0.78200  0.36000  1.0000
  P   P5        1.0  0.20900  0.97300  0.41800  1.0000
  P   P6        1.0  0.79100  0.02750  0.58200  1.0000
  P   P7        1.0  0.82000  0.21800  0.64000  1.0000
  P   P8        1.0  0.87000  0.17300  0.73900  1.0000
  P   P9        1.0  0.43700  0.44000  0.87300  1.0000
  P   P10       1.0  0.48600  0.39500  0.97200  1.0000
