data_image0
_chemical_formula_structural       I6O18Tl2
_chemical_formula_sum              "I6 O18 Tl2"
_cell_length_a       7.34735
_cell_length_b       7.34728
_cell_length_c       7.34756
_cell_angle_alpha    83.1937
_cell_angle_beta     96.8043
_cell_angle_gamma    96.8078

_space_group_name_H-M_alt    "P 1"
_space_group_IT_number       1

loop_
  _space_group_symop_operation_xyz
  'x, y, z'

loop_
  _atom_site_type_symbol
  _atom_site_label
  _atom_site_symmetry_multiplicity
  _atom_site_fract_x
  _atom_site_fract_y
  _atom_site_fract_z
  _atom_site_occupancy
  I   I1        1.0  0.29400  0.41100  0.12800  1.0000
  I   I2        1.0  0.41100  0.87200  0.29500  1.0000
  I   I3        1.0  0.87200  0.70600  0.41100  1.0000
  I   I4        1.0  0.12800  0.29400  0.58900  1.0000
  I   I5        1.0  0.58900  0.12800  0.70500  1.0000
  I   I6        1.0  0.70600  0.58900  0.87200  1.0000
  O   O1        1.0  0.07200  0.30100  0.03270  1.0000
  O   O2        1.0  0.30100  0.96700  0.07190  1.0000
  O   O3        1.0  0.67600  0.43000  0.08630  1.0000
  O   O4        1.0  0.58100  0.73800  0.22000  1.0000
  O   O5        1.0  0.22000  0.58100  0.26200  1.0000
  O   O6        1.0  0.96700  0.92800  0.30100  1.0000
  O   O7        1.0  0.57000  0.08630  0.32400  1.0000
  O   O8        1.0  0.26200  0.22000  0.41900  1.0000
  O   O9        1.0  0.91400  0.32400  0.43000  1.0000
  O   O10       1.0  0.08630  0.67600  0.57000  1.0000
  O   O11       1.0  0.73800  0.78000  0.58100  1.0000
  O   O12       1.0  0.43000  0.91400  0.67600  1.0000
  O   O13       1.0  0.03270  0.07200  0.69900  1.0000
  O   O14       1.0  0.78000  0.41900  0.73800  1.0000
  O   O15       1.0  0.41900  0.26200  0.78000  1.0000
  O   O16       1.0  0.32400  0.57000  0.91400  1.0000
  O   O17       1.0  0.69900  0.03270  0.92800  1.0000
  O   O18       1.0  0.92800  0.69900  0.96700  1.0000
  Tl  Tl1       1.0  0.82600  0.17400  0.17400  1.0000
  Tl  Tl2       1.0  0.17400  0.82600  0.82600  1.0000
