data_image0
_chemical_formula_structural       Pt14Sc8Si4
_chemical_formula_sum              "Pt14 Sc8 Si4"
_cell_length_a       6.53719
_cell_length_b       16.3485
_cell_length_c       4.01209
_cell_angle_alpha    90
_cell_angle_beta     90
_cell_angle_gamma    90

_space_group_name_H-M_alt    "P 1"
_space_group_IT_number       1

loop_
  _space_group_symop_operation_xyz
  'x, y, z'

loop_
  _atom_site_type_symbol
  _atom_site_label
  _atom_site_symmetry_multiplicity
  _atom_site_fract_x
  _atom_site_fract_y
  _atom_site_fract_z
  _atom_site_occupancy
  Pt  Pt1       1.0  0.40800  0.11800  0.00000  1.0000
  Pt  Pt2       1.0  0.90800  0.38200  0.00000  1.0000
  Pt  Pt3       1.0  0.09190  0.61800  0.00000  1.0000
  Pt  Pt4       1.0  0.59200  0.88200  0.00000  1.0000
  Pt  Pt5       1.0  0.50000  0.00000  0.50000  1.0000
  Pt  Pt6       1.0  0.09420  0.07900  0.50000  1.0000
  Pt  Pt7       1.0  0.71500  0.16800  0.50000  1.0000
  Pt  Pt8       1.0  0.21500  0.33200  0.50000  1.0000
  Pt  Pt9       1.0  0.59400  0.42100  0.50000  1.0000
  Pt  Pt10      1.0  0.00000  0.50000  0.50000  1.0000
  Pt  Pt11      1.0  0.40600  0.57900  0.50000  1.0000
  Pt  Pt12      1.0  0.78500  0.66800  0.50000  1.0000
  Pt  Pt13      1.0  0.28500  0.83200  0.50000  1.0000
  Pt  Pt14      1.0  0.90600  0.92100  0.50000  1.0000
  Sc  Sc1       1.0  0.78600  0.03890  0.00000  1.0000
  Sc  Sc2       1.0  0.02560  0.20900  0.00000  1.0000
  Sc  Sc3       1.0  0.52600  0.29100  0.00000  1.0000
  Sc  Sc4       1.0  0.28600  0.46100  0.00000  1.0000
  Sc  Sc5       1.0  0.71400  0.53900  0.00000  1.0000
  Sc  Sc6       1.0  0.47400  0.70900  0.00000  1.0000
  Sc  Sc7       1.0  0.97400  0.79100  0.00000  1.0000
  Sc  Sc8       1.0  0.21400  0.96100  0.00000  1.0000
  Si  Si1       1.0  0.33900  0.19300  0.50000  1.0000
  Si  Si2       1.0  0.83900  0.30700  0.50000  1.0000
  Si  Si3       1.0  0.16100  0.69300  0.50000  1.0000
  Si  Si4       1.0  0.66100  0.80700  0.50000  1.0000
