data_image0
_chemical_formula_structural       C8Cl4K4N8Pt2
_chemical_formula_sum              "C8 Cl4 K4 N8 Pt2"
_cell_length_a       7.09315
_cell_length_b       8.91723
_cell_length_c       8.45049
_cell_angle_alpha    90
_cell_angle_beta     106.247
_cell_angle_gamma    90

_space_group_name_H-M_alt    "P 1"
_space_group_IT_number       1

loop_
  _space_group_symop_operation_xyz
  'x, y, z'

loop_
  _atom_site_type_symbol
  _atom_site_label
  _atom_site_symmetry_multiplicity
  _atom_site_fract_x
  _atom_site_fract_y
  _atom_site_fract_z
  _atom_site_occupancy
  C   C1        1.0  0.79500  0.03970  0.11800  1.0000
  C   C2        1.0  0.19500  0.94900  0.21600  1.0000
  C   C3        1.0  0.80500  0.44900  0.28400  1.0000
  C   C4        1.0  0.20500  0.54000  0.38200  1.0000
  C   C5        1.0  0.79500  0.46000  0.61800  1.0000
  C   C6        1.0  0.19500  0.55100  0.71600  1.0000
  C   C7        1.0  0.80500  0.05080  0.78400  1.0000
  C   C8        1.0  0.20500  0.96000  0.88200  1.0000
  Cl  Cl1       1.0  0.10700  0.25300  0.03430  1.0000
  Cl  Cl2       1.0  0.89300  0.75300  0.46600  1.0000
  Cl  Cl3       1.0  0.10700  0.24700  0.53400  1.0000
  Cl  Cl4       1.0  0.89300  0.74700  0.96600  1.0000
  K   K1        1.0  0.51800  0.72800  0.12600  1.0000
  K   K2        1.0  0.48200  0.22800  0.37400  1.0000
  K   K3        1.0  0.51800  0.77200  0.62600  1.0000
  K   K4        1.0  0.48200  0.27200  0.87400  1.0000
  N   N1        1.0  0.68400  0.42200  0.16100  1.0000
  N   N2        1.0  0.66900  0.06010  0.18100  1.0000
  N   N3        1.0  0.33100  0.56000  0.31900  1.0000
  N   N4        1.0  0.31600  0.92200  0.33900  1.0000
  N   N5        1.0  0.68400  0.07790  0.66100  1.0000
  N   N6        1.0  0.66900  0.44000  0.68100  1.0000
  N   N7        1.0  0.33100  0.94000  0.81900  1.0000
  N   N8        1.0  0.31600  0.57800  0.83900  1.0000
  Pt  Pt1       1.0  0.00000  0.00000  0.00000  1.0000
  Pt  Pt2       1.0  0.00000  0.50000  0.50000  1.0000
