data_image0
_chemical_formula_structural       Al2As6Cl8S10
_chemical_formula_sum              "Al2 As6 Cl8 S10"
_cell_length_a       6.44894
_cell_length_b       9.94642
_cell_length_c       11.6853
_cell_angle_alpha    90
_cell_angle_beta     104.223
_cell_angle_gamma    90

_space_group_name_H-M_alt    "P 1"
_space_group_IT_number       1

loop_
  _space_group_symop_operation_xyz
  'x, y, z'

loop_
  _atom_site_type_symbol
  _atom_site_label
  _atom_site_symmetry_multiplicity
  _atom_site_fract_x
  _atom_site_fract_y
  _atom_site_fract_z
  _atom_site_occupancy
  Al  Al1       1.0  0.48000  0.75000  0.28000  1.0000
  Al  Al2       1.0  0.52000  0.25000  0.72000  1.0000
  As  As1       1.0  0.02750  0.25000  0.04780  1.0000
  As  As2       1.0  0.05240  0.07860  0.33300  1.0000
  As  As3       1.0  0.05240  0.42100  0.33300  1.0000
  As  As4       1.0  0.94800  0.57900  0.66700  1.0000
  As  As5       1.0  0.94800  0.92100  0.66700  1.0000
  As  As6       1.0  0.97300  0.75000  0.95200  1.0000
  Cl  Cl1       1.0  0.51900  0.75000  0.10200  1.0000
  Cl  Cl2       1.0  0.14600  0.75000  0.27800  1.0000
  Cl  Cl3       1.0  0.62100  0.57100  0.37400  1.0000
  Cl  Cl4       1.0  0.62100  0.92900  0.37400  1.0000
  Cl  Cl5       1.0  0.37900  0.07120  0.62600  1.0000
  Cl  Cl6       1.0  0.37900  0.42900  0.62600  1.0000
  Cl  Cl7       1.0  0.85400  0.25000  0.72200  1.0000
  Cl  Cl8       1.0  0.48100  0.25000  0.89800  1.0000
  S   S1        1.0  0.92300  0.06690  0.13500  1.0000
  S   S2        1.0  0.92300  0.43300  0.13500  1.0000
  S   S3        1.0  0.37600  0.25000  0.16700  1.0000
  S   S4        1.0  0.32200  0.25000  0.32800  1.0000
  S   S5        1.0  0.87900  0.25000  0.40000  1.0000
  S   S6        1.0  0.12100  0.75000  0.60000  1.0000
  S   S7        1.0  0.67800  0.75000  0.67200  1.0000
  S   S8        1.0  0.62400  0.75000  0.83300  1.0000
  S   S9        1.0  0.07720  0.56700  0.86500  1.0000
  S   S10       1.0  0.07720  0.93300  0.86500  1.0000
