data_image0
_chemical_formula_structural       K8Na4O12Te2
_chemical_formula_sum              "K8 Na4 O12 Te2"
_cell_length_a       7.25802
_cell_length_b       9.82176
_cell_length_c       6.65009
_cell_angle_alpha    90
_cell_angle_beta     122.802
_cell_angle_gamma    90

_space_group_name_H-M_alt    "P 1"
_space_group_IT_number       1

loop_
  _space_group_symop_operation_xyz
  'x, y, z'

loop_
  _atom_site_type_symbol
  _atom_site_label
  _atom_site_symmetry_multiplicity
  _atom_site_fract_x
  _atom_site_fract_y
  _atom_site_fract_z
  _atom_site_occupancy
  K   K1        1.0  0.74500  0.01410  0.31600  1.0000
  K   K2        1.0  0.24500  0.48600  0.31600  1.0000
  K   K3        1.0  0.51400  0.82200  0.50000  1.0000
  K   K4        1.0  0.01370  0.67800  0.50000  1.0000
  K   K5        1.0  0.98600  0.32200  0.50000  1.0000
  K   K6        1.0  0.48600  0.17800  0.50000  1.0000
  K   K7        1.0  0.75500  0.51400  0.68400  1.0000
  K   K8        1.0  0.25500  0.98600  0.68400  1.0000
  Na  Na1       1.0  0.72300  0.76000  0.01700  1.0000
  Na  Na2       1.0  0.22300  0.74000  0.01700  1.0000
  Na  Na3       1.0  0.77700  0.26000  0.98300  1.0000
  Na  Na4       1.0  0.27700  0.24000  0.98300  1.0000
  O   O1        1.0  0.81400  0.49200  0.11100  1.0000
  O   O2        1.0  0.31400  0.00752  0.11100  1.0000
  O   O3        1.0  0.56600  0.65400  0.22400  1.0000
  O   O4        1.0  0.06640  0.84600  0.22400  1.0000
  O   O5        1.0  0.55600  0.36900  0.25600  1.0000
  O   O6        1.0  0.05590  0.13100  0.25600  1.0000
  O   O7        1.0  0.94400  0.86900  0.74400  1.0000
  O   O8        1.0  0.44400  0.63100  0.74400  1.0000
  O   O9        1.0  0.93400  0.15400  0.77600  1.0000
  O   O10       1.0  0.43400  0.34600  0.77600  1.0000
  O   O11       1.0  0.68600  0.99200  0.88900  1.0000
  O   O12       1.0  0.18600  0.50800  0.88900  1.0000
  Te  Te1       1.0  0.00000  0.00000  0.00000  1.0000
  Te  Te2       1.0  0.50000  0.50000  0.00000  1.0000
