data_image0
_chemical_formula_structural       Ca10In4Sb12
_chemical_formula_sum              "Ca10 In4 Sb12"
_cell_length_a       14.3342
_cell_length_b       12.1499
_cell_length_c       4.60048
_cell_angle_alpha    90
_cell_angle_beta     90
_cell_angle_gamma    90

_space_group_name_H-M_alt    "P 1"
_space_group_IT_number       1

loop_
  _space_group_symop_operation_xyz
  'x, y, z'

loop_
  _atom_site_type_symbol
  _atom_site_label
  _atom_site_symmetry_multiplicity
  _atom_site_fract_x
  _atom_site_fract_y
  _atom_site_fract_z
  _atom_site_occupancy
  Ca  Ca1       1.0  0.50000  0.00000  0.50000  1.0000
  Ca  Ca2       1.0  0.74700  0.09020  0.50000  1.0000
  Ca  Ca3       1.0  0.01560  0.17600  0.50000  1.0000
  Ca  Ca4       1.0  0.51600  0.32400  0.50000  1.0000
  Ca  Ca5       1.0  0.24700  0.41000  0.50000  1.0000
  Ca  Ca6       1.0  0.00000  0.50000  0.50000  1.0000
  Ca  Ca7       1.0  0.75300  0.59000  0.50000  1.0000
  Ca  Ca8       1.0  0.48400  0.67600  0.50000  1.0000
  Ca  Ca9       1.0  0.98400  0.82400  0.50000  1.0000
  Ca  Ca10      1.0  0.25300  0.91000  0.50000  1.0000
  In  In1       1.0  0.21300  0.16300  0.00000  1.0000
  In  In2       1.0  0.71300  0.33700  0.00000  1.0000
  In  In3       1.0  0.28700  0.66300  0.00000  1.0000
  In  In4       1.0  0.78700  0.83700  0.00000  1.0000
  Sb  Sb1       1.0  0.90400  0.03980  0.00000  1.0000
  Sb  Sb2       1.0  0.59200  0.15000  0.00000  1.0000
  Sb  Sb3       1.0  0.09190  0.35000  0.00000  1.0000
  Sb  Sb4       1.0  0.40400  0.46000  0.00000  1.0000
  Sb  Sb5       1.0  0.59600  0.54000  0.00000  1.0000
  Sb  Sb6       1.0  0.90800  0.65000  0.00000  1.0000
  Sb  Sb7       1.0  0.40800  0.85000  0.00000  1.0000
  Sb  Sb8       1.0  0.09570  0.96000  0.00000  1.0000
  Sb  Sb9       1.0  0.33100  0.16300  0.50000  1.0000
  Sb  Sb10      1.0  0.83100  0.33700  0.50000  1.0000
  Sb  Sb11      1.0  0.16900  0.66300  0.50000  1.0000
  Sb  Sb12      1.0  0.66900  0.83700  0.50000  1.0000
