data_image0
_chemical_formula_structural       Al2Cs6Ge4O14
_chemical_formula_sum              "Al2 Cs6 Ge4 O14"
_cell_length_a       7.60625
_cell_length_b       7.93095
_cell_length_c       9.79622
_cell_angle_alpha    108.138
_cell_angle_beta     106.903
_cell_angle_gamma    103.934

_space_group_name_H-M_alt    "P 1"
_space_group_IT_number       1

loop_
  _space_group_symop_operation_xyz
  'x, y, z'

loop_
  _atom_site_type_symbol
  _atom_site_label
  _atom_site_symmetry_multiplicity
  _atom_site_fract_x
  _atom_site_fract_y
  _atom_site_fract_z
  _atom_site_occupancy
  Al  Al1       1.0  0.80900  0.55900  0.11900  1.0000
  Al  Al2       1.0  0.19100  0.44100  0.88100  1.0000
  Cs  Cs1       1.0  0.76200  0.01160  0.02330  1.0000
  Cs  Cs2       1.0  0.68100  0.40900  0.39300  1.0000
  Cs  Cs3       1.0  0.21200  0.98400  0.39300  1.0000
  Cs  Cs4       1.0  0.78800  0.01550  0.60700  1.0000
  Cs  Cs5       1.0  0.31900  0.59100  0.60700  1.0000
  Cs  Cs6       1.0  0.23800  0.98800  0.97700  1.0000
  Ge  Ge1       1.0  0.17600  0.43500  0.20100  1.0000
  Ge  Ge2       1.0  0.52500  0.76600  0.20100  1.0000
  Ge  Ge3       1.0  0.47500  0.23400  0.79900  1.0000
  Ge  Ge4       1.0  0.82400  0.56500  0.79900  1.0000
  O   O1        1.0  0.60700  0.34200  0.00588  1.0000
  O   O2        1.0  0.89900  0.66400  0.00588  1.0000
  O   O3        1.0  0.99600  0.52100  0.24900  1.0000
  O   O4        1.0  0.75200  0.72800  0.24900  1.0000
  O   O5        1.0  0.56000  0.00335  0.27500  1.0000
  O   O6        1.0  0.21600  0.27200  0.27500  1.0000
  O   O7        1.0  0.39800  0.64800  0.29600  1.0000
  O   O8        1.0  0.60200  0.35200  0.70400  1.0000
  O   O9        1.0  0.78400  0.72800  0.72500  1.0000
  O   O10       1.0  0.44000  0.99700  0.72500  1.0000
  O   O11       1.0  0.24800  0.27200  0.75100  1.0000
  O   O12       1.0  0.00389  0.47900  0.75100  1.0000
  O   O13       1.0  0.10100  0.33600  0.99400  1.0000
  O   O14       1.0  0.39300  0.65800  0.99400  1.0000
