data_image0
_chemical_formula_structural       Bi12In4Sr10
_chemical_formula_sum              "Bi12 In4 Sr10"
_cell_length_a       24.7541
_cell_length_b       7.90771
_cell_length_c       4.79039
_cell_angle_alpha    90
_cell_angle_beta     90
_cell_angle_gamma    90

_space_group_name_H-M_alt    "P 1"
_space_group_IT_number       1

loop_
  _space_group_symop_operation_xyz
  'x, y, z'

loop_
  _atom_site_type_symbol
  _atom_site_label
  _atom_site_symmetry_multiplicity
  _atom_site_fract_x
  _atom_site_fract_y
  _atom_site_fract_z
  _atom_site_occupancy
  Bi  Bi1       1.0  0.63600  0.04730  0.00000  1.0000
  Bi  Bi2       1.0  0.13600  0.45300  0.00000  1.0000
  Bi  Bi3       1.0  0.86400  0.54700  0.00000  1.0000
  Bi  Bi4       1.0  0.36400  0.95300  0.00000  1.0000
  Bi  Bi5       1.0  0.81100  0.01210  0.50000  1.0000
  Bi  Bi6       1.0  0.99900  0.19800  0.50000  1.0000
  Bi  Bi7       1.0  0.49900  0.30200  0.50000  1.0000
  Bi  Bi8       1.0  0.31100  0.48800  0.50000  1.0000
  Bi  Bi9       1.0  0.68900  0.51200  0.50000  1.0000
  Bi  Bi10      1.0  0.50100  0.69800  0.50000  1.0000
  Bi  Bi11      1.0  0.00124  0.80200  0.50000  1.0000
  Bi  Bi12      1.0  0.18900  0.98800  0.50000  1.0000
  In  In1       1.0  0.38000  0.17400  0.50000  1.0000
  In  In2       1.0  0.88000  0.32600  0.50000  1.0000
  In  In3       1.0  0.12000  0.67400  0.50000  1.0000
  In  In4       1.0  0.62000  0.82600  0.50000  1.0000
  Sr  Sr1       1.0  0.50000  0.00000  0.00000  1.0000
  Sr  Sr2       1.0  0.08850  0.03010  0.00000  1.0000
  Sr  Sr3       1.0  0.25600  0.22500  0.00000  1.0000
  Sr  Sr4       1.0  0.75600  0.27500  0.00000  1.0000
  Sr  Sr5       1.0  0.58900  0.47000  0.00000  1.0000
  Sr  Sr6       1.0  0.00000  0.50000  0.00000  1.0000
  Sr  Sr7       1.0  0.41100  0.53000  0.00000  1.0000
  Sr  Sr8       1.0  0.24400  0.72500  0.00000  1.0000
  Sr  Sr9       1.0  0.74400  0.77500  0.00000  1.0000
  Sr  Sr10      1.0  0.91100  0.97000  0.00000  1.0000
