data_image0
_chemical_formula_structural       Mn2Nb4O16Zn4
_chemical_formula_sum              "Mn2 Nb4 O16 Zn4"
_cell_length_a       5.25312
_cell_length_b       5.95564
_cell_length_c       10.1054
_cell_angle_alpha    107.138
_cell_angle_beta     90.2199
_cell_angle_gamma    90

_space_group_name_H-M_alt    "P 1"
_space_group_IT_number       1

loop_
  _space_group_symop_operation_xyz
  'x, y, z'

loop_
  _atom_site_type_symbol
  _atom_site_label
  _atom_site_symmetry_multiplicity
  _atom_site_fract_x
  _atom_site_fract_y
  _atom_site_fract_z
  _atom_site_occupancy
  Mn  Mn1       1.0  0.25000  0.34100  0.00000  1.0000
  Mn  Mn2       1.0  0.75000  0.65900  0.00000  1.0000
  Nb  Nb1       1.0  0.23900  0.95300  0.23300  1.0000
  Nb  Nb2       1.0  0.73900  0.28000  0.23300  1.0000
  Nb  Nb3       1.0  0.76100  0.04660  0.76700  1.0000
  Nb  Nb4       1.0  0.26100  0.72000  0.76700  1.0000
  O   O1        1.0  0.59300  0.43700  0.12000  1.0000
  O   O2        1.0  0.09300  0.68200  0.12000  1.0000
  O   O3        1.0  0.07250  0.18200  0.14100  1.0000
  O   O4        1.0  0.57300  0.95900  0.14100  1.0000
  O   O5        1.0  0.44300  0.28500  0.36400  1.0000
  O   O6        1.0  0.94300  0.07900  0.36400  1.0000
  O   O7        1.0  0.87300  0.55000  0.38700  1.0000
  O   O8        1.0  0.37300  0.83700  0.38700  1.0000
  O   O9        1.0  0.12700  0.45000  0.61300  1.0000
  O   O10       1.0  0.62700  0.16300  0.61300  1.0000
  O   O11       1.0  0.05680  0.92100  0.63600  1.0000
  O   O12       1.0  0.55700  0.71500  0.63600  1.0000
  O   O13       1.0  0.42700  0.04080  0.85900  1.0000
  O   O14       1.0  0.92700  0.81800  0.85900  1.0000
  O   O15       1.0  0.90700  0.31800  0.88000  1.0000
  O   O16       1.0  0.40700  0.56300  0.88000  1.0000
  Zn  Zn1       1.0  0.24100  0.56900  0.44300  1.0000
  Zn  Zn2       1.0  0.74100  0.87400  0.44300  1.0000
  Zn  Zn3       1.0  0.75900  0.43100  0.55700  1.0000
  Zn  Zn4       1.0  0.25900  0.12600  0.55700  1.0000
