data_image0
_chemical_formula_structural       Cl18K2W6
_chemical_formula_sum              "Cl18 K2 W6"
_cell_length_a       9.39077
_cell_length_b       9.38995
_cell_length_c       8.39309
_cell_angle_alpha    90.0008
_cell_angle_beta     89.9999
_cell_angle_gamma    119.997

_space_group_name_H-M_alt    "P 1"
_space_group_IT_number       1

loop_
  _space_group_symop_operation_xyz
  'x, y, z'

loop_
  _atom_site_type_symbol
  _atom_site_label
  _atom_site_symmetry_multiplicity
  _atom_site_fract_x
  _atom_site_fract_y
  _atom_site_fract_z
  _atom_site_occupancy
  Cl  Cl1       1.0  0.42400  0.21200  0.00000  1.0000
  Cl  Cl2       1.0  0.78800  0.21200  0.00000  1.0000
  Cl  Cl3       1.0  0.21200  0.42400  0.00000  1.0000
  Cl  Cl4       1.0  0.78800  0.57600  0.00000  1.0000
  Cl  Cl5       1.0  0.57600  0.78800  0.00000  1.0000
  Cl  Cl6       1.0  0.21200  0.78800  0.00000  1.0000
  Cl  Cl7       1.0  0.39600  0.39600  0.30800  1.0000
  Cl  Cl8       1.0  0.60400  0.00000  0.30800  1.0000
  Cl  Cl9       1.0  0.00000  0.60400  0.30800  1.0000
  Cl  Cl10      1.0  0.00000  0.20500  0.31800  1.0000
  Cl  Cl11      1.0  0.79500  0.79600  0.31800  1.0000
  Cl  Cl12      1.0  0.20500  0.00000  0.31800  1.0000
  Cl  Cl13      1.0  0.79600  0.00000  0.68200  1.0000
  Cl  Cl14      1.0  0.20400  0.20400  0.68200  1.0000
  Cl  Cl15      1.0  0.00000  0.79500  0.68200  1.0000
  Cl  Cl16      1.0  0.00000  0.39600  0.69200  1.0000
  Cl  Cl17      1.0  0.39600  0.00000  0.69200  1.0000
  Cl  Cl18      1.0  0.60400  0.60400  0.69200  1.0000
  K   K1        1.0  0.33300  0.66700  0.50000  1.0000
  K   K2        1.0  0.66700  0.33300  0.50000  1.0000
  W   W1        1.0  0.18200  0.18200  0.12800  1.0000
  W   W2        1.0  0.81800  0.00000  0.12800  1.0000
  W   W3        1.0  1.00000  0.81800  0.12800  1.0000
  W   W4        1.0  0.00000  0.18300  0.87200  1.0000
  W   W5        1.0  0.18200  0.00000  0.87200  1.0000
  W   W6        1.0  0.81800  0.81800  0.87200  1.0000
