data_image0
_chemical_formula_structural       In4Sb12Sr10
_chemical_formula_sum              "In4 Sb12 Sr10"
_cell_length_a       14.9086
_cell_length_b       12.799
_cell_length_c       4.71685
_cell_angle_alpha    90
_cell_angle_beta     90
_cell_angle_gamma    90

_space_group_name_H-M_alt    "P 1"
_space_group_IT_number       1

loop_
  _space_group_symop_operation_xyz
  'x, y, z'

loop_
  _atom_site_type_symbol
  _atom_site_label
  _atom_site_symmetry_multiplicity
  _atom_site_fract_x
  _atom_site_fract_y
  _atom_site_fract_z
  _atom_site_occupancy
  In  In1       1.0  0.21400  0.17000  0.00000  1.0000
  In  In2       1.0  0.71400  0.33000  0.00000  1.0000
  In  In3       1.0  0.28600  0.67000  0.00000  1.0000
  In  In4       1.0  0.78600  0.83000  0.00000  1.0000
  Sb  Sb1       1.0  0.90500  0.02510  0.00000  1.0000
  Sb  Sb2       1.0  0.59400  0.15300  0.00000  1.0000
  Sb  Sb3       1.0  0.09430  0.34700  0.00000  1.0000
  Sb  Sb4       1.0  0.40500  0.47500  0.00000  1.0000
  Sb  Sb5       1.0  0.59500  0.52500  0.00000  1.0000
  Sb  Sb6       1.0  0.90600  0.65300  0.00000  1.0000
  Sb  Sb7       1.0  0.40600  0.84700  0.00000  1.0000
  Sb  Sb8       1.0  0.09500  0.97500  0.00000  1.0000
  Sb  Sb9       1.0  0.32500  0.16400  0.50000  1.0000
  Sb  Sb10      1.0  0.82500  0.33600  0.50000  1.0000
  Sb  Sb11      1.0  0.17500  0.66400  0.50000  1.0000
  Sb  Sb12      1.0  0.67500  0.83600  0.50000  1.0000
  Sr  Sr1       1.0  0.50000  0.00000  0.50000  1.0000
  Sr  Sr2       1.0  0.75000  0.08850  0.50000  1.0000
  Sr  Sr3       1.0  0.01750  0.17300  0.50000  1.0000
  Sr  Sr4       1.0  0.51700  0.32700  0.50000  1.0000
  Sr  Sr5       1.0  0.25000  0.41200  0.50000  1.0000
  Sr  Sr6       1.0  0.00000  0.50000  0.50000  1.0000
  Sr  Sr7       1.0  0.75000  0.58800  0.50000  1.0000
  Sr  Sr8       1.0  0.48300  0.67300  0.50000  1.0000
  Sr  Sr9       1.0  0.98300  0.82700  0.50000  1.0000
  Sr  Sr10      1.0  0.25000  0.91200  0.50000  1.0000
