data_image0
_chemical_formula_structural       La2O18V6
_chemical_formula_sum              "La2 O18 V6"
_cell_length_a       4.87796
_cell_length_b       9.52102
_cell_length_c       7.43233
_cell_angle_alpha    90
_cell_angle_beta     101.051
_cell_angle_gamma    90

_space_group_name_H-M_alt    "P 1"
_space_group_IT_number       1

loop_
  _space_group_symop_operation_xyz
  'x, y, z'

loop_
  _atom_site_type_symbol
  _atom_site_label
  _atom_site_symmetry_multiplicity
  _atom_site_fract_x
  _atom_site_fract_y
  _atom_site_fract_z
  _atom_site_occupancy
  La  La1       1.0  0.08480  0.25000  0.00524  1.0000
  La  La2       1.0  0.91500  0.75000  0.99500  1.0000
  O   O1        1.0  0.62600  0.25000  0.12800  1.0000
  O   O2        1.0  0.21800  0.01060  0.14100  1.0000
  O   O3        1.0  0.21800  0.48900  0.14100  1.0000
  O   O4        1.0  0.72800  0.61100  0.21700  1.0000
  O   O5        1.0  0.72800  0.88900  0.21700  1.0000
  O   O6        1.0  0.27800  0.75000  0.27500  1.0000
  O   O7        1.0  0.09460  0.25000  0.36100  1.0000
  O   O8        1.0  0.62800  0.08870  0.44200  1.0000
  O   O9        1.0  0.62800  0.41100  0.44200  1.0000
  O   O10       1.0  0.37200  0.58900  0.55800  1.0000
  O   O11       1.0  0.37200  0.91100  0.55800  1.0000
  O   O12       1.0  0.90500  0.75000  0.63900  1.0000
  O   O13       1.0  0.72200  0.25000  0.72500  1.0000
  O   O14       1.0  0.27200  0.11100  0.78300  1.0000
  O   O15       1.0  0.27200  0.38900  0.78300  1.0000
  O   O16       1.0  0.78200  0.51100  0.85900  1.0000
  O   O17       1.0  0.78200  0.98900  0.85900  1.0000
  O   O18       1.0  0.37400  0.75000  0.87200  1.0000
  V   V1        1.0  0.44700  0.57200  0.30200  1.0000
  V   V2        1.0  0.44700  0.92800  0.30200  1.0000
  V   V3        1.0  0.75300  0.25000  0.35700  1.0000
  V   V4        1.0  0.24700  0.75000  0.64300  1.0000
  V   V5        1.0  0.55300  0.07250  0.69800  1.0000
  V   V6        1.0  0.55300  0.42800  0.69800  1.0000
