data_image0
_chemical_formula_structural       Ba2Co8O14Tm2
_chemical_formula_sum              "Ba2 Co8 O14 Tm2"
_cell_length_a       6.27212
_cell_length_b       6.27214
_cell_length_c       10.1992
_cell_angle_alpha    90.0942
_cell_angle_beta     90.0949
_cell_angle_gamma    119.524

_space_group_name_H-M_alt    "P 1"
_space_group_IT_number       1

loop_
  _space_group_symop_operation_xyz
  'x, y, z'

loop_
  _atom_site_type_symbol
  _atom_site_label
  _atom_site_symmetry_multiplicity
  _atom_site_fract_x
  _atom_site_fract_y
  _atom_site_fract_z
  _atom_site_occupancy
  Ba  Ba1       1.0  0.33700  0.66700  0.00000  1.0000
  Ba  Ba2       1.0  0.66700  0.33700  0.50000  1.0000
  Co  Co1       1.0  0.84400  0.66200  0.18700  1.0000
  Co  Co2       1.0  0.34100  0.19100  0.18700  1.0000
  Co  Co3       1.0  0.81300  0.15700  0.18900  1.0000
  Co  Co4       1.0  0.99600  0.00354  0.44500  1.0000
  Co  Co5       1.0  0.66200  0.84400  0.68700  1.0000
  Co  Co6       1.0  0.19100  0.34100  0.68700  1.0000
  Co  Co7       1.0  0.15700  0.81300  0.68900  1.0000
  Co  Co8       1.0  0.00355  0.99600  0.94500  1.0000
  O   O1        1.0  0.89700  0.66000  0.00000  1.0000
  O   O2        1.0  0.77500  0.10700  0.00637  1.0000
  O   O3        1.0  0.48600  0.99400  0.24700  1.0000
  O   O4        1.0  0.99900  0.00652  0.24900  1.0000
  O   O5        1.0  0.51700  0.52100  0.25500  1.0000
  O   O6        1.0  0.99100  0.46900  0.25900  1.0000
  O   O7        1.0  0.23100  0.33600  0.49900  1.0000
  O   O8        1.0  0.66000  0.89700  0.50000  1.0000
  O   O9        1.0  0.10700  0.77500  0.50600  1.0000
  O   O10       1.0  0.99400  0.48600  0.74700  1.0000
  O   O11       1.0  0.00653  0.99900  0.74900  1.0000
  O   O12       1.0  0.52100  0.51700  0.75500  1.0000
  O   O13       1.0  0.46900  0.99100  0.75900  1.0000
  O   O14       1.0  0.33600  0.23100  0.99900  1.0000
  Tm  Tm1       1.0  0.33500  0.66500  0.37900  1.0000
  Tm  Tm2       1.0  0.66500  0.33500  0.87900  1.0000
