data_image0
_chemical_formula_structural       Cd4K6Se13Sn3
_chemical_formula_sum              "Cd4 K6 Se13 Sn3"
_cell_length_a       10.2234
_cell_length_b       10.2234
_cell_length_c       10.2234
_cell_angle_alpha    94.7722
_cell_angle_beta     94.7722
_cell_angle_gamma    94.7722

_space_group_name_H-M_alt    "P 1"
_space_group_IT_number       1

loop_
  _space_group_symop_operation_xyz
  'x, y, z'

loop_
  _atom_site_type_symbol
  _atom_site_label
  _atom_site_symmetry_multiplicity
  _atom_site_fract_x
  _atom_site_fract_y
  _atom_site_fract_z
  _atom_site_occupancy
  Cd  Cd1       1.0  0.52700  0.52700  0.52700  1.0000
  Cd  Cd2       1.0  0.93300  0.63500  0.63500  1.0000
  Cd  Cd3       1.0  0.63500  0.93300  0.63500  1.0000
  Cd  Cd4       1.0  0.63500  0.63500  0.93300  1.0000
  K   K1        1.0  0.57600  0.00355  0.00355  1.0000
  K   K2        1.0  0.00355  0.57600  0.00355  1.0000
  K   K3        1.0  0.79200  0.36000  0.36000  1.0000
  K   K4        1.0  0.36000  0.79200  0.36000  1.0000
  K   K5        1.0  0.00355  0.00355  0.57600  1.0000
  K   K6        1.0  0.36000  0.36000  0.79200  1.0000
  Se  Se1       1.0  0.81400  0.81400  0.06460  1.0000
  Se  Se2       1.0  0.56900  0.56900  0.27600  1.0000
  Se  Se3       1.0  0.97800  0.68400  0.38800  1.0000
  Se  Se4       1.0  0.68400  0.97800  0.38800  1.0000
  Se  Se5       1.0  0.56900  0.27600  0.56900  1.0000
  Se  Se6       1.0  0.27600  0.56900  0.56900  1.0000
  Se  Se7       1.0  0.97800  0.38800  0.68400  1.0000
  Se  Se8       1.0  0.38800  0.97800  0.68400  1.0000
  Se  Se9       1.0  0.68800  0.68800  0.68800  1.0000
  Se  Se10      1.0  0.81400  0.06460  0.81400  1.0000
  Se  Se11      1.0  0.06460  0.81400  0.81400  1.0000
  Se  Se12      1.0  0.68400  0.38800  0.97800  1.0000
  Se  Se13      1.0  0.38800  0.68400  0.97800  1.0000
  Sn  Sn1       1.0  0.75700  0.75700  0.29200  1.0000
  Sn  Sn2       1.0  0.75700  0.29200  0.75700  1.0000
  Sn  Sn3       1.0  0.29200  0.75700  0.75700  1.0000
