data_image0
_chemical_formula_structural       B2O16P4Rb2Zn2
_chemical_formula_sum              "B2 O16 P4 Rb2 Zn2"
_cell_length_a       7.36949
_cell_length_b       7.54457
_cell_length_c       7.78659
_cell_angle_alpha    119.003
_cell_angle_beta     101.626
_cell_angle_gamma    103.551

_space_group_name_H-M_alt    "P 1"
_space_group_IT_number       1

loop_
  _space_group_symop_operation_xyz
  'x, y, z'

loop_
  _atom_site_type_symbol
  _atom_site_label
  _atom_site_symmetry_multiplicity
  _atom_site_fract_x
  _atom_site_fract_y
  _atom_site_fract_z
  _atom_site_occupancy
  B   B1        1.0  0.30300  0.08390  0.07330  1.0000
  B   B2        1.0  0.69700  0.91600  0.92700  1.0000
  O   O1        1.0  0.75000  0.41700  0.01030  1.0000
  O   O2        1.0  0.45600  0.25900  0.08000  1.0000
  O   O3        1.0  0.83100  0.09580  0.14400  1.0000
  O   O4        1.0  0.41200  0.99900  0.17500  1.0000
  O   O5        1.0  0.20000  0.20000  0.20400  1.0000
  O   O6        1.0  0.02730  0.90400  0.25400  1.0000
  O   O7        1.0  0.59300  0.81800  0.28700  1.0000
  O   O8        1.0  0.91600  0.68800  0.49700  1.0000
  O   O9        1.0  0.08430  0.31200  0.50300  1.0000
  O   O10       1.0  0.40700  0.18200  0.71300  1.0000
  O   O11       1.0  0.97300  0.09590  0.74600  1.0000
  O   O12       1.0  0.80000  0.80000  0.79600  1.0000
  O   O13       1.0  0.58800  0.00102  0.82500  1.0000
  O   O14       1.0  0.16900  0.90400  0.85600  1.0000
  O   O15       1.0  0.54400  0.74100  0.92000  1.0000
  O   O16       1.0  0.25000  0.58300  0.99000  1.0000
  P   P1        1.0  0.44600  0.78000  0.09040  1.0000
  P   P2        1.0  0.03530  0.11900  0.27900  1.0000
  P   P3        1.0  0.96500  0.88100  0.72100  1.0000
  P   P4        1.0  0.55400  0.22000  0.91000  1.0000
  Rb  Rb1       1.0  0.27300  0.66000  0.41500  1.0000
  Rb  Rb2       1.0  0.72700  0.34000  0.58500  1.0000
  Zn  Zn1       1.0  0.80500  0.70400  0.25600  1.0000
  Zn  Zn2       1.0  0.19500  0.29600  0.74400  1.0000
