data_image0
_chemical_formula_structural       Ba4Cl2Mn2O14Si4
_chemical_formula_sum              "Ba4 Cl2 Mn2 O14 Si4"
_cell_length_a       8.53701
_cell_length_b       8.53701
_cell_length_c       5.38983
_cell_angle_alpha    90
_cell_angle_beta     90
_cell_angle_gamma    90

_space_group_name_H-M_alt    "P 1"
_space_group_IT_number       1

loop_
  _space_group_symop_operation_xyz
  'x, y, z'

loop_
  _atom_site_type_symbol
  _atom_site_label
  _atom_site_symmetry_multiplicity
  _atom_site_fract_x
  _atom_site_fract_y
  _atom_site_fract_z
  _atom_site_occupancy
  Ba  Ba1       1.0  0.33000  0.17000  0.18300  1.0000
  Ba  Ba2       1.0  0.83000  0.33000  0.18300  1.0000
  Ba  Ba3       1.0  0.17000  0.67000  0.18300  1.0000
  Ba  Ba4       1.0  0.67000  0.83000  0.18300  1.0000
  Cl  Cl1       1.0  0.00000  0.00000  0.32700  1.0000
  Cl  Cl2       1.0  0.50000  0.50000  0.32700  1.0000
  Mn  Mn1       1.0  0.00000  0.00000  0.79700  1.0000
  Mn  Mn2       1.0  0.50000  0.50000  0.79700  1.0000
  O   O1        1.0  0.62900  0.12900  0.40400  1.0000
  O   O2        1.0  0.12900  0.37100  0.40400  1.0000
  O   O3        1.0  0.87100  0.62900  0.40400  1.0000
  O   O4        1.0  0.37100  0.87100  0.40400  1.0000
  O   O5        1.0  0.50000  0.00000  0.81400  1.0000
  O   O6        1.0  0.00000  0.50000  0.81400  1.0000
  O   O7        1.0  0.79200  0.07980  0.84100  1.0000
  O   O8        1.0  0.07980  0.20800  0.84100  1.0000
  O   O9        1.0  0.58000  0.29200  0.84100  1.0000
  O   O10       1.0  0.29200  0.42000  0.84100  1.0000
  O   O11       1.0  0.70800  0.58000  0.84100  1.0000
  O   O12       1.0  0.42000  0.70800  0.84100  1.0000
  O   O13       1.0  0.92000  0.79200  0.84100  1.0000
  O   O14       1.0  0.20800  0.92000  0.84100  1.0000
  Si  Si1       1.0  0.62900  0.12900  0.70100  1.0000
  Si  Si2       1.0  0.12900  0.37100  0.70100  1.0000
  Si  Si3       1.0  0.87100  0.62900  0.70100  1.0000
  Si  Si4       1.0  0.37100  0.87100  0.70100  1.0000
