data_image0
_chemical_formula_structural       Mn6O16P4
_chemical_formula_sum              "Mn6 O16 P4"
_cell_length_a       5.23149
_cell_length_b       6.65151
_cell_length_c       8.91747
_cell_angle_alpha    90
_cell_angle_beta     95.4812
_cell_angle_gamma    90

_space_group_name_H-M_alt    "P 1"
_space_group_IT_number       1

loop_
  _space_group_symop_operation_xyz
  'x, y, z'

loop_
  _atom_site_type_symbol
  _atom_site_label
  _atom_site_symmetry_multiplicity
  _atom_site_fract_x
  _atom_site_fract_y
  _atom_site_fract_z
  _atom_site_occupancy
  Mn  Mn1       1.0  0.50000  0.00000  0.00000  1.0000
  Mn  Mn2       1.0  0.90800  0.34300  0.12500  1.0000
  Mn  Mn3       1.0  0.59200  0.84300  0.37500  1.0000
  Mn  Mn4       1.0  0.00000  0.50000  0.50000  1.0000
  Mn  Mn5       1.0  0.40800  0.15700  0.62500  1.0000
  Mn  Mn6       1.0  0.09160  0.65700  0.87500  1.0000
  O   O1        1.0  0.95000  0.65600  0.09050  1.0000
  O   O2        1.0  0.50400  0.29400  0.13800  1.0000
  O   O3        1.0  0.87400  0.01780  0.13900  1.0000
  O   O4        1.0  0.32800  0.86900  0.18200  1.0000
  O   O5        1.0  0.17200  0.36900  0.31800  1.0000
  O   O6        1.0  0.62600  0.51800  0.36100  1.0000
  O   O7        1.0  0.99600  0.79400  0.36200  1.0000
  O   O8        1.0  0.55000  0.15600  0.41000  1.0000
  O   O9        1.0  0.45000  0.84400  0.59000  1.0000
  O   O10       1.0  0.00447  0.20600  0.63800  1.0000
  O   O11       1.0  0.37400  0.48200  0.63900  1.0000
  O   O12       1.0  0.82800  0.63100  0.68200  1.0000
  O   O13       1.0  0.67200  0.13100  0.81800  1.0000
  O   O14       1.0  0.12600  0.98200  0.86100  1.0000
  O   O15       1.0  0.49600  0.70600  0.86200  1.0000
  O   O16       1.0  0.05020  0.34400  0.91000  1.0000
  P   P1        1.0  0.03770  0.83400  0.19500  1.0000
  P   P2        1.0  0.46200  0.33400  0.30500  1.0000
  P   P3        1.0  0.53800  0.66600  0.69500  1.0000
  P   P4        1.0  0.96200  0.16600  0.80500  1.0000
