data_image0
_chemical_formula_structural       In10S14Tl2
_chemical_formula_sum              "In10 S14 Tl2"
_cell_length_a       9.22197
_cell_length_b       3.93953
_cell_length_c       17.6721
_cell_angle_alpha    90
_cell_angle_beta     102.259
_cell_angle_gamma    90

_space_group_name_H-M_alt    "P 1"
_space_group_IT_number       1

loop_
  _space_group_symop_operation_xyz
  'x, y, z'

loop_
  _atom_site_type_symbol
  _atom_site_label
  _atom_site_symmetry_multiplicity
  _atom_site_fract_x
  _atom_site_fract_y
  _atom_site_fract_z
  _atom_site_occupancy
  In  In1       1.0  0.85500  0.25000  0.04520  1.0000
  In  In2       1.0  0.56600  0.75000  0.11900  1.0000
  In  In3       1.0  0.31900  0.75000  0.18800  1.0000
  In  In4       1.0  0.47600  0.25000  0.39800  1.0000
  In  In5       1.0  0.82800  0.75000  0.46800  1.0000
  In  In6       1.0  0.17200  0.25000  0.53200  1.0000
  In  In7       1.0  0.52400  0.75000  0.60200  1.0000
  In  In8       1.0  0.68100  0.25000  0.81200  1.0000
  In  In9       1.0  0.43400  0.25000  0.88100  1.0000
  In  In10      1.0  0.14500  0.75000  0.95500  1.0000
  S   S1        1.0  0.33500  0.25000  0.00589  1.0000
  S   S2        1.0  0.05730  0.75000  0.08920  1.0000
  S   S3        1.0  0.74400  0.25000  0.17100  1.0000
  S   S4        1.0  0.26300  0.25000  0.27100  1.0000
  S   S5        1.0  0.61400  0.75000  0.34900  1.0000
  S   S6        1.0  0.96400  0.25000  0.41200  1.0000
  S   S7        1.0  0.33100  0.75000  0.46700  1.0000
  S   S8        1.0  0.66900  0.25000  0.53300  1.0000
  S   S9        1.0  0.03600  0.75000  0.58800  1.0000
  S   S10       1.0  0.38600  0.25000  0.65100  1.0000
  S   S11       1.0  0.73700  0.75000  0.72900  1.0000
  S   S12       1.0  0.25600  0.75000  0.82900  1.0000
  S   S13       1.0  0.94300  0.25000  0.91100  1.0000
  S   S14       1.0  0.66500  0.75000  0.99400  1.0000
  Tl  Tl1       1.0  0.97300  0.75000  0.27500  1.0000
  Tl  Tl2       1.0  0.02660  0.25000  0.72500  1.0000
