data_image0
_chemical_formula_structural       Br4O12Pb6Te4
_chemical_formula_sum              "Br4 O12 Pb6 Te4"
_cell_length_a       5.68713
_cell_length_b       8.88154
_cell_length_c       11.0217
_cell_angle_alpha    103.062
_cell_angle_beta     90
_cell_angle_gamma    108.673

_space_group_name_H-M_alt    "P 1"
_space_group_IT_number       1

loop_
  _space_group_symop_operation_xyz
  'x, y, z'

loop_
  _atom_site_type_symbol
  _atom_site_label
  _atom_site_symmetry_multiplicity
  _atom_site_fract_x
  _atom_site_fract_y
  _atom_site_fract_z
  _atom_site_occupancy
  Br  Br1       1.0  0.81900  0.63800  0.09930  1.0000
  Br  Br2       1.0  0.46000  0.92000  0.31000  1.0000
  Br  Br3       1.0  0.54000  0.07970  0.69000  1.0000
  Br  Br4       1.0  0.18100  0.36200  0.90100  1.0000
  O   O1        1.0  0.28500  0.00000  0.00000  1.0000
  O   O2        1.0  0.71500  0.00000  0.00000  1.0000
  O   O3        1.0  0.39900  0.26600  0.18300  1.0000
  O   O4        1.0  0.86700  0.26600  0.18300  1.0000
  O   O5        1.0  0.03090  0.58100  0.38800  1.0000
  O   O6        1.0  0.55000  0.58100  0.38800  1.0000
  O   O7        1.0  0.11000  0.22100  0.41200  1.0000
  O   O8        1.0  0.89000  0.77900  0.58800  1.0000
  O   O9        1.0  0.45000  0.41900  0.61200  1.0000
  O   O10       1.0  0.96900  0.41900  0.61200  1.0000
  O   O11       1.0  0.13300  0.73400  0.81700  1.0000
  O   O12       1.0  0.60100  0.73400  0.81700  1.0000
  Pb  Pb1       1.0  0.02350  0.04700  0.19900  1.0000
  Pb  Pb2       1.0  0.26000  0.52000  0.20600  1.0000
  Pb  Pb3       1.0  0.66400  0.32700  0.39300  1.0000
  Pb  Pb4       1.0  0.33600  0.67300  0.60700  1.0000
  Pb  Pb5       1.0  0.74000  0.48000  0.79400  1.0000
  Pb  Pb6       1.0  0.97700  0.95300  0.80100  1.0000
  Te  Te1       1.0  0.60300  0.20500  0.04990  1.0000
  Te  Te2       1.0  0.87200  0.74400  0.41300  1.0000
  Te  Te3       1.0  0.12800  0.25600  0.58700  1.0000
  Te  Te4       1.0  0.39700  0.79500  0.95000  1.0000
