data_image0
_chemical_formula_structural       As2Cl6F12S6
_chemical_formula_sum              "As2 Cl6 F12 S6"
_cell_length_a       7.45577
_cell_length_b       9.60534
_cell_length_c       7.2307
_cell_angle_alpha    110.799
_cell_angle_beta     114.704
_cell_angle_gamma    81.0317

_space_group_name_H-M_alt    "P 1"
_space_group_IT_number       1

loop_
  _space_group_symop_operation_xyz
  'x, y, z'

loop_
  _atom_site_type_symbol
  _atom_site_label
  _atom_site_symmetry_multiplicity
  _atom_site_fract_x
  _atom_site_fract_y
  _atom_site_fract_z
  _atom_site_occupancy
  As  As1       1.0  0.74100  0.25400  0.04960  1.0000
  As  As2       1.0  0.25900  0.74600  0.95000  1.0000
  Cl  Cl1       1.0  0.85000  0.69800  0.20200  1.0000
  Cl  Cl2       1.0  0.33700  0.19500  0.27400  1.0000
  Cl  Cl3       1.0  0.27700  0.53600  0.34200  1.0000
  Cl  Cl4       1.0  0.72300  0.46400  0.65800  1.0000
  Cl  Cl5       1.0  0.66300  0.80500  0.72600  1.0000
  Cl  Cl6       1.0  0.15000  0.30200  0.79800  1.0000
  F   F1        1.0  0.59200  0.11100  0.00518  1.0000
  F   F2        1.0  0.10000  0.88000  0.04460  1.0000
  F   F3        1.0  0.88800  0.39700  0.08730  1.0000
  F   F4        1.0  0.58300  0.38900  0.14700  1.0000
  F   F5        1.0  0.40300  0.74300  0.21700  1.0000
  F   F6        1.0  0.88800  0.25300  0.31500  1.0000
  F   F7        1.0  0.11200  0.74700  0.68500  1.0000
  F   F8        1.0  0.59700  0.25700  0.78300  1.0000
  F   F9        1.0  0.41700  0.61100  0.85300  1.0000
  F   F10       1.0  0.11200  0.60300  0.91300  1.0000
  F   F11       1.0  0.90000  0.12000  0.95500  1.0000
  F   F12       1.0  0.40800  0.88900  0.99500  1.0000
  S   S1        1.0  0.84200  0.92600  0.26000  1.0000
  S   S2        1.0  0.31400  0.38700  0.48300  1.0000
  S   S3        1.0  0.77000  0.02530  0.49500  1.0000
  S   S4        1.0  0.23000  0.97500  0.50500  1.0000
  S   S5        1.0  0.68600  0.61300  0.51700  1.0000
  S   S6        1.0  0.15800  0.07420  0.74000  1.0000
