data_image0
_chemical_formula_structural       Cl4O12Pb6Te4
_chemical_formula_sum              "Cl4 O12 Pb6 Te4"
_cell_length_a       5.63516
_cell_length_b       8.66616
_cell_length_c       10.8934
_cell_angle_alpha    101.985
_cell_angle_beta     90
_cell_angle_gamma    108.973

_space_group_name_H-M_alt    "P 1"
_space_group_IT_number       1

loop_
  _space_group_symop_operation_xyz
  'x, y, z'

loop_
  _atom_site_type_symbol
  _atom_site_label
  _atom_site_symmetry_multiplicity
  _atom_site_fract_x
  _atom_site_fract_y
  _atom_site_fract_z
  _atom_site_occupancy
  Cl  Cl1       1.0  0.81800  0.63500  0.09900  1.0000
  Cl  Cl2       1.0  0.45900  0.91800  0.30100  1.0000
  Cl  Cl3       1.0  0.54100  0.08230  0.69900  1.0000
  Cl  Cl4       1.0  0.18200  0.36500  0.90100  1.0000
  O   O1        1.0  0.28300  0.00000  0.00000  1.0000
  O   O2        1.0  0.71700  0.00000  0.00000  1.0000
  O   O3        1.0  0.39800  0.26700  0.18400  1.0000
  O   O4        1.0  0.86900  0.26700  0.18400  1.0000
  O   O5        1.0  0.03280  0.58000  0.38500  1.0000
  O   O6        1.0  0.54800  0.58000  0.38500  1.0000
  O   O7        1.0  0.10400  0.20900  0.41800  1.0000
  O   O8        1.0  0.89600  0.79100  0.58200  1.0000
  O   O9        1.0  0.45200  0.42000  0.61500  1.0000
  O   O10       1.0  0.96700  0.42000  0.61500  1.0000
  O   O11       1.0  0.13100  0.73300  0.81600  1.0000
  O   O12       1.0  0.60200  0.73300  0.81600  1.0000
  Pb  Pb1       1.0  0.01940  0.03880  0.20000  1.0000
  Pb  Pb2       1.0  0.26200  0.52300  0.20000  1.0000
  Pb  Pb3       1.0  0.66000  0.32100  0.39500  1.0000
  Pb  Pb4       1.0  0.34000  0.67900  0.60500  1.0000
  Pb  Pb5       1.0  0.73800  0.47700  0.80000  1.0000
  Pb  Pb6       1.0  0.98100  0.96100  0.80000  1.0000
  Te  Te1       1.0  0.60400  0.20900  0.05000  1.0000
  Te  Te2       1.0  0.87300  0.74700  0.40500  1.0000
  Te  Te3       1.0  0.12700  0.25300  0.59500  1.0000
  Te  Te4       1.0  0.39600  0.79100  0.95000  1.0000
