data_image0
_chemical_formula_structural       I2Li12P2S10
_chemical_formula_sum              "I2 Li12 P2 S10"
_cell_length_a       7.18378
_cell_length_b       7.18378
_cell_length_c       12.2428
_cell_angle_alpha    107.668
_cell_angle_beta     89.3689
_cell_angle_gamma    120.101

_space_group_name_H-M_alt    "P 1"
_space_group_IT_number       1

loop_
  _space_group_symop_operation_xyz
  'x, y, z'

loop_
  _atom_site_type_symbol
  _atom_site_label
  _atom_site_symmetry_multiplicity
  _atom_site_fract_x
  _atom_site_fract_y
  _atom_site_fract_z
  _atom_site_occupancy
  I   I1        1.0  0.27500  0.39100  0.13500  1.0000
  I   I2        1.0  0.74400  0.36100  0.63500  1.0000
  Li  Li1       1.0  0.70200  0.79900  0.10700  1.0000
  Li  Li2       1.0  0.20200  0.94300  0.11800  1.0000
  Li  Li3       1.0  0.69100  0.40100  0.11800  1.0000
  Li  Li4       1.0  0.07820  0.39500  0.34900  1.0000
  Li  Li5       1.0  0.46900  0.78500  0.35200  1.0000
  Li  Li6       1.0  0.54300  0.40300  0.44800  1.0000
  Li  Li7       1.0  0.30900  0.90500  0.60700  1.0000
  Li  Li8       1.0  0.17500  0.41600  0.61800  1.0000
  Li  Li9       1.0  0.71700  0.92700  0.61800  1.0000
  Li  Li10      1.0  0.95400  0.77100  0.84900  1.0000
  Li  Li11      1.0  0.56700  0.38300  0.85200  1.0000
  Li  Li12      1.0  0.04570  0.40500  0.94800  1.0000
  P   P1        1.0  0.00803  0.87900  0.37900  1.0000
  P   P2        1.0  0.50000  0.87100  0.87900  1.0000
  S   S1        1.0  0.87400  0.62000  0.00099  1.0000
  S   S2        1.0  0.54900  0.99500  0.05760  1.0000
  S   S3        1.0  0.83500  0.99400  0.31600  1.0000
  S   S4        1.0  0.30200  0.99600  0.32100  1.0000
  S   S5        1.0  0.83000  0.52600  0.32400  1.0000
  S   S6        1.0  0.38100  0.62700  0.50100  1.0000
  S   S7        1.0  0.06260  0.00847  0.55800  1.0000
  S   S8        1.0  0.32200  0.98100  0.81600  1.0000
  S   S9        1.0  0.32500  0.51900  0.82100  1.0000
  S   S10       1.0  0.79800  0.99400  0.82400  1.0000
