data_image0
_chemical_formula_structural       Ba2Fe8Gd2O14
_chemical_formula_sum              "Ba2 Fe8 Gd2 O14"
_cell_length_a       6.46456
_cell_length_b       6.47298
_cell_length_c       10.3776
_cell_angle_alpha    90
_cell_angle_beta     90
_cell_angle_gamma    119.957

_space_group_name_H-M_alt    "P 1"
_space_group_IT_number       1

loop_
  _space_group_symop_operation_xyz
  'x, y, z'

loop_
  _atom_site_type_symbol
  _atom_site_label
  _atom_site_symmetry_multiplicity
  _atom_site_fract_x
  _atom_site_fract_y
  _atom_site_fract_z
  _atom_site_occupancy
  Ba  Ba1       1.0  0.33800  0.67500  0.02510  1.0000
  Ba  Ba2       1.0  0.66200  0.32500  0.52500  1.0000
  Fe  Fe1       1.0  0.34500  0.17300  0.19100  1.0000
  Fe  Fe2       1.0  0.82800  0.17300  0.19100  1.0000
  Fe  Fe3       1.0  0.82900  0.65700  0.19400  1.0000
  Fe  Fe4       1.0  0.00184  0.00369  0.44400  1.0000
  Fe  Fe5       1.0  0.17200  0.82700  0.69100  1.0000
  Fe  Fe6       1.0  0.65500  0.82700  0.69100  1.0000
  Fe  Fe7       1.0  0.17100  0.34300  0.69400  1.0000
  Fe  Fe8       1.0  0.99800  0.99600  0.94400  1.0000
  Gd  Gd1       1.0  0.33400  0.66700  0.37600  1.0000
  Gd  Gd2       1.0  0.66600  0.33300  0.87600  1.0000
  O   O1        1.0  0.48700  0.97400  0.23000  1.0000
  O   O2        1.0  0.02310  0.51100  0.23300  1.0000
  O   O3        1.0  0.48800  0.51100  0.23300  1.0000
  O   O4        1.0  0.00119  0.00239  0.25900  1.0000
  O   O5        1.0  0.17000  0.84700  0.49500  1.0000
  O   O6        1.0  0.67700  0.84700  0.49500  1.0000
  O   O7        1.0  0.16300  0.32600  0.49700  1.0000
  O   O8        1.0  0.51300  0.02610  0.73000  1.0000
  O   O9        1.0  0.51200  0.48900  0.73300  1.0000
  O   O10       1.0  0.97700  0.48900  0.73300  1.0000
  O   O11       1.0  0.99900  0.99800  0.75900  1.0000
  O   O12       1.0  0.32300  0.15300  0.99500  1.0000
  O   O13       1.0  0.83000  0.15300  0.99500  1.0000
  O   O14       1.0  0.83700  0.67400  0.99700  1.0000
