data_image0
_chemical_formula_structural       K2O14Sb2Zn8
_chemical_formula_sum              "K2 O14 Sb2 Zn8"
_cell_length_a       6.16385
_cell_length_b       6.16388
_cell_length_c       9.98988
_cell_angle_alpha    90
_cell_angle_beta     90
_cell_angle_gamma    120

_space_group_name_H-M_alt    "P 1"
_space_group_IT_number       1

loop_
  _space_group_symop_operation_xyz
  'x, y, z'

loop_
  _atom_site_type_symbol
  _atom_site_label
  _atom_site_symmetry_multiplicity
  _atom_site_fract_x
  _atom_site_fract_y
  _atom_site_fract_z
  _atom_site_occupancy
  K   K1        1.0  0.66700  0.33300  0.17700  1.0000
  K   K2        1.0  0.33300  0.66700  0.67700  1.0000
  O   O1        1.0  0.17800  0.35600  0.18900  1.0000
  O   O2        1.0  0.17800  0.82200  0.18900  1.0000
  O   O3        1.0  0.64400  0.82200  0.18900  1.0000
  O   O4        1.0  0.48800  0.97600  0.42000  1.0000
  O   O5        1.0  0.48800  0.51200  0.42000  1.0000
  O   O6        1.0  0.02350  0.51200  0.42000  1.0000
  O   O7        1.0  0.00000  0.00000  0.44300  1.0000
  O   O8        1.0  0.82200  0.64400  0.68900  1.0000
  O   O9        1.0  0.35600  0.17800  0.68900  1.0000
  O   O10       1.0  0.82200  0.17800  0.68900  1.0000
  O   O11       1.0  0.51200  0.02350  0.92000  1.0000
  O   O12       1.0  0.97600  0.48800  0.92000  1.0000
  O   O13       1.0  0.51200  0.48800  0.92000  1.0000
  O   O14       1.0  0.00000  0.00000  0.94300  1.0000
  Sb  Sb1       1.0  0.33300  0.66700  0.30500  1.0000
  Sb  Sb2       1.0  0.66700  0.33300  0.80500  1.0000
  Zn  Zn1       1.0  0.00000  0.00000  0.24700  1.0000
  Zn  Zn2       1.0  0.82600  0.65300  0.49300  1.0000
  Zn  Zn3       1.0  0.34700  0.17400  0.49300  1.0000
  Zn  Zn4       1.0  0.82600  0.17400  0.49300  1.0000
  Zn  Zn5       1.0  0.00000  0.00000  0.74700  1.0000
  Zn  Zn6       1.0  0.17400  0.34700  0.99300  1.0000
  Zn  Zn7       1.0  0.17400  0.82600  0.99300  1.0000
  Zn  Zn8       1.0  0.65300  0.82600  0.99300  1.0000
