data_image0
_chemical_formula_structural       C8Cl4F12Te2
_chemical_formula_sum              "C8 Cl4 F12 Te2"
_cell_length_a       6.88382
_cell_length_b       6.88382
_cell_length_c       8.61915
_cell_angle_alpha    101.319
_cell_angle_beta     101.319
_cell_angle_gamma    96.195

_space_group_name_H-M_alt    "P 1"
_space_group_IT_number       1

loop_
  _space_group_symop_operation_xyz
  'x, y, z'

loop_
  _atom_site_type_symbol
  _atom_site_label
  _atom_site_symmetry_multiplicity
  _atom_site_fract_x
  _atom_site_fract_y
  _atom_site_fract_z
  _atom_site_occupancy
  C   C1        1.0  0.84400  0.41500  0.18200  1.0000
  C   C2        1.0  0.97800  0.57900  0.20500  1.0000
  C   C3        1.0  0.42100  0.02190  0.29500  1.0000
  C   C4        1.0  0.58500  0.15600  0.31800  1.0000
  C   C5        1.0  0.41500  0.84400  0.68200  1.0000
  C   C6        1.0  0.57900  0.97800  0.70500  1.0000
  C   C7        1.0  0.02190  0.42100  0.79500  1.0000
  C   C8        1.0  0.15600  0.58500  0.81800  1.0000
  Cl  Cl1       1.0  0.59200  0.76400  0.03240  1.0000
  Cl  Cl2       1.0  0.23600  0.40800  0.46800  1.0000
  Cl  Cl3       1.0  0.76400  0.59200  0.53200  1.0000
  Cl  Cl4       1.0  0.40800  0.23600  0.96800  1.0000
  F   F1        1.0  0.87800  0.23500  0.10700  1.0000
  F   F2        1.0  0.14700  0.57500  0.15100  1.0000
  F   F3        1.0  0.24000  0.03880  0.21900  1.0000
  F   F4        1.0  0.96100  0.76000  0.28100  1.0000
  F   F5        1.0  0.42500  0.85300  0.34900  1.0000
  F   F6        1.0  0.76500  0.12200  0.39300  1.0000
  F   F7        1.0  0.23500  0.87800  0.60700  1.0000
  F   F8        1.0  0.57500  0.14700  0.65100  1.0000
  F   F9        1.0  0.03880  0.24000  0.71900  1.0000
  F   F10       1.0  0.76000  0.96100  0.78100  1.0000
  F   F11       1.0  0.85300  0.42500  0.84900  1.0000
  F   F12       1.0  0.12200  0.76500  0.89300  1.0000
  Te  Te1       1.0  0.56600  0.43400  0.25000  1.0000
  Te  Te2       1.0  0.43400  0.56600  0.75000  1.0000
