data_image0
_chemical_formula_structural       Cu20Sn6
_chemical_formula_sum              "Cu20 Sn6"
_cell_length_a       7.21663
_cell_length_b       7.21654
_cell_length_c       7.81155
_cell_angle_alpha    90
_cell_angle_beta     90
_cell_angle_gamma    120.01

_space_group_name_H-M_alt    "P 1"
_space_group_IT_number       1

loop_
  _space_group_symop_operation_xyz
  'x, y, z'

loop_
  _atom_site_type_symbol
  _atom_site_label
  _atom_site_symmetry_multiplicity
  _atom_site_fract_x
  _atom_site_fract_y
  _atom_site_fract_z
  _atom_site_occupancy
  Cu  Cu1       1.0  0.66900  0.02830  0.08350  1.0000
  Cu  Cu2       1.0  0.33100  0.97200  0.58400  1.0000
  Cu  Cu3       1.0  0.97200  0.64100  0.08350  1.0000
  Cu  Cu4       1.0  0.35900  0.33100  0.08360  1.0000
  Cu  Cu5       1.0  0.64100  0.66900  0.58400  1.0000
  Cu  Cu6       1.0  0.02820  0.35900  0.58400  1.0000
  Cu  Cu7       1.0  0.33100  0.97200  0.91600  1.0000
  Cu  Cu8       1.0  0.66900  0.02830  0.41600  1.0000
  Cu  Cu9       1.0  0.02820  0.35900  0.91600  1.0000
  Cu  Cu10      1.0  0.64100  0.66900  0.91600  1.0000
  Cu  Cu11      1.0  0.35900  0.33100  0.41600  1.0000
  Cu  Cu12      1.0  0.97200  0.64100  0.41600  1.0000
  Cu  Cu13      1.0  0.33300  0.66700  0.07980  1.0000
  Cu  Cu14      1.0  0.66700  0.33300  0.58000  1.0000
  Cu  Cu15      1.0  0.66700  0.33300  0.92000  1.0000
  Cu  Cu16      1.0  0.33300  0.66700  0.42000  1.0000
  Cu  Cu17      1.0  0.33300  0.66700  0.75000  1.0000
  Cu  Cu18      1.0  0.66700  0.33300  0.25000  1.0000
  Cu  Cu19      1.0  0.00000  0.00000  0.00000  1.0000
  Cu  Cu20      1.0  0.00000  0.00000  0.50000  1.0000
  Sn  Sn1       1.0  0.29000  0.97800  0.25000  1.0000
  Sn  Sn2       1.0  0.71000  0.02190  0.75000  1.0000
  Sn  Sn3       1.0  0.02190  0.31200  0.25000  1.0000
  Sn  Sn4       1.0  0.68800  0.71000  0.25000  1.0000
  Sn  Sn5       1.0  0.31200  0.29000  0.75000  1.0000
  Sn  Sn6       1.0  0.97800  0.68800  0.75000  1.0000
