data_image0
_chemical_formula_structural       Cl8N8S8Te2
_chemical_formula_sum              "Cl8 N8 S8 Te2"
_cell_length_a       7.20808
_cell_length_b       8.91051
_cell_length_c       8.91051
_cell_angle_alpha    95.0734
_cell_angle_beta     98.5555
_cell_angle_gamma    81.4445

_space_group_name_H-M_alt    "P 1"
_space_group_IT_number       1

loop_
  _space_group_symop_operation_xyz
  'x, y, z'

loop_
  _atom_site_type_symbol
  _atom_site_label
  _atom_site_symmetry_multiplicity
  _atom_site_fract_x
  _atom_site_fract_y
  _atom_site_fract_z
  _atom_site_occupancy
  Cl  Cl1       1.0  0.67300  0.95700  0.04300  1.0000
  Cl  Cl2       1.0  0.17300  0.95700  0.04320  1.0000
  Cl  Cl3       1.0  0.05330  0.41900  0.04910  1.0000
  Cl  Cl4       1.0  0.30400  0.67300  0.29700  1.0000
  Cl  Cl5       1.0  0.43200  0.21800  0.30500  1.0000
  Cl  Cl6       1.0  0.80400  0.70300  0.32700  1.0000
  Cl  Cl7       1.0  0.55300  0.95100  0.58100  1.0000
  Cl  Cl8       1.0  0.93200  0.69500  0.78200  1.0000
  N   N1        1.0  0.84800  0.04020  0.37400  1.0000
  N   N2        1.0  0.85300  0.34200  0.38400  1.0000
  N   N3        1.0  0.35300  0.61600  0.65800  1.0000
  N   N4        1.0  0.75000  0.30000  0.65900  1.0000
  N   N5        1.0  0.00602  0.04200  0.66700  1.0000
  N   N6        1.0  0.25000  0.34100  0.70000  1.0000
  N   N7        1.0  0.50600  0.33300  0.95800  1.0000
  N   N8        1.0  0.34800  0.62600  0.96000  1.0000
  S   S1        1.0  0.52300  0.49900  0.03470  1.0000
  S   S2        1.0  0.90900  0.18400  0.29300  1.0000
  S   S3        1.0  0.02260  0.96500  0.50100  1.0000
  S   S4        1.0  0.76400  0.40900  0.53000  1.0000
  S   S5        1.0  0.26400  0.47000  0.59100  1.0000
  S   S6        1.0  0.88300  0.17000  0.75300  1.0000
  S   S7        1.0  0.40900  0.70700  0.81600  1.0000
  S   S8        1.0  0.38300  0.24700  0.83000  1.0000
  Te  Te1       1.0  0.07900  0.69600  0.05130  1.0000
  Te  Te2       1.0  0.57900  0.94900  0.30400  1.0000
