data_image0
_chemical_formula_structural       Ce4Ni14P8
_chemical_formula_sum              "Ce4 Ni14 P8"
_cell_length_a       3.78678
_cell_length_b       9.27827
_cell_length_c       10.5127
_cell_angle_alpha    90
_cell_angle_beta     90
_cell_angle_gamma    90

_space_group_name_H-M_alt    "P 1"
_space_group_IT_number       1

loop_
  _space_group_symop_operation_xyz
  'x, y, z'

loop_
  _atom_site_type_symbol
  _atom_site_label
  _atom_site_symmetry_multiplicity
  _atom_site_fract_x
  _atom_site_fract_y
  _atom_site_fract_z
  _atom_site_occupancy
  Ce  Ce1       1.0  0.50000  0.56200  0.28100  1.0000
  Ce  Ce2       1.0  0.50000  0.93600  0.49800  1.0000
  Ce  Ce3       1.0  0.00000  0.43800  0.78100  1.0000
  Ce  Ce4       1.0  0.00000  0.06360  0.99800  1.0000
  Ni  Ni1       1.0  0.50000  0.80500  0.07230  1.0000
  Ni  Ni2       1.0  0.00000  0.40500  0.08340  1.0000
  Ni  Ni3       1.0  0.50000  0.22500  0.17000  1.0000
  Ni  Ni4       1.0  0.00000  0.82000  0.25500  1.0000
  Ni  Ni5       1.0  0.00000  0.08340  0.30000  1.0000
  Ni  Ni6       1.0  0.50000  0.24600  0.40000  1.0000
  Ni  Ni7       1.0  0.00000  0.43600  0.47600  1.0000
  Ni  Ni8       1.0  0.00000  0.19500  0.57200  1.0000
  Ni  Ni9       1.0  0.50000  0.59500  0.58300  1.0000
  Ni  Ni10      1.0  0.00000  0.77500  0.67000  1.0000
  Ni  Ni11      1.0  0.50000  0.18000  0.75500  1.0000
  Ni  Ni12      1.0  0.50000  0.91700  0.80000  1.0000
  Ni  Ni13      1.0  0.00000  0.75400  0.90000  1.0000
  Ni  Ni14      1.0  0.50000  0.56400  0.97600  1.0000
  P   P1        1.0  0.00000  0.65800  0.08580  1.0000
  P   P2        1.0  0.50000  0.97500  0.21500  1.0000
  P   P3        1.0  0.00000  0.31500  0.28500  1.0000
  P   P4        1.0  0.00000  0.68300  0.47200  1.0000
  P   P5        1.0  0.50000  0.34200  0.58600  1.0000
  P   P6        1.0  0.00000  0.02480  0.71500  1.0000
  P   P7        1.0  0.50000  0.68500  0.78500  1.0000
  P   P8        1.0  0.50000  0.31700  0.97200  1.0000
