data_image0
_chemical_formula_structural       Al8Br8La10
_chemical_formula_sum              "Al8 Br8 La10"
_cell_length_a       8.318
_cell_length_b       8.318
_cell_length_c       11.6976
_cell_angle_alpha    110.827
_cell_angle_beta     110.827
_cell_angle_gamma    90

_space_group_name_H-M_alt    "P 1"
_space_group_IT_number       1

loop_
  _space_group_symop_operation_xyz
  'x, y, z'

loop_
  _atom_site_type_symbol
  _atom_site_label
  _atom_site_symmetry_multiplicity
  _atom_site_fract_x
  _atom_site_fract_y
  _atom_site_fract_z
  _atom_site_occupancy
  Al  Al1       1.0  0.57700  0.07750  0.44000  1.0000
  Al  Al2       1.0  0.86200  0.36300  0.44000  1.0000
  Al  Al3       1.0  0.36300  0.57700  0.44000  1.0000
  Al  Al4       1.0  0.07750  0.86200  0.44000  1.0000
  Al  Al5       1.0  0.92300  0.13700  0.56000  1.0000
  Al  Al6       1.0  0.63700  0.42300  0.56000  1.0000
  Al  Al7       1.0  0.13700  0.63700  0.56000  1.0000
  Al  Al8       1.0  0.42300  0.92300  0.56000  1.0000
  Br  Br1       1.0  0.64400  0.14400  0.00000  1.0000
  Br  Br2       1.0  0.14400  0.35600  0.00000  1.0000
  Br  Br3       1.0  0.85600  0.64400  0.00000  1.0000
  Br  Br4       1.0  0.35600  0.85600  0.00000  1.0000
  Br  Br5       1.0  0.09380  0.09380  0.18800  1.0000
  Br  Br6       1.0  0.59400  0.59400  0.18800  1.0000
  Br  Br7       1.0  0.40600  0.40600  0.81200  1.0000
  Br  Br8       1.0  0.90600  0.90600  0.81200  1.0000
  La  La1       1.0  0.45200  0.27600  0.22800  1.0000
  La  La2       1.0  0.95200  0.45200  0.22800  1.0000
  La  La3       1.0  0.27600  0.77600  0.22800  1.0000
  La  La4       1.0  0.77600  0.95200  0.22800  1.0000
  La  La5       1.0  0.25000  0.25000  0.50000  1.0000
  La  La6       1.0  0.75000  0.75000  0.50000  1.0000
  La  La7       1.0  0.22400  0.04750  0.77200  1.0000
  La  La8       1.0  0.72400  0.22400  0.77200  1.0000
  La  La9       1.0  0.04750  0.54800  0.77200  1.0000
  La  La10      1.0  0.54800  0.72400  0.77200  1.0000
