data_image0
_chemical_formula_structural       Hg8O14P4
_chemical_formula_sum              "Hg8 O14 P4"
_cell_length_a       9.12133
_cell_length_b       4.8834
_cell_length_c       9.66429
_cell_angle_alpha    90
_cell_angle_beta     98.9252
_cell_angle_gamma    90

_space_group_name_H-M_alt    "P 1"
_space_group_IT_number       1

loop_
  _space_group_symop_operation_xyz
  'x, y, z'

loop_
  _atom_site_type_symbol
  _atom_site_label
  _atom_site_symmetry_multiplicity
  _atom_site_fract_x
  _atom_site_fract_y
  _atom_site_fract_z
  _atom_site_occupancy
  Hg  Hg1       1.0  0.51300  0.67400  0.10100  1.0000
  Hg  Hg2       1.0  0.18400  0.44000  0.12200  1.0000
  Hg  Hg3       1.0  0.31600  0.44000  0.37800  1.0000
  Hg  Hg4       1.0  0.98700  0.67400  0.39900  1.0000
  Hg  Hg5       1.0  0.01260  0.32600  0.60100  1.0000
  Hg  Hg6       1.0  0.68400  0.56000  0.62200  1.0000
  Hg  Hg7       1.0  0.81600  0.56000  0.87800  1.0000
  Hg  Hg8       1.0  0.48700  0.32600  0.89900  1.0000
  O   O1        1.0  0.74700  0.92600  0.03970  1.0000
  O   O2        1.0  0.91300  0.35300  0.07810  1.0000
  O   O3        1.0  0.98400  0.95200  0.22800  1.0000
  O   O4        1.0  0.75000  0.23600  0.25000  1.0000
  O   O5        1.0  0.51600  0.95200  0.27200  1.0000
  O   O6        1.0  0.58700  0.35300  0.42200  1.0000
  O   O7        1.0  0.75300  0.92600  0.46000  1.0000
  O   O8        1.0  0.24700  0.07400  0.54000  1.0000
  O   O9        1.0  0.41300  0.64700  0.57800  1.0000
  O   O10       1.0  0.48400  0.04750  0.72800  1.0000
  O   O11       1.0  0.25000  0.76400  0.75000  1.0000
  O   O12       1.0  0.01610  0.04750  0.77200  1.0000
  O   O13       1.0  0.08660  0.64700  0.92200  1.0000
  O   O14       1.0  0.25300  0.07400  0.96000  1.0000
  P   P1        1.0  0.85100  0.09970  0.14200  1.0000
  P   P2        1.0  0.64900  0.09970  0.35800  1.0000
  P   P3        1.0  0.35100  0.90000  0.64200  1.0000
  P   P4        1.0  0.14900  0.90000  0.85800  1.0000
