data_image0
_chemical_formula_structural       Ag8Mn2S12Sb4
_chemical_formula_sum              "Ag8 Mn2 S12 Sb4"
_cell_length_a       10.5636
_cell_length_b       8.02835
_cell_length_c       6.70335
_cell_angle_alpha    90
_cell_angle_beta     91.5528
_cell_angle_gamma    90

_space_group_name_H-M_alt    "P 1"
_space_group_IT_number       1

loop_
  _space_group_symop_operation_xyz
  'x, y, z'

loop_
  _atom_site_type_symbol
  _atom_site_label
  _atom_site_symmetry_multiplicity
  _atom_site_fract_x
  _atom_site_fract_y
  _atom_site_fract_z
  _atom_site_occupancy
  Ag  Ag1       1.0  0.81700  0.28900  0.06900  1.0000
  Ag  Ag2       1.0  0.47600  0.03300  0.23800  1.0000
  Ag  Ag3       1.0  0.02380  0.53300  0.26200  1.0000
  Ag  Ag4       1.0  0.68300  0.78900  0.43100  1.0000
  Ag  Ag5       1.0  0.31700  0.21100  0.56900  1.0000
  Ag  Ag6       1.0  0.97600  0.46700  0.73800  1.0000
  Ag  Ag7       1.0  0.52400  0.96700  0.76200  1.0000
  Ag  Ag8       1.0  0.18300  0.71100  0.93100  1.0000
  Mn  Mn1       1.0  0.50000  0.50000  0.00000  1.0000
  Mn  Mn2       1.0  0.00000  0.00000  0.50000  1.0000
  S   S1        1.0  0.72100  0.58900  0.12200  1.0000
  S   S2        1.0  0.39600  0.75900  0.15700  1.0000
  S   S3        1.0  0.01360  0.82700  0.17200  1.0000
  S   S4        1.0  0.48600  0.32700  0.32800  1.0000
  S   S5        1.0  0.10400  0.25900  0.34300  1.0000
  S   S6        1.0  0.77900  0.08890  0.37800  1.0000
  S   S7        1.0  0.22100  0.91100  0.62200  1.0000
  S   S8        1.0  0.89600  0.74100  0.65700  1.0000
  S   S9        1.0  0.51400  0.67300  0.67200  1.0000
  S   S10       1.0  0.98600  0.17300  0.82800  1.0000
  S   S11       1.0  0.60400  0.24100  0.84300  1.0000
  S   S12       1.0  0.27900  0.41100  0.87800  1.0000
  Sb  Sb1       1.0  0.19100  0.15200  0.02800  1.0000
  Sb  Sb2       1.0  0.30900  0.65200  0.47200  1.0000
  Sb  Sb3       1.0  0.69100  0.34800  0.52800  1.0000
  Sb  Sb4       1.0  0.80900  0.84800  0.97200  1.0000
