data_image0
_chemical_formula_structural       I6O18Sc2
_chemical_formula_sum              "I6 O18 Sc2"
_cell_length_a       7.22927
_cell_length_b       7.22927
_cell_length_c       7.22927
_cell_angle_alpha    83.7479
_cell_angle_beta     96.2521
_cell_angle_gamma    96.2521

_space_group_name_H-M_alt    "P 1"
_space_group_IT_number       1

loop_
  _space_group_symop_operation_xyz
  'x, y, z'

loop_
  _atom_site_type_symbol
  _atom_site_label
  _atom_site_symmetry_multiplicity
  _atom_site_fract_x
  _atom_site_fract_y
  _atom_site_fract_z
  _atom_site_occupancy
  I   I1        1.0  0.58900  0.70800  0.13000  1.0000
  I   I2        1.0  0.13000  0.58900  0.29200  1.0000
  I   I3        1.0  0.29200  0.13000  0.41100  1.0000
  I   I4        1.0  0.70800  0.87000  0.58900  1.0000
  I   I5        1.0  0.87000  0.41100  0.70800  1.0000
  I   I6        1.0  0.41100  0.29200  0.87000  1.0000
  O   O1        1.0  0.71400  0.93200  0.05440  1.0000
  O   O2        1.0  0.05440  0.71400  0.06840  1.0000
  O   O3        1.0  0.57700  0.30000  0.08370  1.0000
  O   O4        1.0  0.28100  0.42700  0.21300  1.0000
  O   O5        1.0  0.42700  0.78700  0.28100  1.0000
  O   O6        1.0  0.06840  0.05440  0.28600  1.0000
  O   O7        1.0  0.91600  0.42300  0.30000  1.0000
  O   O8        1.0  0.70000  0.08370  0.42300  1.0000
  O   O9        1.0  0.78700  0.71900  0.42700  1.0000
  O   O10       1.0  0.21300  0.28100  0.57300  1.0000
  O   O11       1.0  0.30000  0.91600  0.57700  1.0000
  O   O12       1.0  0.08370  0.57700  0.70000  1.0000
  O   O13       1.0  0.93200  0.94600  0.71400  1.0000
  O   O14       1.0  0.57300  0.21300  0.71900  1.0000
  O   O15       1.0  0.71900  0.57300  0.78700  1.0000
  O   O16       1.0  0.42300  0.70000  0.91600  1.0000
  O   O17       1.0  0.94600  0.28600  0.93200  1.0000
  O   O18       1.0  0.28600  0.06840  0.94600  1.0000
  Sc  Sc1       1.0  0.82500  0.17500  0.17500  1.0000
  Sc  Sc2       1.0  0.17500  0.82500  0.82500  1.0000
