data_image0
_chemical_formula_structural       Fe2S16Ta8
_chemical_formula_sum              "Fe2 S16 Ta8"
_cell_length_a       6.64647
_cell_length_b       6.65195
_cell_length_c       12.1428
_cell_angle_alpha    90
_cell_angle_beta     90
_cell_angle_gamma    119.973

_space_group_name_H-M_alt    "P 1"
_space_group_IT_number       1

loop_
  _space_group_symop_operation_xyz
  'x, y, z'

loop_
  _atom_site_type_symbol
  _atom_site_label
  _atom_site_symmetry_multiplicity
  _atom_site_fract_x
  _atom_site_fract_y
  _atom_site_fract_z
  _atom_site_occupancy
  Fe  Fe1       1.0  0.00000  0.00000  0.00000  1.0000
  Fe  Fe2       1.0  0.00000  0.00000  0.50000  1.0000
  S   S1        1.0  0.66700  0.33300  0.11700  1.0000
  S   S2        1.0  0.16800  0.33700  0.12100  1.0000
  S   S3        1.0  0.16700  0.83200  0.12100  1.0000
  S   S4        1.0  0.66500  0.83200  0.12100  1.0000
  S   S5        1.0  0.16700  0.83200  0.37900  1.0000
  S   S6        1.0  0.66500  0.83200  0.37900  1.0000
  S   S7        1.0  0.16800  0.33700  0.37900  1.0000
  S   S8        1.0  0.66700  0.33300  0.38300  1.0000
  S   S9        1.0  0.33300  0.66700  0.61700  1.0000
  S   S10       1.0  0.83200  0.66300  0.62100  1.0000
  S   S11       1.0  0.33500  0.16800  0.62100  1.0000
  S   S12       1.0  0.83300  0.16800  0.62100  1.0000
  S   S13       1.0  0.33500  0.16800  0.87900  1.0000
  S   S14       1.0  0.83300  0.16800  0.87900  1.0000
  S   S15       1.0  0.83200  0.66300  0.87900  1.0000
  S   S16       1.0  0.33300  0.66700  0.88300  1.0000
  Ta  Ta1       1.0  0.00056  0.00111  0.25000  1.0000
  Ta  Ta2       1.0  0.50600  0.01190  0.25000  1.0000
  Ta  Ta3       1.0  0.50600  0.49400  0.25000  1.0000
  Ta  Ta4       1.0  0.98800  0.49400  0.25000  1.0000
  Ta  Ta5       1.0  0.01170  0.50600  0.75000  1.0000
  Ta  Ta6       1.0  0.49400  0.50600  0.75000  1.0000
  Ta  Ta7       1.0  0.49400  0.98800  0.75000  1.0000
  Ta  Ta8       1.0  0.99900  0.99900  0.75000  1.0000
