data_image0
_chemical_formula_structural       Eu10In4Sb12
_chemical_formula_sum              "Eu10 In4 Sb12"
_cell_length_a       12.4598
_cell_length_b       14.5805
_cell_length_c       4.64759
_cell_angle_alpha    90
_cell_angle_beta     90
_cell_angle_gamma    90

_space_group_name_H-M_alt    "P 1"
_space_group_IT_number       1

loop_
  _space_group_symop_operation_xyz
  'x, y, z'

loop_
  _atom_site_type_symbol
  _atom_site_label
  _atom_site_symmetry_multiplicity
  _atom_site_fract_x
  _atom_site_fract_y
  _atom_site_fract_z
  _atom_site_occupancy
  Eu  Eu1       1.0  0.00000  0.00000  0.00000  1.0000
  Eu  Eu2       1.0  0.32800  0.02020  0.00000  1.0000
  Eu  Eu3       1.0  0.08710  0.24800  0.00000  1.0000
  Eu  Eu4       1.0  0.58700  0.25200  0.00000  1.0000
  Eu  Eu5       1.0  0.82800  0.48000  0.00000  1.0000
  Eu  Eu6       1.0  0.50000  0.50000  0.00000  1.0000
  Eu  Eu7       1.0  0.17200  0.52000  0.00000  1.0000
  Eu  Eu8       1.0  0.41300  0.74800  0.00000  1.0000
  Eu  Eu9       1.0  0.91300  0.75200  0.00000  1.0000
  Eu  Eu10      1.0  0.67200  0.98000  0.00000  1.0000
  In  In1       1.0  0.33100  0.21500  0.50000  1.0000
  In  In2       1.0  0.83100  0.28500  0.50000  1.0000
  In  In3       1.0  0.16900  0.71500  0.50000  1.0000
  In  In4       1.0  0.66900  0.78500  0.50000  1.0000
  Sb  Sb1       1.0  0.83400  0.17100  0.00000  1.0000
  Sb  Sb2       1.0  0.33400  0.32900  0.00000  1.0000
  Sb  Sb3       1.0  0.66600  0.67100  0.00000  1.0000
  Sb  Sb4       1.0  0.16600  0.82900  0.00000  1.0000
  Sb  Sb5       1.0  0.15100  0.09230  0.50000  1.0000
  Sb  Sb6       1.0  0.53000  0.09600  0.50000  1.0000
  Sb  Sb7       1.0  0.02950  0.40400  0.50000  1.0000
  Sb  Sb8       1.0  0.65100  0.40800  0.50000  1.0000
  Sb  Sb9       1.0  0.34900  0.59200  0.50000  1.0000
  Sb  Sb10      1.0  0.97000  0.59600  0.50000  1.0000
  Sb  Sb11      1.0  0.47000  0.90400  0.50000  1.0000
  Sb  Sb12      1.0  0.84900  0.90800  0.50000  1.0000
