data_image0
_chemical_formula_structural       Br4C8K4N8Pt2
_chemical_formula_sum              "Br4 C8 K4 N8 Pt2"
_cell_length_a       7.18145
_cell_length_b       8.98018
_cell_length_c       8.65916
_cell_angle_alpha    90
_cell_angle_beta     106.728
_cell_angle_gamma    90

_space_group_name_H-M_alt    "P 1"
_space_group_IT_number       1

loop_
  _space_group_symop_operation_xyz
  'x, y, z'

loop_
  _atom_site_type_symbol
  _atom_site_label
  _atom_site_symmetry_multiplicity
  _atom_site_fract_x
  _atom_site_fract_y
  _atom_site_fract_z
  _atom_site_occupancy
  Br  Br1       1.0  0.10300  0.26900  0.03350  1.0000
  Br  Br2       1.0  0.89700  0.76900  0.46700  1.0000
  Br  Br3       1.0  0.10300  0.23100  0.53300  1.0000
  Br  Br4       1.0  0.89700  0.73100  0.96700  1.0000
  C   C1        1.0  0.79500  0.03740  0.11200  1.0000
  C   C2        1.0  0.19600  0.95300  0.21100  1.0000
  C   C3        1.0  0.80400  0.45300  0.28900  1.0000
  C   C4        1.0  0.20500  0.53700  0.38800  1.0000
  C   C5        1.0  0.79500  0.46300  0.61200  1.0000
  C   C6        1.0  0.19600  0.54700  0.71100  1.0000
  C   C7        1.0  0.80400  0.04680  0.78900  1.0000
  C   C8        1.0  0.20500  0.96300  0.88800  1.0000
  K   K1        1.0  0.49900  0.72300  0.12200  1.0000
  K   K2        1.0  0.50100  0.22300  0.37800  1.0000
  K   K3        1.0  0.49900  0.77700  0.62200  1.0000
  K   K4        1.0  0.50100  0.27700  0.87800  1.0000
  N   N1        1.0  0.68200  0.42700  0.16900  1.0000
  N   N2        1.0  0.66900  0.05990  0.17000  1.0000
  N   N3        1.0  0.33100  0.56000  0.33000  1.0000
  N   N4        1.0  0.31800  0.92700  0.33100  1.0000
  N   N5        1.0  0.68200  0.07330  0.66900  1.0000
  N   N6        1.0  0.66900  0.44000  0.67000  1.0000
  N   N7        1.0  0.33100  0.94000  0.83000  1.0000
  N   N8        1.0  0.31800  0.57300  0.83100  1.0000
  Pt  Pt1       1.0  0.00000  0.00000  0.00000  1.0000
  Pt  Pt2       1.0  0.00000  0.50000  0.50000  1.0000
