data_image0
_chemical_formula_structural       Mo6O16Zn4
_chemical_formula_sum              "Mo6 O16 Zn4"
_cell_length_a       5.76931
_cell_length_b       5.7695
_cell_length_c       9.80244
_cell_angle_alpha    90
_cell_angle_beta     90
_cell_angle_gamma    119.999

_space_group_name_H-M_alt    "P 1"
_space_group_IT_number       1

loop_
  _space_group_symop_operation_xyz
  'x, y, z'

loop_
  _atom_site_type_symbol
  _atom_site_label
  _atom_site_symmetry_multiplicity
  _atom_site_fract_x
  _atom_site_fract_y
  _atom_site_fract_z
  _atom_site_occupancy
  Mo  Mo1       1.0  0.14600  0.85400  0.25000  1.0000
  Mo  Mo2       1.0  0.85400  0.14600  0.75000  1.0000
  Mo  Mo3       1.0  0.14600  0.29200  0.25000  1.0000
  Mo  Mo4       1.0  0.70800  0.85400  0.25000  1.0000
  Mo  Mo5       1.0  0.29200  0.14600  0.75000  1.0000
  Mo  Mo6       1.0  0.85400  0.70800  0.75000  1.0000
  O   O1        1.0  0.16600  0.83400  0.63000  1.0000
  O   O2        1.0  0.83400  0.16600  0.13000  1.0000
  O   O3        1.0  0.16600  0.33200  0.63000  1.0000
  O   O4        1.0  0.66800  0.83400  0.63000  1.0000
  O   O5        1.0  0.33200  0.16600  0.13000  1.0000
  O   O6        1.0  0.83400  0.66800  0.13000  1.0000
  O   O7        1.0  0.48900  0.51100  0.36600  1.0000
  O   O8        1.0  0.51100  0.48900  0.86600  1.0000
  O   O9        1.0  0.48900  0.97700  0.36600  1.0000
  O   O10       1.0  0.02250  0.51100  0.36600  1.0000
  O   O11       1.0  0.97800  0.48900  0.86600  1.0000
  O   O12       1.0  0.51100  0.02250  0.86600  1.0000
  O   O13       1.0  0.33300  0.66700  0.14400  1.0000
  O   O14       1.0  0.66700  0.33300  0.64400  1.0000
  O   O15       1.0  0.00000  0.00000  0.39500  1.0000
  O   O16       1.0  0.00000  0.00001  0.89500  1.0000
  Zn  Zn1       1.0  0.33300  0.66700  0.51700  1.0000
  Zn  Zn2       1.0  0.66700  0.33300  0.01690  1.0000
  Zn  Zn3       1.0  0.33300  0.66700  0.94800  1.0000
  Zn  Zn4       1.0  0.66700  0.33300  0.44800  1.0000
