data_image0
_chemical_formula_structural       ClCuK4O15V5
_chemical_formula_sum              "Cl1 Cu1 K4 O15 V5"
_cell_length_a       8.87191
_cell_length_b       8.87191
_cell_length_c       5.30527
_cell_angle_alpha    90
_cell_angle_beta     90
_cell_angle_gamma    90

_space_group_name_H-M_alt    "P 1"
_space_group_IT_number       1

loop_
  _space_group_symop_operation_xyz
  'x, y, z'

loop_
  _atom_site_type_symbol
  _atom_site_label
  _atom_site_symmetry_multiplicity
  _atom_site_fract_x
  _atom_site_fract_y
  _atom_site_fract_z
  _atom_site_occupancy
  Cl  Cl1       1.0  0.00000  0.00000  0.30400  1.0000
  Cu  Cu1       1.0  0.00000  0.00000  0.84200  1.0000
  K   K1        1.0  0.68400  0.15600  0.42200  1.0000
  K   K2        1.0  0.15600  0.31600  0.42200  1.0000
  K   K3        1.0  0.84400  0.68400  0.42200  1.0000
  K   K4        1.0  0.31600  0.84400  0.42200  1.0000
  O   O1        1.0  0.50000  0.50000  0.16100  1.0000
  O   O2        1.0  0.38200  0.14200  0.20800  1.0000
  O   O3        1.0  0.85800  0.38200  0.20800  1.0000
  O   O4        1.0  0.14200  0.61800  0.20800  1.0000
  O   O5        1.0  0.61800  0.85800  0.20800  1.0000
  O   O6        1.0  0.41500  0.31500  0.76000  1.0000
  O   O7        1.0  0.68500  0.41500  0.76000  1.0000
  O   O8        1.0  0.31500  0.58500  0.76000  1.0000
  O   O9        1.0  0.58500  0.68500  0.76000  1.0000
  O   O10       1.0  0.50000  0.00000  0.76700  1.0000
  O   O11       1.0  0.00000  0.50000  0.76700  1.0000
  O   O12       1.0  0.19500  0.09460  0.79600  1.0000
  O   O13       1.0  0.90500  0.19500  0.79600  1.0000
  O   O14       1.0  0.09460  0.80500  0.79600  1.0000
  O   O15       1.0  0.80500  0.90500  0.79600  1.0000
  V   V1        1.0  0.50000  0.50000  0.85600  1.0000
  V   V2        1.0  0.37100  0.13900  0.89700  1.0000
  V   V3        1.0  0.86100  0.37100  0.89700  1.0000
  V   V4        1.0  0.13900  0.62900  0.89700  1.0000
  V   V5        1.0  0.62900  0.86100  0.89700  1.0000
