data_image0
_chemical_formula_structural       Ca10N12Si4
_chemical_formula_sum              "Ca10 N12 Si4"
_cell_length_a       5.74529
_cell_length_b       5.74529
_cell_length_c       12.6931
_cell_angle_alpha    98.761
_cell_angle_beta     98.761
_cell_angle_gamma    63.1173

_space_group_name_H-M_alt    "P 1"
_space_group_IT_number       1

loop_
  _space_group_symop_operation_xyz
  'x, y, z'

loop_
  _atom_site_type_symbol
  _atom_site_label
  _atom_site_symmetry_multiplicity
  _atom_site_fract_x
  _atom_site_fract_y
  _atom_site_fract_z
  _atom_site_occupancy
  Ca  Ca1       1.0  0.67500  0.19500  0.00106  1.0000
  Ca  Ca2       1.0  0.06780  0.24000  0.21600  1.0000
  Ca  Ca3       1.0  0.38200  0.61800  0.25000  1.0000
  Ca  Ca4       1.0  0.76000  0.93200  0.28400  1.0000
  Ca  Ca5       1.0  0.80500  0.32500  0.49900  1.0000
  Ca  Ca6       1.0  0.19500  0.67500  0.50100  1.0000
  Ca  Ca7       1.0  0.24000  0.06780  0.71600  1.0000
  Ca  Ca8       1.0  0.61800  0.38200  0.75000  1.0000
  Ca  Ca9       1.0  0.93200  0.76000  0.78400  1.0000
  Ca  Ca10      1.0  0.32500  0.80500  0.99900  1.0000
  N   N1        1.0  0.21000  0.34200  0.06290  1.0000
  N   N2        1.0  0.98500  0.89900  0.12800  1.0000
  N   N3        1.0  0.69200  0.60900  0.14800  1.0000
  N   N4        1.0  0.39100  0.30800  0.35200  1.0000
  N   N5        1.0  0.10100  0.01460  0.37200  1.0000
  N   N6        1.0  0.65800  0.79000  0.43700  1.0000
  N   N7        1.0  0.34200  0.21000  0.56300  1.0000
  N   N8        1.0  0.89900  0.98500  0.62800  1.0000
  N   N9        1.0  0.60900  0.69200  0.64800  1.0000
  N   N10       1.0  0.30800  0.39100  0.85200  1.0000
  N   N11       1.0  0.01460  0.10100  0.87200  1.0000
  N   N12       1.0  0.79000  0.65800  0.93700  1.0000
  Si  Si1       1.0  0.90600  0.64700  0.07620  1.0000
  Si  Si2       1.0  0.35300  0.09370  0.42400  1.0000
  Si  Si3       1.0  0.64700  0.90600  0.57600  1.0000
  Si  Si4       1.0  0.09370  0.35300  0.92400  1.0000
