data_image0
_chemical_formula_structural       In10Se14Tl2
_chemical_formula_sum              "In10 Se14 Tl2"
_cell_length_a       9.56695
_cell_length_b       4.11424
_cell_length_c       18.0021
_cell_angle_alpha    90
_cell_angle_beta     100.914
_cell_angle_gamma    90

_space_group_name_H-M_alt    "P 1"
_space_group_IT_number       1

loop_
  _space_group_symop_operation_xyz
  'x, y, z'

loop_
  _atom_site_type_symbol
  _atom_site_label
  _atom_site_symmetry_multiplicity
  _atom_site_fract_x
  _atom_site_fract_y
  _atom_site_fract_z
  _atom_site_occupancy
  In  In1       1.0  0.85200  0.25000  0.04690  1.0000
  In  In2       1.0  0.56800  0.75000  0.12300  1.0000
  In  In3       1.0  0.32100  0.75000  0.18700  1.0000
  In  In4       1.0  0.48400  0.25000  0.39700  1.0000
  In  In5       1.0  0.82900  0.75000  0.46600  1.0000
  In  In6       1.0  0.17100  0.25000  0.53400  1.0000
  In  In7       1.0  0.51600  0.75000  0.60300  1.0000
  In  In8       1.0  0.67900  0.25000  0.81300  1.0000
  In  In9       1.0  0.43200  0.25000  0.87700  1.0000
  In  In10      1.0  0.14800  0.75000  0.95300  1.0000
  Se  Se1       1.0  0.33600  0.25000  0.00730  1.0000
  Se  Se2       1.0  0.05640  0.75000  0.09150  1.0000
  Se  Se3       1.0  0.74300  0.25000  0.17800  1.0000
  Se  Se4       1.0  0.26200  0.25000  0.27300  1.0000
  Se  Se5       1.0  0.62100  0.75000  0.34200  1.0000
  Se  Se6       1.0  0.97100  0.25000  0.40800  1.0000
  Se  Se7       1.0  0.33000  0.75000  0.46700  1.0000
  Se  Se8       1.0  0.67000  0.25000  0.53300  1.0000
  Se  Se9       1.0  0.02930  0.75000  0.59200  1.0000
  Se  Se10      1.0  0.37900  0.25000  0.65800  1.0000
  Se  Se11      1.0  0.73800  0.75000  0.72700  1.0000
  Se  Se12      1.0  0.25700  0.75000  0.82200  1.0000
  Se  Se13      1.0  0.94400  0.25000  0.90800  1.0000
  Se  Se14      1.0  0.66400  0.75000  0.99300  1.0000
  Tl  Tl1       1.0  0.97700  0.75000  0.27200  1.0000
  Tl  Tl2       1.0  0.02250  0.25000  0.72800  1.0000
