data_image0
_chemical_formula_structural       Al14C6N6
_chemical_formula_sum              "Al14 C6 N6"
_cell_length_a       3.23877
_cell_length_b       3.23877
_cell_length_c       31.9388
_cell_angle_alpha    90
_cell_angle_beta     90
_cell_angle_gamma    120

_space_group_name_H-M_alt    "P 1"
_space_group_IT_number       1

loop_
  _space_group_symop_operation_xyz
  'x, y, z'

loop_
  _atom_site_type_symbol
  _atom_site_label
  _atom_site_symmetry_multiplicity
  _atom_site_fract_x
  _atom_site_fract_y
  _atom_site_fract_z
  _atom_site_occupancy
  Al  Al1       1.0  0.33300  0.66700  0.03010  1.0000
  Al  Al2       1.0  0.00000  0.00000  0.10800  1.0000
  Al  Al3       1.0  0.33300  0.66700  0.18700  1.0000
  Al  Al4       1.0  0.00000  0.00000  0.25900  1.0000
  Al  Al5       1.0  0.33300  0.66700  0.31600  1.0000
  Al  Al6       1.0  0.00000  0.00000  0.38900  1.0000
  Al  Al7       1.0  0.33300  0.66700  0.46800  1.0000
  Al  Al8       1.0  0.66700  0.33300  0.53000  1.0000
  Al  Al9       1.0  0.00000  0.00000  0.60800  1.0000
  Al  Al10      1.0  0.66700  0.33300  0.68700  1.0000
  Al  Al11      1.0  0.00000  0.00000  0.75900  1.0000
  Al  Al12      1.0  0.66700  0.33300  0.81600  1.0000
  Al  Al13      1.0  0.00000  0.00000  0.88900  1.0000
  Al  Al14      1.0  0.66700  0.33300  0.96800  1.0000
  C   C1        1.0  0.00000  0.00000  0.00000  1.0000
  C   C2        1.0  0.33300  0.66700  0.24800  1.0000
  C   C3        1.0  0.00000  0.00000  0.32900  1.0000
  C   C4        1.0  0.00000  0.00000  0.50000  1.0000
  C   C5        1.0  0.66700  0.33300  0.74800  1.0000
  C   C6        1.0  0.00000  0.00000  0.82900  1.0000
  N   N1        1.0  0.33300  0.66700  0.08790  1.0000
  N   N2        1.0  0.00000  0.00000  0.16600  1.0000
  N   N3        1.0  0.33300  0.66700  0.41100  1.0000
  N   N4        1.0  0.66700  0.33300  0.58800  1.0000
  N   N5        1.0  0.00000  0.00000  0.66600  1.0000
  N   N6        1.0  0.66700  0.33300  0.91100  1.0000
