data_image0
_chemical_formula_structural       C8I4N8Pt2Rb4
_chemical_formula_sum              "C8 I4 N8 Pt2 Rb4"
_cell_length_a       7.43889
_cell_length_b       9.27841
_cell_length_c       9.11696
_cell_angle_alpha    90
_cell_angle_beta     107.128
_cell_angle_gamma    90

_space_group_name_H-M_alt    "P 1"
_space_group_IT_number       1

loop_
  _space_group_symop_operation_xyz
  'x, y, z'

loop_
  _atom_site_type_symbol
  _atom_site_label
  _atom_site_symmetry_multiplicity
  _atom_site_fract_x
  _atom_site_fract_y
  _atom_site_fract_z
  _atom_site_occupancy
  C   C1        1.0  0.80100  0.03260  0.10500  1.0000
  C   C2        1.0  0.19300  0.96000  0.20200  1.0000
  C   C3        1.0  0.80700  0.46000  0.29800  1.0000
  C   C4        1.0  0.19900  0.53300  0.39500  1.0000
  C   C5        1.0  0.80100  0.46700  0.60500  1.0000
  C   C6        1.0  0.19300  0.54000  0.70200  1.0000
  C   C7        1.0  0.80700  0.04000  0.79800  1.0000
  C   C8        1.0  0.19900  0.96700  0.89500  1.0000
  I   I1        1.0  0.09150  0.28500  0.02960  1.0000
  I   I2        1.0  0.90900  0.78500  0.47000  1.0000
  I   I3        1.0  0.09150  0.21500  0.53000  1.0000
  I   I4        1.0  0.90900  0.71500  0.97000  1.0000
  N   N1        1.0  0.67900  0.05340  0.16000  1.0000
  N   N2        1.0  0.68900  0.43500  0.18400  1.0000
  N   N3        1.0  0.31100  0.93500  0.31600  1.0000
  N   N4        1.0  0.32100  0.55300  0.34000  1.0000
  N   N5        1.0  0.67900  0.44700  0.66000  1.0000
  N   N6        1.0  0.68900  0.06460  0.68400  1.0000
  N   N7        1.0  0.31100  0.56500  0.81600  1.0000
  N   N8        1.0  0.32100  0.94700  0.84000  1.0000
  Pt  Pt1       1.0  0.00000  0.00000  0.00000  1.0000
  Pt  Pt2       1.0  0.00000  0.50000  0.50000  1.0000
  Rb  Rb1       1.0  0.47700  0.71800  0.11800  1.0000
  Rb  Rb2       1.0  0.52300  0.21800  0.38200  1.0000
  Rb  Rb3       1.0  0.47700  0.78200  0.61800  1.0000
  Rb  Rb4       1.0  0.52300  0.28200  0.88200  1.0000
