data_image0
_chemical_formula_structural       C4Cs4F8O8Pt2
_chemical_formula_sum              "C4 Cs4 F8 O8 Pt2"
_cell_length_a       6.02419
_cell_length_b       7.62023
_cell_length_c       9.61356
_cell_angle_alpha    90.3154
_cell_angle_beta     90
_cell_angle_gamma    113.283

_space_group_name_H-M_alt    "P 1"
_space_group_IT_number       1

loop_
  _space_group_symop_operation_xyz
  'x, y, z'

loop_
  _atom_site_type_symbol
  _atom_site_label
  _atom_site_symmetry_multiplicity
  _atom_site_fract_x
  _atom_site_fract_y
  _atom_site_fract_z
  _atom_site_occupancy
  C   C1        1.0  0.76700  0.27700  0.46400  1.0000
  C   C2        1.0  0.51000  0.27700  0.46400  1.0000
  C   C3        1.0  0.49000  0.72300  0.53600  1.0000
  C   C4        1.0  0.23300  0.72300  0.53600  1.0000
  Cs  Cs1       1.0  0.27300  0.54500  0.16700  1.0000
  Cs  Cs2       1.0  0.95700  0.91400  0.20900  1.0000
  Cs  Cs3       1.0  0.04310  0.08630  0.79100  1.0000
  Cs  Cs4       1.0  0.72700  0.45500  0.83300  1.0000
  F   F1        1.0  0.84100  0.21200  0.04380  1.0000
  F   F2        1.0  0.37100  0.21200  0.04380  1.0000
  F   F3        1.0  0.75500  0.51100  0.16100  1.0000
  F   F4        1.0  0.47700  0.95300  0.21900  1.0000
  F   F5        1.0  0.52300  0.04650  0.78100  1.0000
  F   F6        1.0  0.24500  0.48900  0.83900  1.0000
  F   F7        1.0  0.62900  0.78800  0.95600  1.0000
  F   F8        1.0  0.15900  0.78800  0.95600  1.0000
  O   O1        1.0  0.85000  0.25400  0.34200  1.0000
  O   O2        1.0  0.40300  0.25400  0.34200  1.0000
  O   O3        1.0  0.58700  0.70500  0.42800  1.0000
  O   O4        1.0  0.11800  0.70500  0.42800  1.0000
  O   O5        1.0  0.88200  0.29500  0.57200  1.0000
  O   O6        1.0  0.41300  0.29500  0.57200  1.0000
  O   O7        1.0  0.59700  0.74600  0.65800  1.0000
  O   O8        1.0  0.15000  0.74600  0.65800  1.0000
  Pt  Pt1       1.0  0.61500  0.23100  0.18900  1.0000
  Pt  Pt2       1.0  0.38500  0.76900  0.81100  1.0000
