data_image0
_chemical_formula_structural       Al6C4O10Sc6
_chemical_formula_sum              "Al6 C4 O10 Sc6"
_cell_length_a       3.25212
_cell_length_b       3.25213
_cell_length_c       31.5417
_cell_angle_alpha    90
_cell_angle_beta     90
_cell_angle_gamma    120

_space_group_name_H-M_alt    "P 1"
_space_group_IT_number       1

loop_
  _space_group_symop_operation_xyz
  'x, y, z'

loop_
  _atom_site_type_symbol
  _atom_site_label
  _atom_site_symmetry_multiplicity
  _atom_site_fract_x
  _atom_site_fract_y
  _atom_site_fract_z
  _atom_site_occupancy
  Al  Al1       1.0  0.33300  0.66700  0.06870  1.0000
  Al  Al2       1.0  0.00000  0.00000  0.25000  1.0000
  Al  Al3       1.0  0.33300  0.66700  0.43100  1.0000
  Al  Al4       1.0  0.66700  0.33300  0.56900  1.0000
  Al  Al5       1.0  0.00000  0.00000  0.75000  1.0000
  Al  Al6       1.0  0.66700  0.33300  0.93100  1.0000
  C   C1        1.0  0.66700  0.33300  0.04600  1.0000
  C   C2        1.0  0.66700  0.33300  0.45400  1.0000
  C   C3        1.0  0.33300  0.66700  0.54600  1.0000
  C   C4        1.0  0.33300  0.66700  0.95400  1.0000
  O   O1        1.0  0.33300  0.66700  0.12700  1.0000
  O   O2        1.0  0.00000  0.00000  0.19100  1.0000
  O   O3        1.0  0.66700  0.33300  0.25000  1.0000
  O   O4        1.0  0.00000  0.00000  0.30900  1.0000
  O   O5        1.0  0.33300  0.66700  0.37300  1.0000
  O   O6        1.0  0.66700  0.33300  0.62700  1.0000
  O   O7        1.0  0.00000  0.00000  0.69100  1.0000
  O   O8        1.0  0.33300  0.66700  0.75000  1.0000
  O   O9        1.0  0.00000  0.00000  0.80900  1.0000
  O   O10       1.0  0.66700  0.33300  0.87300  1.0000
  Sc  Sc1       1.0  0.00000  0.00000  0.00000  1.0000
  Sc  Sc2       1.0  0.66700  0.33300  0.15900  1.0000
  Sc  Sc3       1.0  0.66700  0.33300  0.34100  1.0000
  Sc  Sc4       1.0  0.00000  0.00000  0.50000  1.0000
  Sc  Sc5       1.0  0.33300  0.66700  0.65900  1.0000
  Sc  Sc6       1.0  0.33300  0.66700  0.84100  1.0000
