data_image0
_chemical_formula_structural       Cl4Ni2O12Se4Sr4
_chemical_formula_sum              "Cl4 Ni2 O12 Se4 Sr4"
_cell_length_a       5.3439
_cell_length_b       6.42407
_cell_length_c       12.1469
_cell_angle_alpha    90
_cell_angle_beta     92.7749
_cell_angle_gamma    90

_space_group_name_H-M_alt    "P 1"
_space_group_IT_number       1

loop_
  _space_group_symop_operation_xyz
  'x, y, z'

loop_
  _atom_site_type_symbol
  _atom_site_label
  _atom_site_symmetry_multiplicity
  _atom_site_fract_x
  _atom_site_fract_y
  _atom_site_fract_z
  _atom_site_occupancy
  Cl  Cl1       1.0  0.54200  0.17400  0.10300  1.0000
  Cl  Cl2       1.0  0.95800  0.67400  0.39700  1.0000
  Cl  Cl3       1.0  0.04180  0.32600  0.60300  1.0000
  Cl  Cl4       1.0  0.45800  0.82600  0.89700  1.0000
  Ni  Ni1       1.0  0.50000  0.50000  0.00000  1.0000
  Ni  Ni2       1.0  0.00000  0.00000  0.50000  1.0000
  O   O1        1.0  0.22400  0.57700  0.10500  1.0000
  O   O2        1.0  0.74300  0.62300  0.12100  1.0000
  O   O3        1.0  0.05580  0.93200  0.17700  1.0000
  O   O4        1.0  0.44400  0.43200  0.32300  1.0000
  O   O5        1.0  0.75700  0.12300  0.37900  1.0000
  O   O6        1.0  0.27600  0.07670  0.39500  1.0000
  O   O7        1.0  0.72400  0.92300  0.60500  1.0000
  O   O8        1.0  0.24300  0.87700  0.62100  1.0000
  O   O9        1.0  0.55600  0.56800  0.67700  1.0000
  O   O10       1.0  0.94400  0.06780  0.82300  1.0000
  O   O11       1.0  0.25700  0.37700  0.87900  1.0000
  O   O12       1.0  0.77600  0.42300  0.89500  1.0000
  Se  Se1       1.0  0.99300  0.76300  0.07160  1.0000
  Se  Se2       1.0  0.50700  0.26300  0.42800  1.0000
  Se  Se3       1.0  0.49300  0.73700  0.57200  1.0000
  Se  Se4       1.0  0.00652  0.23700  0.92800  1.0000
  Sr  Sr1       1.0  0.01290  0.30400  0.23400  1.0000
  Sr  Sr2       1.0  0.48700  0.80400  0.26600  1.0000
  Sr  Sr3       1.0  0.51300  0.19600  0.73400  1.0000
  Sr  Sr4       1.0  0.98700  0.69600  0.76600  1.0000
