data_image0
_chemical_formula_structural       Ba4Cl4Co2O12Se4
_chemical_formula_sum              "Ba4 Cl4 Co2 O12 Se4"
_cell_length_a       6.7699
_cell_length_b       12.6278
_cell_length_c       5.38781
_cell_angle_alpha    90
_cell_angle_beta     90
_cell_angle_gamma    90

_space_group_name_H-M_alt    "P 1"
_space_group_IT_number       1

loop_
  _space_group_symop_operation_xyz
  'x, y, z'

loop_
  _atom_site_type_symbol
  _atom_site_label
  _atom_site_symmetry_multiplicity
  _atom_site_fract_x
  _atom_site_fract_y
  _atom_site_fract_z
  _atom_site_occupancy
  Ba  Ba1       1.0  0.80100  0.23100  0.00000  1.0000
  Ba  Ba2       1.0  0.19900  0.76900  0.00000  1.0000
  Ba  Ba3       1.0  0.30100  0.26900  0.50000  1.0000
  Ba  Ba4       1.0  0.69900  0.73100  0.50000  1.0000
  Cl  Cl1       1.0  0.17600  0.39800  0.00000  1.0000
  Cl  Cl2       1.0  0.82400  0.60200  0.00000  1.0000
  Cl  Cl3       1.0  0.67600  0.10200  0.50000  1.0000
  Cl  Cl4       1.0  0.32400  0.89800  0.50000  1.0000
  Co  Co1       1.0  0.50000  0.50000  0.00000  1.0000
  Co  Co2       1.0  0.00000  0.00000  0.50000  1.0000
  O   O1        1.0  0.41600  0.17500  0.00000  1.0000
  O   O2        1.0  0.58400  0.82500  0.00000  1.0000
  O   O3        1.0  0.10000  0.10900  0.24300  1.0000
  O   O4        1.0  0.90000  0.89100  0.24300  1.0000
  O   O5        1.0  0.60000  0.39100  0.25700  1.0000
  O   O6        1.0  0.40000  0.60900  0.25700  1.0000
  O   O7        1.0  0.91600  0.32500  0.50000  1.0000
  O   O8        1.0  0.08390  0.67500  0.50000  1.0000
  O   O9        1.0  0.60000  0.39100  0.74300  1.0000
  O   O10       1.0  0.40000  0.60900  0.74300  1.0000
  O   O11       1.0  0.10000  0.10900  0.75700  1.0000
  O   O12       1.0  0.90000  0.89100  0.75700  1.0000
  Se  Se1       1.0  0.25700  0.07120  0.00000  1.0000
  Se  Se2       1.0  0.74300  0.92900  0.00000  1.0000
  Se  Se3       1.0  0.75700  0.42900  0.50000  1.0000
  Se  Se4       1.0  0.24300  0.57100  0.50000  1.0000
