data_image0
_chemical_formula_structural       Co4O16P4Sr2
_chemical_formula_sum              "Co4 O16 P4 Sr2"
_cell_length_a       4.98645
_cell_length_b       8.61519
_cell_length_c       9.67052
_cell_angle_alpha    118.017
_cell_angle_beta     75.293
_cell_angle_gamma    86.7968

_space_group_name_H-M_alt    "P 1"
_space_group_IT_number       1

loop_
  _space_group_symop_operation_xyz
  'x, y, z'

loop_
  _atom_site_type_symbol
  _atom_site_label
  _atom_site_symmetry_multiplicity
  _atom_site_fract_x
  _atom_site_fract_y
  _atom_site_fract_z
  _atom_site_occupancy
  Co  Co1       1.0  0.54600  0.21200  0.29300  1.0000
  Co  Co2       1.0  0.96700  0.80600  0.41100  1.0000
  Co  Co3       1.0  0.03270  0.19400  0.58900  1.0000
  Co  Co4       1.0  0.45400  0.78800  0.70700  1.0000
  O   O1        1.0  0.30500  0.79800  0.05150  1.0000
  O   O2        1.0  0.82900  0.99200  0.15600  1.0000
  O   O3        1.0  0.79400  0.62000  0.18100  1.0000
  O   O4        1.0  0.23600  0.14700  0.20000  1.0000
  O   O5        1.0  0.70200  0.41200  0.29300  1.0000
  O   O6        1.0  0.28000  0.59400  0.29800  1.0000
  O   O7        1.0  0.06550  0.99400  0.36000  1.0000
  O   O8        1.0  0.58600  0.75000  0.48000  1.0000
  O   O9        1.0  0.41400  0.25000  0.52000  1.0000
  O   O10       1.0  0.93500  0.00564  0.64000  1.0000
  O   O11       1.0  0.72000  0.40600  0.70200  1.0000
  O   O12       1.0  0.29800  0.58800  0.70700  1.0000
  O   O13       1.0  0.76400  0.85300  0.80000  1.0000
  O   O14       1.0  0.20600  0.38000  0.81900  1.0000
  O   O15       1.0  0.17100  0.00829  0.84400  1.0000
  O   O16       1.0  0.69500  0.20200  0.94800  1.0000
  P   P1        1.0  0.11900  0.97900  0.18600  1.0000
  P   P2        1.0  0.58200  0.59200  0.31000  1.0000
  P   P3        1.0  0.41800  0.40800  0.69000  1.0000
  P   P4        1.0  0.88100  0.02070  0.81400  1.0000
  Sr  Sr1       1.0  0.17300  0.32100  0.05320  1.0000
  Sr  Sr2       1.0  0.82700  0.67900  0.94700  1.0000
