data_image0
_chemical_formula_structural       Co2Cu4Gd2O14Sr4
_chemical_formula_sum              "Co2 Cu4 Gd2 O14 Sr4"
_cell_length_a       5.3779
_cell_length_b       5.44489
_cell_length_c       12.0385
_cell_angle_alpha    103.07
_cell_angle_beta     102.907
_cell_angle_gamma    90

_space_group_name_H-M_alt    "P 1"
_space_group_IT_number       1

loop_
  _space_group_symop_operation_xyz
  'x, y, z'

loop_
  _atom_site_type_symbol
  _atom_site_label
  _atom_site_symmetry_multiplicity
  _atom_site_fract_x
  _atom_site_fract_y
  _atom_site_fract_z
  _atom_site_occupancy
  Co  Co1       1.0  0.78000  0.31200  0.50000  1.0000
  Co  Co2       1.0  0.28000  0.68800  0.50000  1.0000
  Cu  Cu1       1.0  0.56900  0.07340  0.14700  1.0000
  Cu  Cu2       1.0  0.06920  0.57300  0.14700  1.0000
  Cu  Cu3       1.0  0.92300  0.42700  0.85300  1.0000
  Cu  Cu4       1.0  0.42300  0.92700  0.85300  1.0000
  Gd  Gd1       1.0  0.99700  0.00000  0.00000  1.0000
  Gd  Gd2       1.0  0.49700  0.50000  0.00000  1.0000
  O   O1        1.0  0.31000  0.81100  0.12600  1.0000
  O   O2        1.0  0.81000  0.81500  0.12600  1.0000
  O   O3        1.0  0.31100  0.31600  0.13100  1.0000
  O   O4        1.0  0.81100  0.31600  0.13100  1.0000
  O   O5        1.0  0.65000  0.14000  0.35000  1.0000
  O   O6        1.0  0.15000  0.70900  0.35000  1.0000
  O   O7        1.0  0.13900  0.35900  0.50000  1.0000
  O   O8        1.0  0.63900  0.64100  0.50000  1.0000
  O   O9        1.0  0.80100  0.29100  0.65000  1.0000
  O   O10       1.0  0.30100  0.86000  0.65000  1.0000
  O   O11       1.0  0.68000  0.68400  0.86900  1.0000
  O   O12       1.0  0.18000  0.68400  0.86900  1.0000
  O   O13       1.0  0.68500  0.18500  0.87400  1.0000
  O   O14       1.0  0.18500  0.18900  0.87400  1.0000
  Sr  Sr1       1.0  0.14900  0.14200  0.30400  1.0000
  Sr  Sr2       1.0  0.64900  0.66200  0.30400  1.0000
  Sr  Sr3       1.0  0.34500  0.33800  0.69600  1.0000
  Sr  Sr4       1.0  0.84500  0.85800  0.69600  1.0000
