data_image0
_chemical_formula_structural       Cl18Cs2W6
_chemical_formula_sum              "Cl18 Cs2 W6"
_cell_length_a       9.55908
_cell_length_b       9.55873
_cell_length_c       8.5208
_cell_angle_alpha    90.0065
_cell_angle_beta     89.9976
_cell_angle_gamma    119.993

_space_group_name_H-M_alt    "P 1"
_space_group_IT_number       1

loop_
  _space_group_symop_operation_xyz
  'x, y, z'

loop_
  _atom_site_type_symbol
  _atom_site_label
  _atom_site_symmetry_multiplicity
  _atom_site_fract_x
  _atom_site_fract_y
  _atom_site_fract_z
  _atom_site_occupancy
  Cl  Cl1       1.0  0.58600  0.74300  0.00028  1.0000
  Cl  Cl2       1.0  0.25700  0.84400  0.00028  1.0000
  Cl  Cl3       1.0  0.15700  0.41400  0.00030  1.0000
  Cl  Cl4       1.0  0.35400  0.41400  0.30300  1.0000
  Cl  Cl5       1.0  0.58500  0.93900  0.30300  1.0000
  Cl  Cl6       1.0  0.06090  0.64600  0.30300  1.0000
  Cl  Cl7       1.0  0.96800  0.18300  0.31500  1.0000
  Cl  Cl8       1.0  0.21500  0.03180  0.31500  1.0000
  Cl  Cl9       1.0  0.81700  0.78500  0.31500  1.0000
  Cl  Cl10      1.0  0.18300  0.21500  0.68500  1.0000
  Cl  Cl11      1.0  0.78500  0.96800  0.68500  1.0000
  Cl  Cl12      1.0  0.03180  0.81700  0.68500  1.0000
  Cl  Cl13      1.0  0.93900  0.35400  0.69700  1.0000
  Cl  Cl14      1.0  0.41500  0.06090  0.69700  1.0000
  Cl  Cl15      1.0  0.64600  0.58600  0.69700  1.0000
  Cl  Cl16      1.0  0.84300  0.58600  1.00000  1.0000
  Cl  Cl17      1.0  0.74300  0.15600  0.00000  1.0000
  Cl  Cl18      1.0  0.41400  0.25700  1.00000  1.0000
  Cs  Cs1       1.0  0.66700  0.33300  0.40300  1.0000
  Cs  Cs2       1.0  0.33300  0.66700  0.59700  1.0000
  W   W1        1.0  0.16300  0.19200  0.12800  1.0000
  W   W2        1.0  0.80800  0.97100  0.12800  1.0000
  W   W3        1.0  0.02870  0.83700  0.12800  1.0000
  W   W4        1.0  0.97100  0.16300  0.87200  1.0000
  W   W5        1.0  0.19200  0.02870  0.87200  1.0000
  W   W6        1.0  0.83700  0.80800  0.87200  1.0000
