data_image0
_chemical_formula_structural       CdClO15Rb4V5
_chemical_formula_sum              "Cd1 Cl1 O15 Rb4 V5"
_cell_length_a       9.16965
_cell_length_b       9.16965
_cell_length_c       5.42607
_cell_angle_alpha    90
_cell_angle_beta     90
_cell_angle_gamma    90

_space_group_name_H-M_alt    "P 1"
_space_group_IT_number       1

loop_
  _space_group_symop_operation_xyz
  'x, y, z'

loop_
  _atom_site_type_symbol
  _atom_site_label
  _atom_site_symmetry_multiplicity
  _atom_site_fract_x
  _atom_site_fract_y
  _atom_site_fract_z
  _atom_site_occupancy
  Cd  Cd1       1.0  0.00000  0.00000  0.49800  1.0000
  Cl  Cl1       1.0  0.00000  0.00000  0.02840  1.0000
  O   O1        1.0  0.38600  0.14200  0.15500  1.0000
  O   O2        1.0  0.85800  0.38600  0.15500  1.0000
  O   O3        1.0  0.14200  0.61400  0.15500  1.0000
  O   O4        1.0  0.61400  0.85800  0.15500  1.0000
  O   O5        1.0  0.50000  0.50000  0.19300  1.0000
  O   O6        1.0  0.21100  0.11500  0.56500  1.0000
  O   O7        1.0  0.88500  0.21100  0.56500  1.0000
  O   O8        1.0  0.11500  0.78900  0.56500  1.0000
  O   O9        1.0  0.78900  0.88500  0.56500  1.0000
  O   O10       1.0  0.50000  0.00000  0.58100  1.0000
  O   O11       1.0  0.00000  0.50000  0.58100  1.0000
  O   O12       1.0  0.44600  0.31000  0.58600  1.0000
  O   O13       1.0  0.69000  0.44600  0.58600  1.0000
  O   O14       1.0  0.31000  0.55400  0.58600  1.0000
  O   O15       1.0  0.55400  0.69000  0.58600  1.0000
  Rb  Rb1       1.0  0.67500  0.16400  0.94400  1.0000
  Rb  Rb2       1.0  0.16400  0.32500  0.94400  1.0000
  Rb  Rb3       1.0  0.83600  0.67500  0.94400  1.0000
  Rb  Rb4       1.0  0.32500  0.83600  0.94400  1.0000
  V   V1        1.0  0.38200  0.14300  0.46100  1.0000
  V   V2        1.0  0.85700  0.38200  0.46100  1.0000
  V   V3        1.0  0.14300  0.61800  0.46100  1.0000
  V   V4        1.0  0.61800  0.85700  0.46100  1.0000
  V   V5        1.0  0.50000  0.50000  0.49200  1.0000
