data_image0
_chemical_formula_structural       K12O10Pb4
_chemical_formula_sum              "K12 O10 Pb4"
_cell_length_a       13.3042
_cell_length_b       7.59231
_cell_length_c       6.36361
_cell_angle_alpha    91.8322
_cell_angle_beta     94.4864
_cell_angle_gamma    113.018

_space_group_name_H-M_alt    "P 1"
_space_group_IT_number       1

loop_
  _space_group_symop_operation_xyz
  'x, y, z'

loop_
  _atom_site_type_symbol
  _atom_site_label
  _atom_site_symmetry_multiplicity
  _atom_site_fract_x
  _atom_site_fract_y
  _atom_site_fract_z
  _atom_site_occupancy
  K   K1        1.0  0.38400  0.79000  0.08040  1.0000
  K   K2        1.0  0.12400  0.82600  0.22000  1.0000
  K   K3        1.0  0.87800  0.39300  0.30300  1.0000
  K   K4        1.0  0.87800  0.92700  0.31300  1.0000
  K   K5        1.0  0.62500  0.49500  0.40900  1.0000
  K   K6        1.0  0.63500  0.02780  0.43400  1.0000
  K   K7        1.0  0.36500  0.97200  0.56600  1.0000
  K   K8        1.0  0.37500  0.50500  0.59100  1.0000
  K   K9        1.0  0.12200  0.07310  0.68700  1.0000
  K   K10       1.0  0.12200  0.60700  0.69700  1.0000
  K   K11       1.0  0.87600  0.17400  0.78000  1.0000
  K   K12       1.0  0.61600  0.21000  0.92000  1.0000
  O   O1        1.0  0.74200  0.05030  0.08220  1.0000
  O   O2        1.0  0.48000  0.15600  0.25600  1.0000
  O   O3        1.0  0.24400  0.19100  0.35300  1.0000
  O   O4        1.0  0.24300  0.62700  0.38000  1.0000
  O   O5        1.0  0.02490  0.26700  0.48300  1.0000
  O   O6        1.0  0.97500  0.73300  0.51700  1.0000
  O   O7        1.0  0.75700  0.37300  0.62000  1.0000
  O   O8        1.0  0.75600  0.80900  0.64700  1.0000
  O   O9        1.0  0.52000  0.84400  0.74400  1.0000
  O   O10       1.0  0.25800  0.95000  0.91800  1.0000
  Pb  Pb1       1.0  0.35400  0.22700  0.08490  1.0000
  Pb  Pb2       1.0  0.13600  0.34700  0.23700  1.0000
  Pb  Pb3       1.0  0.86400  0.65300  0.76300  1.0000
  Pb  Pb4       1.0  0.64600  0.77300  0.91500  1.0000
