data_image0
_chemical_formula_structural       Ni2O16P4Sr2Zn2
_chemical_formula_sum              "Ni2 O16 P4 Sr2 Zn2"
_cell_length_a       5.43153
_cell_length_b       6.73021
_cell_length_c       9.17116
_cell_angle_alpha    110.502
_cell_angle_beta     101.266
_cell_angle_gamma    98.0577

_space_group_name_H-M_alt    "P 1"
_space_group_IT_number       1

loop_
  _space_group_symop_operation_xyz
  'x, y, z'

loop_
  _atom_site_type_symbol
  _atom_site_label
  _atom_site_symmetry_multiplicity
  _atom_site_fract_x
  _atom_site_fract_y
  _atom_site_fract_z
  _atom_site_occupancy
  Ni  Ni1       1.0  0.36000  0.14500  0.44000  1.0000
  Ni  Ni2       1.0  0.64000  0.85500  0.56000  1.0000
  O   O1        1.0  0.17300  0.45000  0.11500  1.0000
  O   O2        1.0  0.74400  0.99700  0.12700  1.0000
  O   O3        1.0  0.65600  0.48100  0.20000  1.0000
  O   O4        1.0  0.34700  0.19500  0.23700  1.0000
  O   O5        1.0  0.05050  0.88400  0.31100  1.0000
  O   O6        1.0  0.62000  0.95200  0.36800  1.0000
  O   O7        1.0  0.38200  0.59200  0.40400  1.0000
  O   O8        1.0  0.99800  0.26400  0.41700  1.0000
  O   O9        1.0  0.00200  0.73600  0.58300  1.0000
  O   O10       1.0  0.61800  0.40800  0.59600  1.0000
  O   O11       1.0  0.38000  0.04770  0.63200  1.0000
  O   O12       1.0  0.95000  0.11600  0.68900  1.0000
  O   O13       1.0  0.65300  0.80500  0.76300  1.0000
  O   O14       1.0  0.34400  0.51900  0.80000  1.0000
  O   O15       1.0  0.25600  0.00323  0.87300  1.0000
  O   O16       1.0  0.82700  0.55000  0.88500  1.0000
  P   P1        1.0  0.39400  0.42500  0.23700  1.0000
  P   P2        1.0  0.84400  0.02480  0.30100  1.0000
  P   P3        1.0  0.15600  0.97500  0.69900  1.0000
  P   P4        1.0  0.60600  0.57500  0.76300  1.0000
  Sr  Sr1       1.0  0.25300  0.79800  0.05490  1.0000
  Sr  Sr2       1.0  0.74700  0.20200  0.94500  1.0000
  Zn  Zn1       1.0  0.00364  0.59800  0.35000  1.0000
  Zn  Zn2       1.0  0.99600  0.40200  0.65000  1.0000
