data_image0
_chemical_formula_structural       B2Cs2O16P4Zn2
_chemical_formula_sum              "B2 Cs2 O16 P4 Zn2"
_cell_length_a       7.41617
_cell_length_b       7.81213
_cell_length_c       7.96033
_cell_angle_alpha    118.218
_cell_angle_beta     102.906
_cell_angle_gamma    104.612

_space_group_name_H-M_alt    "P 1"
_space_group_IT_number       1

loop_
  _space_group_symop_operation_xyz
  'x, y, z'

loop_
  _atom_site_type_symbol
  _atom_site_label
  _atom_site_symmetry_multiplicity
  _atom_site_fract_x
  _atom_site_fract_y
  _atom_site_fract_z
  _atom_site_occupancy
  B   B1        1.0  0.30400  0.07650  0.07320  1.0000
  B   B2        1.0  0.69600  0.92400  0.92700  1.0000
  Cs  Cs1       1.0  0.26200  0.64700  0.40400  1.0000
  Cs  Cs2       1.0  0.73800  0.35300  0.59600  1.0000
  O   O1        1.0  0.76300  0.42100  0.04090  1.0000
  O   O2        1.0  0.46100  0.25100  0.08880  1.0000
  O   O3        1.0  0.83800  0.09000  0.14200  1.0000
  O   O4        1.0  0.40800  0.98400  0.16200  1.0000
  O   O5        1.0  0.21000  0.18600  0.20800  1.0000
  O   O6        1.0  0.02230  0.89300  0.24300  1.0000
  O   O7        1.0  0.58300  0.79900  0.26100  1.0000
  O   O8        1.0  0.09620  0.29000  0.49600  1.0000
  O   O9        1.0  0.90400  0.71000  0.50400  1.0000
  O   O10       1.0  0.41700  0.20100  0.73900  1.0000
  O   O11       1.0  0.97800  0.10700  0.75700  1.0000
  O   O12       1.0  0.79000  0.81400  0.79200  1.0000
  O   O13       1.0  0.59200  0.01610  0.83800  1.0000
  O   O14       1.0  0.16200  0.91000  0.85800  1.0000
  O   O15       1.0  0.53900  0.74900  0.91100  1.0000
  O   O16       1.0  0.23700  0.57900  0.95900  1.0000
  P   P1        1.0  0.43900  0.77300  0.07070  1.0000
  P   P2        1.0  0.04120  0.10500  0.27500  1.0000
  P   P3        1.0  0.95900  0.89500  0.72500  1.0000
  P   P4        1.0  0.56100  0.22700  0.92900  1.0000
  Zn  Zn1       1.0  0.80000  0.70400  0.25300  1.0000
  Zn  Zn2       1.0  0.20000  0.29600  0.74700  1.0000
