data_image0
_chemical_formula_structural       Ba10N12Ti4
_chemical_formula_sum              "Ba10 N12 Ti4"
_cell_length_a       6.56743
_cell_length_b       9.53068
_cell_length_c       9.85356
_cell_angle_alpha    106.24
_cell_angle_beta     101.852
_cell_angle_gamma    108.867

_space_group_name_H-M_alt    "P 1"
_space_group_IT_number       1

loop_
  _space_group_symop_operation_xyz
  'x, y, z'

loop_
  _atom_site_type_symbol
  _atom_site_label
  _atom_site_symmetry_multiplicity
  _atom_site_fract_x
  _atom_site_fract_y
  _atom_site_fract_z
  _atom_site_occupancy
  Ba  Ba1       1.0  0.03050  0.72200  0.04270  1.0000
  Ba  Ba2       1.0  0.58300  0.41300  0.12700  1.0000
  Ba  Ba3       1.0  0.79800  0.01320  0.13500  1.0000
  Ba  Ba4       1.0  0.20700  0.44700  0.39600  1.0000
  Ba  Ba5       1.0  0.15800  0.86400  0.44700  1.0000
  Ba  Ba6       1.0  0.84200  0.13600  0.55300  1.0000
  Ba  Ba7       1.0  0.79300  0.55300  0.60400  1.0000
  Ba  Ba8       1.0  0.20200  0.98700  0.86500  1.0000
  Ba  Ba9       1.0  0.41700  0.58700  0.87300  1.0000
  Ba  Ba10      1.0  0.96900  0.27800  0.95700  1.0000
  N   N1        1.0  0.23900  0.17400  0.15300  1.0000
  N   N2        1.0  0.25500  0.56700  0.17500  1.0000
  N   N3        1.0  0.76200  0.75400  0.20200  1.0000
  N   N4        1.0  0.44700  0.93600  0.26400  1.0000
  N   N5        1.0  0.74800  0.29900  0.33200  1.0000
  N   N6        1.0  0.37900  0.21400  0.49900  1.0000
  N   N7        1.0  0.62100  0.78600  0.50100  1.0000
  N   N8        1.0  0.25200  0.70100  0.66800  1.0000
  N   N9        1.0  0.55300  0.06420  0.73600  1.0000
  N   N10       1.0  0.23800  0.24600  0.79800  1.0000
  N   N11       1.0  0.74500  0.43300  0.82500  1.0000
  N   N12       1.0  0.76100  0.82600  0.84700  1.0000
  Ti  Ti1       1.0  0.52500  0.75800  0.28800  1.0000
  Ti  Ti2       1.0  0.44300  0.15400  0.30700  1.0000
  Ti  Ti3       1.0  0.55700  0.84600  0.69300  1.0000
  Ti  Ti4       1.0  0.47500  0.24200  0.71200  1.0000
