data_image0
_chemical_formula_structural       O18P4Te4
_chemical_formula_sum              "O18 P4 Te4"
_cell_length_a       5.35041
_cell_length_b       7.29983
_cell_length_c       9.48376
_cell_angle_alpha    95.0221
_cell_angle_beta     103.82
_cell_angle_gamma    68.5016

_space_group_name_H-M_alt    "P 1"
_space_group_IT_number       1

loop_
  _space_group_symop_operation_xyz
  'x, y, z'

loop_
  _atom_site_type_symbol
  _atom_site_label
  _atom_site_symmetry_multiplicity
  _atom_site_fract_x
  _atom_site_fract_y
  _atom_site_fract_z
  _atom_site_occupancy
  O   O1        1.0  0.49200  0.78500  0.02650  1.0000
  O   O2        1.0  0.09710  0.62200  0.06630  1.0000
  O   O3        1.0  0.56900  0.11200  0.07530  1.0000
  O   O4        1.0  0.05860  0.06970  0.07800  1.0000
  O   O5        1.0  0.70400  0.41200  0.09540  1.0000
  O   O6        1.0  0.88000  0.76600  0.28100  1.0000
  O   O7        1.0  0.38200  0.71500  0.29300  1.0000
  O   O8        1.0  0.23300  0.42600  0.30200  1.0000
  O   O9        1.0  0.88000  0.17900  0.30700  1.0000
  O   O10       1.0  0.27700  0.21500  0.52700  1.0000
  O   O11       1.0  0.71900  0.37800  0.56600  1.0000
  O   O12       1.0  0.68100  0.88800  0.57500  1.0000
  O   O13       1.0  0.12800  0.93000  0.57800  1.0000
  O   O14       1.0  0.11600  0.58800  0.59500  1.0000
  O   O15       1.0  0.64600  0.23400  0.78100  1.0000
  O   O16       1.0  0.09690  0.28500  0.79300  1.0000
  O   O17       1.0  0.65900  0.57400  0.80200  1.0000
  O   O18       1.0  0.05880  0.82100  0.80700  1.0000
  P   P1        1.0  0.80300  0.19300  0.13800  1.0000
  P   P2        1.0  0.14800  0.63200  0.23400  1.0000
  P   P3        1.0  0.99600  0.80700  0.63800  1.0000
  P   P4        1.0  0.78000  0.36800  0.73400  1.0000
  Te  Te1       1.0  0.45800  0.94200  0.20000  1.0000
  Te  Te2       1.0  0.94600  0.42100  0.43300  1.0000
  Te  Te3       1.0  0.40000  0.05770  0.70000  1.0000
  Te  Te4       1.0  0.36600  0.57900  0.93300  1.0000
