data_image0
_chemical_formula_structural       C8Cs4I4N8Pt2
_chemical_formula_sum              "C8 Cs4 I4 N8 Pt2"
_cell_length_a       7.69165
_cell_length_b       9.56952
_cell_length_c       9.34379
_cell_angle_alpha    90
_cell_angle_beta     106.469
_cell_angle_gamma    90

_space_group_name_H-M_alt    "P 1"
_space_group_IT_number       1

loop_
  _space_group_symop_operation_xyz
  'x, y, z'

loop_
  _atom_site_type_symbol
  _atom_site_label
  _atom_site_symmetry_multiplicity
  _atom_site_fract_x
  _atom_site_fract_y
  _atom_site_fract_z
  _atom_site_occupancy
  C   C1        1.0  0.80600  0.02610  0.10400  1.0000
  C   C2        1.0  0.18300  0.96200  0.19600  1.0000
  C   C3        1.0  0.81700  0.46200  0.30400  1.0000
  C   C4        1.0  0.19400  0.52600  0.39600  1.0000
  C   C5        1.0  0.80600  0.47400  0.60400  1.0000
  C   C6        1.0  0.18300  0.53800  0.69600  1.0000
  C   C7        1.0  0.81700  0.03850  0.80400  1.0000
  C   C8        1.0  0.19400  0.97400  0.89600  1.0000
  Cs  Cs1       1.0  0.47800  0.71900  0.11600  1.0000
  Cs  Cs2       1.0  0.52200  0.21900  0.38400  1.0000
  Cs  Cs3       1.0  0.47800  0.78100  0.61600  1.0000
  Cs  Cs4       1.0  0.52200  0.28100  0.88400  1.0000
  I   I1        1.0  0.08070  0.27800  0.03090  1.0000
  I   I2        1.0  0.91900  0.77800  0.46900  1.0000
  I   I3        1.0  0.08070  0.22200  0.53100  1.0000
  I   I4        1.0  0.91900  0.72200  0.96900  1.0000
  N   N1        1.0  0.69000  0.04250  0.16000  1.0000
  N   N2        1.0  0.70500  0.43800  0.19200  1.0000
  N   N3        1.0  0.29500  0.93800  0.30800  1.0000
  N   N4        1.0  0.31000  0.54200  0.34000  1.0000
  N   N5        1.0  0.69000  0.45800  0.66000  1.0000
  N   N6        1.0  0.70500  0.06210  0.69200  1.0000
  N   N7        1.0  0.29500  0.56200  0.80800  1.0000
  N   N8        1.0  0.31000  0.95800  0.84000  1.0000
  Pt  Pt1       1.0  0.00000  0.00000  0.00000  1.0000
  Pt  Pt2       1.0  0.00000  0.50000  0.50000  1.0000
