data_image0
_chemical_formula_structural       Ce2O18P6
_chemical_formula_sum              "Ce2 O18 P6"
_cell_length_a       7.06467
_cell_length_b       7.06467
_cell_length_c       7.27972
_cell_angle_alpha    90
_cell_angle_beta     90
_cell_angle_gamma    105.056

_space_group_name_H-M_alt    "P 1"
_space_group_IT_number       1

loop_
  _space_group_symop_operation_xyz
  'x, y, z'

loop_
  _atom_site_type_symbol
  _atom_site_label
  _atom_site_symmetry_multiplicity
  _atom_site_fract_x
  _atom_site_fract_y
  _atom_site_fract_z
  _atom_site_occupancy
  Ce  Ce1       1.0  0.12400  0.12400  0.00000  1.0000
  Ce  Ce2       1.0  0.87600  0.87600  0.50000  1.0000
  O   O1        1.0  0.82500  0.21600  0.04310  1.0000
  O   O2        1.0  0.21900  0.47500  0.04420  1.0000
  O   O3        1.0  0.53000  0.74900  0.04760  1.0000
  O   O4        1.0  0.87000  0.82300  0.16800  1.0000
  O   O5        1.0  0.62100  0.37900  0.25000  1.0000
  O   O6        1.0  0.17700  0.13000  0.33200  1.0000
  O   O7        1.0  0.25100  0.47000  0.45200  1.0000
  O   O8        1.0  0.52500  0.78100  0.45600  1.0000
  O   O9        1.0  0.78400  0.17500  0.45700  1.0000
  O   O10       1.0  0.17500  0.78400  0.54300  1.0000
  O   O11       1.0  0.78100  0.52500  0.54400  1.0000
  O   O12       1.0  0.47000  0.25100  0.54800  1.0000
  O   O13       1.0  0.13000  0.17700  0.66800  1.0000
  O   O14       1.0  0.37900  0.62100  0.75000  1.0000
  O   O15       1.0  0.82300  0.87000  0.83200  1.0000
  O   O16       1.0  0.74900  0.53000  0.95200  1.0000
  O   O17       1.0  0.47500  0.21900  0.95600  1.0000
  O   O18       1.0  0.21600  0.82500  0.95700  1.0000
  P   P1        1.0  0.74800  0.74800  0.00000  1.0000
  P   P2        1.0  0.66500  0.31700  0.04500  1.0000
  P   P3        1.0  0.68300  0.33500  0.45500  1.0000
  P   P4        1.0  0.25200  0.25200  0.50000  1.0000
  P   P5        1.0  0.33500  0.68300  0.54500  1.0000
  P   P6        1.0  0.31700  0.66500  0.95500  1.0000
