data_image0
_chemical_formula_structural       K6Lu2O14Si4
_chemical_formula_sum              "K6 Lu2 O14 Si4"
_cell_length_a       5.70079
_cell_length_b       5.70083
_cell_length_c       13.9186
_cell_angle_alpha    90
_cell_angle_beta     90
_cell_angle_gamma    120

_space_group_name_H-M_alt    "P 1"
_space_group_IT_number       1

loop_
  _space_group_symop_operation_xyz
  'x, y, z'

loop_
  _atom_site_type_symbol
  _atom_site_label
  _atom_site_symmetry_multiplicity
  _atom_site_fract_x
  _atom_site_fract_y
  _atom_site_fract_z
  _atom_site_occupancy
  K   K1        1.0  0.33300  0.66700  0.09210  1.0000
  K   K2        1.0  0.00000  0.00000  0.25000  1.0000
  K   K3        1.0  0.33300  0.66700  0.40800  1.0000
  K   K4        1.0  0.66700  0.33300  0.59200  1.0000
  K   K5        1.0  0.00000  0.00000  0.75000  1.0000
  K   K6        1.0  0.66700  0.33300  0.90800  1.0000
  Lu  Lu1       1.0  0.00000  0.00000  0.00000  1.0000
  Lu  Lu2       1.0  0.00000  0.00000  0.50000  1.0000
  O   O1        1.0  0.82400  0.64700  0.09500  1.0000
  O   O2        1.0  0.35300  0.17600  0.09500  1.0000
  O   O3        1.0  0.82400  0.17600  0.09500  1.0000
  O   O4        1.0  0.66700  0.33300  0.25000  1.0000
  O   O5        1.0  0.35300  0.17600  0.40500  1.0000
  O   O6        1.0  0.82400  0.17600  0.40500  1.0000
  O   O7        1.0  0.82400  0.64700  0.40500  1.0000
  O   O8        1.0  0.17600  0.35300  0.59500  1.0000
  O   O9        1.0  0.17600  0.82400  0.59500  1.0000
  O   O10       1.0  0.64700  0.82400  0.59500  1.0000
  O   O11       1.0  0.33300  0.66700  0.75000  1.0000
  O   O12       1.0  0.17600  0.82400  0.90500  1.0000
  O   O13       1.0  0.64700  0.82400  0.90500  1.0000
  O   O14       1.0  0.17600  0.35300  0.90500  1.0000
  Si  Si1       1.0  0.66700  0.33300  0.13100  1.0000
  Si  Si2       1.0  0.66700  0.33300  0.36900  1.0000
  Si  Si3       1.0  0.33300  0.66700  0.63100  1.0000
  Si  Si4       1.0  0.33300  0.66700  0.86900  1.0000
