data_image0
_chemical_formula_structural       CdClO15Tl4V5
_chemical_formula_sum              "Cd1 Cl1 O15 Tl4 V5"
_cell_length_a       9.16435
_cell_length_b       9.16435
_cell_length_c       5.34614
_cell_angle_alpha    90
_cell_angle_beta     90
_cell_angle_gamma    90

_space_group_name_H-M_alt    "P 1"
_space_group_IT_number       1

loop_
  _space_group_symop_operation_xyz
  'x, y, z'

loop_
  _atom_site_type_symbol
  _atom_site_label
  _atom_site_symmetry_multiplicity
  _atom_site_fract_x
  _atom_site_fract_y
  _atom_site_fract_z
  _atom_site_occupancy
  Cd  Cd1       1.0  0.00000  0.00000  0.49800  1.0000
  Cl  Cl1       1.0  0.00000  0.00000  0.02350  1.0000
  O   O1        1.0  0.38000  0.14400  0.13500  1.0000
  O   O2        1.0  0.85600  0.38000  0.13500  1.0000
  O   O3        1.0  0.14400  0.62000  0.13500  1.0000
  O   O4        1.0  0.62000  0.85600  0.13500  1.0000
  O   O5        1.0  0.50000  0.50000  0.17300  1.0000
  O   O6        1.0  0.21000  0.11900  0.56100  1.0000
  O   O7        1.0  0.88100  0.21000  0.56100  1.0000
  O   O8        1.0  0.11900  0.79000  0.56100  1.0000
  O   O9        1.0  0.79000  0.88100  0.56100  1.0000
  O   O10       1.0  0.50000  0.00000  0.56500  1.0000
  O   O11       1.0  0.00000  0.50000  0.56500  1.0000
  O   O12       1.0  0.44800  0.30900  0.57100  1.0000
  O   O13       1.0  0.69100  0.44800  0.57100  1.0000
  O   O14       1.0  0.30900  0.55200  0.57100  1.0000
  O   O15       1.0  0.55200  0.69100  0.57100  1.0000
  Tl  Tl1       1.0  0.68000  0.16500  0.92500  1.0000
  Tl  Tl2       1.0  0.16500  0.32000  0.92500  1.0000
  Tl  Tl3       1.0  0.83500  0.68000  0.92500  1.0000
  Tl  Tl4       1.0  0.32000  0.83500  0.92500  1.0000
  V   V1        1.0  0.38100  0.14300  0.44600  1.0000
  V   V2        1.0  0.85700  0.38100  0.44600  1.0000
  V   V3        1.0  0.14300  0.61900  0.44600  1.0000
  V   V4        1.0  0.61900  0.85700  0.44600  1.0000
  V   V5        1.0  0.50000  0.50000  0.47500  1.0000
