data_image0
_chemical_formula_structural       Ag10Cd16
_chemical_formula_sum              "Ag10 Cd16"
_cell_length_a       8.71687
_cell_length_b       8.71687
_cell_length_c       8.71687
_cell_angle_alpha    109.471
_cell_angle_beta     109.471
_cell_angle_gamma    109.471

_space_group_name_H-M_alt    "P 1"
_space_group_IT_number       1

loop_
  _space_group_symop_operation_xyz
  'x, y, z'

loop_
  _atom_site_type_symbol
  _atom_site_label
  _atom_site_symmetry_multiplicity
  _atom_site_fract_x
  _atom_site_fract_y
  _atom_site_fract_z
  _atom_site_occupancy
  Ag  Ag1       1.0  0.34500  0.00000  0.00000  1.0000
  Ag  Ag2       1.0  0.00000  0.34500  0.00000  1.0000
  Ag  Ag3       1.0  0.35600  0.35600  0.00000  1.0000
  Ag  Ag4       1.0  0.64400  0.64400  0.00000  1.0000
  Ag  Ag5       1.0  0.00000  0.00000  0.34500  1.0000
  Ag  Ag6       1.0  0.35600  0.00000  0.35600  1.0000
  Ag  Ag7       1.0  0.00000  0.35600  0.35600  1.0000
  Ag  Ag8       1.0  0.64400  0.00000  0.64400  1.0000
  Ag  Ag9       1.0  0.00000  0.64400  0.64400  1.0000
  Ag  Ag10      1.0  0.65500  0.65500  0.65500  1.0000
  Cd  Cd1       1.0  0.77900  0.00000  0.00000  1.0000
  Cd  Cd2       1.0  0.65200  0.28100  0.00000  1.0000
  Cd  Cd3       1.0  0.28100  0.65200  0.00000  1.0000
  Cd  Cd4       1.0  0.00000  0.77900  0.00000  1.0000
  Cd  Cd5       1.0  0.22100  0.22100  0.22100  1.0000
  Cd  Cd6       1.0  0.65200  0.00000  0.28100  1.0000
  Cd  Cd7       1.0  0.00000  0.65200  0.28100  1.0000
  Cd  Cd8       1.0  0.62900  0.34800  0.34800  1.0000
  Cd  Cd9       1.0  0.34800  0.62900  0.34800  1.0000
  Cd  Cd10      1.0  0.71900  0.71900  0.37100  1.0000
  Cd  Cd11      1.0  0.34800  0.34800  0.62900  1.0000
  Cd  Cd12      1.0  0.28100  0.00000  0.65200  1.0000
  Cd  Cd13      1.0  0.00000  0.28100  0.65200  1.0000
  Cd  Cd14      1.0  0.71900  0.37100  0.71900  1.0000
  Cd  Cd15      1.0  0.37100  0.71900  0.71900  1.0000
  Cd  Cd16      1.0  0.00000  0.00000  0.77900  1.0000
