data_image0
_chemical_formula_structural       B2F14N4O2S4
_chemical_formula_sum              "B2 F14 N4 O2 S4"
_cell_length_a       5.54308
_cell_length_b       7.29865
_cell_length_c       7.66359
_cell_angle_alpha    90
_cell_angle_beta     110.001
_cell_angle_gamma    90

_space_group_name_H-M_alt    "P 1"
_space_group_IT_number       1

loop_
  _space_group_symop_operation_xyz
  'x, y, z'

loop_
  _atom_site_type_symbol
  _atom_site_label
  _atom_site_symmetry_multiplicity
  _atom_site_fract_x
  _atom_site_fract_y
  _atom_site_fract_z
  _atom_site_occupancy
  B   B1        1.0  0.64500  0.75000  0.17500  1.0000
  B   B2        1.0  0.35500  0.25000  0.82500  1.0000
  F   F1        1.0  0.99000  0.09380  0.12400  1.0000
  F   F2        1.0  0.99000  0.40600  0.12400  1.0000
  F   F3        1.0  0.88400  0.75000  0.15600  1.0000
  F   F4        1.0  0.60900  0.59300  0.26800  1.0000
  F   F5        1.0  0.60900  0.90700  0.26800  1.0000
  F   F6        1.0  0.24300  0.59300  0.41100  1.0000
  F   F7        1.0  0.24300  0.90700  0.41100  1.0000
  F   F8        1.0  0.75700  0.09270  0.58900  1.0000
  F   F9        1.0  0.75700  0.40700  0.58900  1.0000
  F   F10       1.0  0.39100  0.09260  0.73200  1.0000
  F   F11       1.0  0.39100  0.40700  0.73200  1.0000
  F   F12       1.0  0.11600  0.25000  0.84400  1.0000
  F   F13       1.0  0.01030  0.59400  0.87600  1.0000
  F   F14       1.0  0.01030  0.90600  0.87600  1.0000
  N   N1        1.0  0.55400  0.25000  0.02400  1.0000
  N   N2        1.0  0.88700  0.25000  0.36100  1.0000
  N   N3        1.0  0.11300  0.75000  0.63900  1.0000
  N   N4        1.0  0.44600  0.75000  0.97600  1.0000
  O   O1        1.0  0.41300  0.25000  0.35400  1.0000
  O   O2        1.0  0.58700  0.75000  0.64600  1.0000
  S   S1        1.0  0.81200  0.25000  0.14400  1.0000
  S   S2        1.0  0.67900  0.25000  0.44900  1.0000
  S   S3        1.0  0.32100  0.75000  0.55100  1.0000
  S   S4        1.0  0.18800  0.75000  0.85600  1.0000
