data_image0
_chemical_formula_structural       B4Cd2F2K2O12Zn4
_chemical_formula_sum              "B4 Cd2 F2 K2 O12 Zn4"
_cell_length_a       5.04015
_cell_length_b       5.03936
_cell_length_c       14.9451
_cell_angle_alpha    89.9993
_cell_angle_beta     90.0004
_cell_angle_gamma    119.995

_space_group_name_H-M_alt    "P 1"
_space_group_IT_number       1

loop_
  _space_group_symop_operation_xyz
  'x, y, z'

loop_
  _atom_site_type_symbol
  _atom_site_label
  _atom_site_symmetry_multiplicity
  _atom_site_fract_x
  _atom_site_fract_y
  _atom_site_fract_z
  _atom_site_occupancy
  B   B1        1.0  0.66700  0.33400  0.09640  1.0000
  B   B2        1.0  0.66700  0.33300  0.40400  1.0000
  B   B3        1.0  0.33300  0.66700  0.59600  1.0000
  B   B4        1.0  0.33300  0.66600  0.90400  1.0000
  Cd  Cd1       1.0  0.00000  0.00000  0.00000  1.0000
  Cd  Cd2       1.0  0.00000  0.00000  0.50000  1.0000
  F   F1        1.0  0.33300  0.66700  0.25000  1.0000
  F   F2        1.0  0.66700  0.33300  0.75000  1.0000
  K   K1        1.0  0.00000  0.00000  0.25000  1.0000
  K   K2        1.0  0.00000  0.00000  0.75000  1.0000
  O   O1        1.0  0.68500  0.61600  0.09670  1.0000
  O   O2        1.0  0.38400  0.06870  0.09670  1.0000
  O   O3        1.0  0.93100  0.31500  0.09670  1.0000
  O   O4        1.0  0.93100  0.61600  0.40300  1.0000
  O   O5        1.0  0.38400  0.31500  0.40300  1.0000
  O   O6        1.0  0.68500  0.06890  0.40300  1.0000
  O   O7        1.0  0.31500  0.93100  0.59700  1.0000
  O   O8        1.0  0.61600  0.68500  0.59700  1.0000
  O   O9        1.0  0.06890  0.38400  0.59700  1.0000
  O   O10       1.0  0.06890  0.68500  0.90300  1.0000
  O   O11       1.0  0.61600  0.93100  0.90300  1.0000
  O   O12       1.0  0.31500  0.38400  0.90300  1.0000
  Zn  Zn1       1.0  0.33300  0.66700  0.11500  1.0000
  Zn  Zn2       1.0  0.33300  0.66700  0.38500  1.0000
  Zn  Zn3       1.0  0.66700  0.33300  0.61500  1.0000
  Zn  Zn4       1.0  0.66700  0.33300  0.88500  1.0000
