data_image0
_chemical_formula_structural       O18P4Zr4
_chemical_formula_sum              "O18 P4 Zr4"
_cell_length_a       5.47598
_cell_length_b       5.47598
_cell_length_c       11.9262
_cell_angle_alpha    90
_cell_angle_beta     90
_cell_angle_gamma    105.293

_space_group_name_H-M_alt    "P 1"
_space_group_IT_number       1

loop_
  _space_group_symop_operation_xyz
  'x, y, z'

loop_
  _atom_site_type_symbol
  _atom_site_label
  _atom_site_symmetry_multiplicity
  _atom_site_fract_x
  _atom_site_fract_y
  _atom_site_fract_z
  _atom_site_occupancy
  O   O1        1.0  0.50000  0.50000  0.00000  1.0000
  O   O2        1.0  0.01540  0.63300  0.08580  1.0000
  O   O3        1.0  0.36700  0.98500  0.08580  1.0000
  O   O4        1.0  0.93600  0.06350  0.12400  1.0000
  O   O5        1.0  0.63800  0.36200  0.22800  1.0000
  O   O6        1.0  0.13800  0.86200  0.27200  1.0000
  O   O7        1.0  0.43600  0.56400  0.37600  1.0000
  O   O8        1.0  0.51500  0.13300  0.41400  1.0000
  O   O9        1.0  0.86700  0.48500  0.41400  1.0000
  O   O10       1.0  0.00000  0.00000  0.50000  1.0000
  O   O11       1.0  0.13300  0.51500  0.58600  1.0000
  O   O12       1.0  0.48500  0.86700  0.58600  1.0000
  O   O13       1.0  0.56400  0.43600  0.62400  1.0000
  O   O14       1.0  0.86200  0.13800  0.72800  1.0000
  O   O15       1.0  0.36200  0.63800  0.77200  1.0000
  O   O16       1.0  0.06350  0.93600  0.87600  1.0000
  O   O17       1.0  0.63300  0.01540  0.91400  1.0000
  O   O18       1.0  0.98500  0.36700  0.91400  1.0000
  P   P1        1.0  0.10700  0.89300  0.14800  1.0000
  P   P2        1.0  0.60700  0.39300  0.35200  1.0000
  P   P3        1.0  0.39300  0.60700  0.64800  1.0000
  P   P4        1.0  0.89300  0.10700  0.85200  1.0000
  Zr  Zr1       1.0  0.70700  0.29300  0.06190  1.0000
  Zr  Zr2       1.0  0.20700  0.79300  0.43800  1.0000
  Zr  Zr3       1.0  0.79300  0.20700  0.56200  1.0000
  Zr  Zr4       1.0  0.29300  0.70700  0.93800  1.0000
