data_image0
_chemical_formula_structural       C8Cl4N8Pt2Rb4
_chemical_formula_sum              "C8 Cl4 N8 Pt2 Rb4"
_cell_length_a       6.7914
_cell_length_b       9.33445
_cell_length_c       9.6866
_cell_angle_alpha    89.3565
_cell_angle_beta     76.0632
_cell_angle_gamma    72.885

_space_group_name_H-M_alt    "P 1"
_space_group_IT_number       1

loop_
  _space_group_symop_operation_xyz
  'x, y, z'

loop_
  _atom_site_type_symbol
  _atom_site_label
  _atom_site_symmetry_multiplicity
  _atom_site_fract_x
  _atom_site_fract_y
  _atom_site_fract_z
  _atom_site_occupancy
  C   C1        1.0  0.15200  0.79000  0.03950  1.0000
  C   C2        1.0  0.06670  0.07570  0.17200  1.0000
  C   C3        1.0  0.71500  0.50100  0.31600  1.0000
  C   C4        1.0  0.39400  0.72500  0.49400  1.0000
  C   C5        1.0  0.60600  0.27500  0.50600  1.0000
  C   C6        1.0  0.28500  0.49900  0.68400  1.0000
  C   C7        1.0  0.93300  0.92400  0.82800  1.0000
  C   C8        1.0  0.84800  0.21000  0.96000  1.0000
  Cl  Cl1       1.0  0.67400  0.97900  0.14500  1.0000
  Cl  Cl2       1.0  0.25500  0.47100  0.37500  1.0000
  Cl  Cl3       1.0  0.74500  0.52900  0.62500  1.0000
  Cl  Cl4       1.0  0.32600  0.02070  0.85500  1.0000
  N   N1        1.0  0.24400  0.66900  0.06390  1.0000
  N   N2        1.0  0.83900  0.51000  0.21200  1.0000
  N   N3        1.0  0.10900  0.12000  0.27000  1.0000
  N   N4        1.0  0.34100  0.85500  0.48500  1.0000
  N   N5        1.0  0.65900  0.14500  0.51500  1.0000
  N   N6        1.0  0.89100  0.88000  0.73000  1.0000
  N   N7        1.0  0.16100  0.49000  0.78800  1.0000
  N   N8        1.0  0.75600  0.33100  0.93600  1.0000
  Pt  Pt1       1.0  0.00000  0.00000  0.00000  1.0000
  Pt  Pt2       1.0  0.50000  0.50000  0.50000  1.0000
  Rb  Rb1       1.0  0.29000  0.34200  0.04760  1.0000
  Rb  Rb2       1.0  0.87400  0.82300  0.43000  1.0000
  Rb  Rb3       1.0  0.12600  0.17700  0.57000  1.0000
  Rb  Rb4       1.0  0.71000  0.65800  0.95200  1.0000
