data_image0
_chemical_formula_structural       Ca2O16P4Zn4
_chemical_formula_sum              "Ca2 O16 P4 Zn4"
_cell_length_a       4.95051
_cell_length_b       8.36608
_cell_length_c       8.90597
_cell_angle_alpha    113.716
_cell_angle_beta     102.47
_cell_angle_gamma    94.5389

_space_group_name_H-M_alt    "P 1"
_space_group_IT_number       1

loop_
  _space_group_symop_operation_xyz
  'x, y, z'

loop_
  _atom_site_type_symbol
  _atom_site_label
  _atom_site_symmetry_multiplicity
  _atom_site_fract_x
  _atom_site_fract_y
  _atom_site_fract_z
  _atom_site_occupancy
  Ca  Ca1       1.0  0.22400  0.73100  0.05640  1.0000
  Ca  Ca2       1.0  0.77600  0.26900  0.94400  1.0000
  O   O1        1.0  0.37700  0.25400  0.03830  1.0000
  O   O2        1.0  0.98900  0.17000  0.14400  1.0000
  O   O3        1.0  0.95700  0.55800  0.16800  1.0000
  O   O4        1.0  0.43200  0.04550  0.19200  1.0000
  O   O5        1.0  0.56900  0.71500  0.29300  1.0000
  O   O6        1.0  0.02010  0.88700  0.29800  1.0000
  O   O7        1.0  0.44100  0.36600  0.35500  1.0000
  O   O8        1.0  0.04670  0.72000  0.48100  1.0000
  O   O9        1.0  0.95300  0.28000  0.51900  1.0000
  O   O10       1.0  0.55900  0.63400  0.64500  1.0000
  O   O11       1.0  0.98000  0.11300  0.70200  1.0000
  O   O12       1.0  0.43100  0.28500  0.70700  1.0000
  O   O13       1.0  0.56800  0.95500  0.80800  1.0000
  O   O14       1.0  0.04340  0.44200  0.83200  1.0000
  O   O15       1.0  0.01110  0.83000  0.85600  1.0000
  O   O16       1.0  0.62300  0.74600  0.96200  1.0000
  P   P1        1.0  0.31300  0.20600  0.17600  1.0000
  P   P2        1.0  0.88700  0.71900  0.30700  1.0000
  P   P3        1.0  0.11300  0.28100  0.69300  1.0000
  P   P4        1.0  0.68700  0.79400  0.82400  1.0000
  Zn  Zn1       1.0  0.83700  0.07730  0.28400  1.0000
  Zn  Zn2       1.0  0.37300  0.60900  0.41000  1.0000
  Zn  Zn3       1.0  0.62700  0.39100  0.59000  1.0000
  Zn  Zn4       1.0  0.16300  0.92300  0.71600  1.0000
