data_image0
_chemical_formula_structural       C8I4K4N8Pt2
_chemical_formula_sum              "C8 I4 K4 N8 Pt2"
_cell_length_a       7.25938
_cell_length_b       9.12262
_cell_length_c       8.89827
_cell_angle_alpha    90
_cell_angle_beta     107.498
_cell_angle_gamma    90

_space_group_name_H-M_alt    "P 1"
_space_group_IT_number       1

loop_
  _space_group_symop_operation_xyz
  'x, y, z'

loop_
  _atom_site_type_symbol
  _atom_site_label
  _atom_site_symmetry_multiplicity
  _atom_site_fract_x
  _atom_site_fract_y
  _atom_site_fract_z
  _atom_site_occupancy
  C   C1        1.0  0.79700  0.03820  0.10700  1.0000
  C   C2        1.0  0.20000  0.95700  0.20700  1.0000
  C   C3        1.0  0.80000  0.45700  0.29300  1.0000
  C   C4        1.0  0.20300  0.53800  0.39300  1.0000
  C   C5        1.0  0.79700  0.46200  0.60700  1.0000
  C   C6        1.0  0.20000  0.54300  0.70700  1.0000
  C   C7        1.0  0.80000  0.04250  0.79300  1.0000
  C   C8        1.0  0.20300  0.96200  0.89300  1.0000
  I   I1        1.0  0.10300  0.28700  0.03100  1.0000
  I   I2        1.0  0.89700  0.78700  0.46900  1.0000
  I   I3        1.0  0.10300  0.21300  0.53100  1.0000
  I   I4        1.0  0.89700  0.71300  0.96900  1.0000
  K   K1        1.0  0.47400  0.71400  0.11800  1.0000
  K   K2        1.0  0.52600  0.21400  0.38200  1.0000
  K   K3        1.0  0.47400  0.78600  0.61800  1.0000
  K   K4        1.0  0.52600  0.28600  0.88200  1.0000
  N   N1        1.0  0.67400  0.06390  0.16400  1.0000
  N   N2        1.0  0.67700  0.43200  0.17600  1.0000
  N   N3        1.0  0.32300  0.93200  0.32400  1.0000
  N   N4        1.0  0.32600  0.56400  0.33600  1.0000
  N   N5        1.0  0.67400  0.43600  0.66400  1.0000
  N   N6        1.0  0.67700  0.06830  0.67600  1.0000
  N   N7        1.0  0.32300  0.56800  0.82400  1.0000
  N   N8        1.0  0.32600  0.93600  0.83600  1.0000
  Pt  Pt1       1.0  0.00000  0.00000  0.00000  1.0000
  Pt  Pt2       1.0  0.00000  0.50000  0.50000  1.0000
