data_image0
_chemical_formula_structural       Be4K4Na8O10
_chemical_formula_sum              "Be4 K4 Na8 O10"
_cell_length_a       5.91796
_cell_length_b       5.91796
_cell_length_c       9.97047
_cell_angle_alpha    90
_cell_angle_beta     90
_cell_angle_gamma    90

_space_group_name_H-M_alt    "P 1"
_space_group_IT_number       1

loop_
  _space_group_symop_operation_xyz
  'x, y, z'

loop_
  _atom_site_type_symbol
  _atom_site_label
  _atom_site_symmetry_multiplicity
  _atom_site_fract_x
  _atom_site_fract_y
  _atom_site_fract_z
  _atom_site_occupancy
  Be  Be1       1.0  0.81200  0.18800  0.00000  1.0000
  Be  Be2       1.0  0.18800  0.81200  0.00000  1.0000
  Be  Be3       1.0  0.31200  0.31200  0.50000  1.0000
  Be  Be4       1.0  0.68800  0.68800  0.50000  1.0000
  K   K1        1.0  0.31900  0.31900  0.00000  1.0000
  K   K2        1.0  0.68100  0.68100  0.00000  1.0000
  K   K3        1.0  0.81900  0.18100  0.50000  1.0000
  K   K4        1.0  0.18100  0.81900  0.50000  1.0000
  Na  Na1       1.0  0.00000  0.00000  0.22600  1.0000
  Na  Na2       1.0  0.50000  0.00000  0.25000  1.0000
  Na  Na3       1.0  0.00000  0.50000  0.25000  1.0000
  Na  Na4       1.0  0.50000  0.50000  0.27400  1.0000
  Na  Na5       1.0  0.50000  0.50000  0.72600  1.0000
  Na  Na6       1.0  0.50000  0.00000  0.75000  1.0000
  Na  Na7       1.0  0.00000  0.50000  0.75000  1.0000
  Na  Na8       1.0  0.00000  0.00000  0.77400  1.0000
  O   O1        1.0  0.00000  0.00000  0.00000  1.0000
  O   O2        1.0  0.72500  0.27500  0.13800  1.0000
  O   O3        1.0  0.27500  0.72500  0.13800  1.0000
  O   O4        1.0  0.22500  0.22500  0.36200  1.0000
  O   O5        1.0  0.77500  0.77500  0.36200  1.0000
  O   O6        1.0  0.50000  0.50000  0.50000  1.0000
  O   O7        1.0  0.22500  0.22500  0.63800  1.0000
  O   O8        1.0  0.77500  0.77500  0.63800  1.0000
  O   O9        1.0  0.72500  0.27500  0.86200  1.0000
  O   O10       1.0  0.27500  0.72500  0.86200  1.0000
