data_image0
_chemical_formula_structural       Cu2Ge4Nd4O16
_chemical_formula_sum              "Cu2 Ge4 Nd4 O16"
_cell_length_a       5.15272
_cell_length_b       8.3506
_cell_length_c       9.10532
_cell_angle_alpha    117.132
_cell_angle_beta     106.2
_cell_angle_gamma    90.4871

_space_group_name_H-M_alt    "P 1"
_space_group_IT_number       1

loop_
  _space_group_symop_operation_xyz
  'x, y, z'

loop_
  _atom_site_type_symbol
  _atom_site_label
  _atom_site_symmetry_multiplicity
  _atom_site_fract_x
  _atom_site_fract_y
  _atom_site_fract_z
  _atom_site_occupancy
  Cu  Cu1       1.0  0.23100  0.23800  0.41500  1.0000
  Cu  Cu2       1.0  0.81600  0.82300  0.58500  1.0000
  Ge  Ge1       1.0  0.07730  0.49600  0.00000  1.0000
  Ge  Ge2       1.0  0.99600  0.99900  0.00000  1.0000
  Ge  Ge3       1.0  0.22900  0.69500  0.42200  1.0000
  Ge  Ge4       1.0  0.80700  0.27300  0.57800  1.0000
  Nd  Nd1       1.0  0.65800  0.86300  0.23900  1.0000
  Nd  Nd2       1.0  0.65100  0.36100  0.24100  1.0000
  Nd  Nd3       1.0  0.41000  0.12000  0.75900  1.0000
  Nd  Nd4       1.0  0.41900  0.62400  0.76100  1.0000
  O   O1        1.0  0.77900  0.16300  0.00000  1.0000
  O   O2        1.0  0.28300  0.32900  0.00000  1.0000
  O   O3        1.0  0.28100  0.66700  0.00000  1.0000
  O   O4        1.0  0.95600  0.58900  0.18500  1.0000
  O   O5        1.0  0.29600  0.09770  0.18800  1.0000
  O   O6        1.0  0.51900  0.66600  0.34400  1.0000
  O   O7        1.0  0.85400  0.16200  0.34700  1.0000
  O   O8        1.0  0.07870  0.53800  0.46800  1.0000
  O   O9        1.0  0.06040  0.89200  0.48300  1.0000
  O   O10       1.0  0.57800  0.41000  0.51700  1.0000
  O   O11       1.0  0.61000  0.07010  0.53200  1.0000
  O   O12       1.0  0.50700  0.81500  0.65300  1.0000
  O   O13       1.0  0.17600  0.32200  0.65600  1.0000
  O   O14       1.0  0.10700  0.90900  0.81200  1.0000
  O   O15       1.0  0.77100  0.40400  0.81500  1.0000
  O   O16       1.0  0.78700  0.82800  0.00000  1.0000
