data_image0
_chemical_formula_structural       Ge4N12Sr10
_chemical_formula_sum              "Ge4 N12 Sr10"
_cell_length_a       6.14601
_cell_length_b       6.14601
_cell_length_c       13.5872
_cell_angle_alpha    98.6649
_cell_angle_beta     98.6649
_cell_angle_gamma    64.0736

_space_group_name_H-M_alt    "P 1"
_space_group_IT_number       1

loop_
  _space_group_symop_operation_xyz
  'x, y, z'

loop_
  _atom_site_type_symbol
  _atom_site_label
  _atom_site_symmetry_multiplicity
  _atom_site_fract_x
  _atom_site_fract_y
  _atom_site_fract_z
  _atom_site_occupancy
  Ge  Ge1       1.0  0.90300  0.65100  0.07660  1.0000
  Ge  Ge2       1.0  0.34900  0.09730  0.42300  1.0000
  Ge  Ge3       1.0  0.65100  0.90300  0.57700  1.0000
  Ge  Ge4       1.0  0.09730  0.34900  0.92300  1.0000
  N   N1        1.0  0.21200  0.35000  0.06380  1.0000
  N   N2        1.0  0.98400  0.90500  0.12800  1.0000
  N   N3        1.0  0.69000  0.60600  0.14900  1.0000
  N   N4        1.0  0.39400  0.31000  0.35100  1.0000
  N   N5        1.0  0.09530  0.01560  0.37200  1.0000
  N   N6        1.0  0.65000  0.78800  0.43600  1.0000
  N   N7        1.0  0.35000  0.21200  0.56400  1.0000
  N   N8        1.0  0.90500  0.98400  0.62800  1.0000
  N   N9        1.0  0.60600  0.69000  0.64900  1.0000
  N   N10       1.0  0.31000  0.39400  0.85100  1.0000
  N   N11       1.0  0.01560  0.09530  0.87200  1.0000
  N   N12       1.0  0.78800  0.65000  0.93600  1.0000
  Sr  Sr1       1.0  0.67600  0.20400  0.00259  1.0000
  Sr  Sr2       1.0  0.06760  0.24300  0.21500  1.0000
  Sr  Sr3       1.0  0.38000  0.62000  0.25000  1.0000
  Sr  Sr4       1.0  0.75700  0.93200  0.28500  1.0000
  Sr  Sr5       1.0  0.79600  0.32400  0.49700  1.0000
  Sr  Sr6       1.0  0.20400  0.67600  0.50300  1.0000
  Sr  Sr7       1.0  0.24300  0.06760  0.71500  1.0000
  Sr  Sr8       1.0  0.62000  0.38000  0.75000  1.0000
  Sr  Sr9       1.0  0.93200  0.75700  0.78500  1.0000
  Sr  Sr10      1.0  0.32400  0.79600  0.99700  1.0000
