data_image0
_chemical_formula_structural       Ga8Ge12Yb6
_chemical_formula_sum              "Ga8 Ge12 Yb6"
_cell_length_a       4.24656
_cell_length_b       10.8337
_cell_length_c       12.1478
_cell_angle_alpha    91.369
_cell_angle_beta     100.066
_cell_angle_gamma    90

_space_group_name_H-M_alt    "P 1"
_space_group_IT_number       1

loop_
  _space_group_symop_operation_xyz
  'x, y, z'

loop_
  _atom_site_type_symbol
  _atom_site_label
  _atom_site_symmetry_multiplicity
  _atom_site_fract_x
  _atom_site_fract_y
  _atom_site_fract_z
  _atom_site_occupancy
  Ga  Ga1       1.0  0.06530  0.27100  0.13100  1.0000
  Ga  Ga2       1.0  0.57800  0.58700  0.15600  1.0000
  Ga  Ga3       1.0  0.13600  0.88200  0.27300  1.0000
  Ga  Ga4       1.0  0.24100  0.26000  0.48200  1.0000
  Ga  Ga5       1.0  0.75900  0.74000  0.51800  1.0000
  Ga  Ga6       1.0  0.86400  0.11800  0.72700  1.0000
  Ga  Ga7       1.0  0.42200  0.41300  0.84400  1.0000
  Ga  Ga8       1.0  0.93500  0.72900  0.86900  1.0000
  Ge  Ge1       1.0  0.02380  0.60500  0.04760  1.0000
  Ge  Ge2       1.0  0.05210  0.03470  0.10400  1.0000
  Ge  Ge3       1.0  0.60600  0.36500  0.21100  1.0000
  Ge  Ge4       1.0  0.65200  0.76100  0.30500  1.0000
  Ge  Ge5       1.0  0.71000  0.36300  0.41900  1.0000
  Ge  Ge6       1.0  0.22500  0.02830  0.45000  1.0000
  Ge  Ge7       1.0  0.77500  0.97200  0.55000  1.0000
  Ge  Ge8       1.0  0.29000  0.63700  0.58100  1.0000
  Ge  Ge9       1.0  0.34800  0.23900  0.69500  1.0000
  Ge  Ge10      1.0  0.39400  0.63500  0.78900  1.0000
  Ge  Ge11      1.0  0.94800  0.96500  0.89600  1.0000
  Ge  Ge12      1.0  0.97600  0.39500  0.95200  1.0000
  Yb  Yb1       1.0  0.52300  0.83400  0.04680  1.0000
  Yb  Yb2       1.0  0.64400  0.10600  0.28900  1.0000
  Yb  Yb3       1.0  0.17600  0.54500  0.35100  1.0000
  Yb  Yb4       1.0  0.82400  0.45500  0.64900  1.0000
  Yb  Yb5       1.0  0.35600  0.89400  0.71100  1.0000
  Yb  Yb6       1.0  0.47700  0.16600  0.95300  1.0000
