data_image0
_chemical_formula_structural       Cd4F2Sb10Sr10
_chemical_formula_sum              "Cd4 F2 Sb10 Sr10"
_cell_length_a       4.78336
_cell_length_b       11.4124
_cell_length_c       14.8826
_cell_angle_alpha    90
_cell_angle_beta     90
_cell_angle_gamma    77.9029

_space_group_name_H-M_alt    "P 1"
_space_group_IT_number       1

loop_
  _space_group_symop_operation_xyz
  'x, y, z'

loop_
  _atom_site_type_symbol
  _atom_site_label
  _atom_site_symmetry_multiplicity
  _atom_site_fract_x
  _atom_site_fract_y
  _atom_site_fract_z
  _atom_site_occupancy
  Cd  Cd1       1.0  0.36800  0.26400  0.08590  1.0000
  Cd  Cd2       1.0  0.36800  0.26400  0.41400  1.0000
  Cd  Cd3       1.0  0.63200  0.73600  0.58600  1.0000
  Cd  Cd4       1.0  0.63200  0.73600  0.91400  1.0000
  F   F1        1.0  0.65600  0.68900  0.25000  1.0000
  F   F2        1.0  0.34400  0.31100  0.75000  1.0000
  Sb  Sb1       1.0  0.14900  0.70100  0.02030  1.0000
  Sb  Sb2       1.0  0.49500  0.00926  0.15400  1.0000
  Sb  Sb3       1.0  0.29300  0.41500  0.25000  1.0000
  Sb  Sb4       1.0  0.49500  0.00926  0.34600  1.0000
  Sb  Sb5       1.0  0.14900  0.70100  0.48000  1.0000
  Sb  Sb6       1.0  0.85100  0.29900  0.52000  1.0000
  Sb  Sb7       1.0  0.50500  0.99100  0.65400  1.0000
  Sb  Sb8       1.0  0.70700  0.58500  0.75000  1.0000
  Sb  Sb9       1.0  0.50500  0.99100  0.84600  1.0000
  Sb  Sb10      1.0  0.85100  0.29900  0.98000  1.0000
  Sr  Sr1       1.0  0.00000  0.00000  0.00000  1.0000
  Sr  Sr2       1.0  0.72900  0.54200  0.12000  1.0000
  Sr  Sr3       1.0  0.90200  0.19500  0.25000  1.0000
  Sr  Sr4       1.0  0.10000  0.79900  0.25000  1.0000
  Sr  Sr5       1.0  0.72900  0.54200  0.38000  1.0000
  Sr  Sr6       1.0  0.00000  0.00000  0.50000  1.0000
  Sr  Sr7       1.0  0.27100  0.45800  0.62000  1.0000
  Sr  Sr8       1.0  0.90000  0.20100  0.75000  1.0000
  Sr  Sr9       1.0  0.09770  0.80500  0.75000  1.0000
  Sr  Sr10      1.0  0.27100  0.45800  0.88000  1.0000
