data_image0
_chemical_formula_structural       La2O18P6
_chemical_formula_sum              "La2 O18 P6"
_cell_length_a       7.07989
_cell_length_b       7.07989
_cell_length_c       7.31428
_cell_angle_alpha    90
_cell_angle_beta     90
_cell_angle_gamma    75.0081

_space_group_name_H-M_alt    "P 1"
_space_group_IT_number       1

loop_
  _space_group_symop_operation_xyz
  'x, y, z'

loop_
  _atom_site_type_symbol
  _atom_site_label
  _atom_site_symmetry_multiplicity
  _atom_site_fract_x
  _atom_site_fract_y
  _atom_site_fract_z
  _atom_site_occupancy
  La  La1       1.0  0.12800  0.87200  0.25000  1.0000
  La  La2       1.0  0.87200  0.12800  0.75000  1.0000
  O   O1        1.0  0.62200  0.62200  0.00000  1.0000
  O   O2        1.0  0.86900  0.17500  0.08170  1.0000
  O   O3        1.0  0.53100  0.25000  0.20500  1.0000
  O   O4        1.0  0.22100  0.52300  0.20700  1.0000
  O   O5        1.0  0.82700  0.78200  0.20800  1.0000
  O   O6        1.0  0.21800  0.17300  0.29200  1.0000
  O   O7        1.0  0.47700  0.77900  0.29300  1.0000
  O   O8        1.0  0.75000  0.46900  0.29500  1.0000
  O   O9        1.0  0.82500  0.13100  0.41800  1.0000
  O   O10       1.0  0.37800  0.37800  0.50000  1.0000
  O   O11       1.0  0.13100  0.82500  0.58200  1.0000
  O   O12       1.0  0.46900  0.75000  0.70500  1.0000
  O   O13       1.0  0.77900  0.47700  0.70700  1.0000
  O   O14       1.0  0.17300  0.21800  0.70800  1.0000
  O   O15       1.0  0.78200  0.82700  0.79200  1.0000
  O   O16       1.0  0.52300  0.22100  0.79300  1.0000
  O   O17       1.0  0.25000  0.53100  0.79500  1.0000
  O   O18       1.0  0.17500  0.86900  0.91800  1.0000
  P   P1        1.0  0.66700  0.68300  0.20500  1.0000
  P   P2        1.0  0.74900  0.25100  0.25000  1.0000
  P   P3        1.0  0.31700  0.33300  0.29500  1.0000
  P   P4        1.0  0.33300  0.31700  0.70500  1.0000
  P   P5        1.0  0.25100  0.74900  0.75000  1.0000
  P   P6        1.0  0.68300  0.66700  0.79500  1.0000
