data_image0
_chemical_formula_structural       O18P4Th4
_chemical_formula_sum              "O18 P4 Th4"
_cell_length_a       5.87104
_cell_length_b       5.87104
_cell_length_c       12.9307
_cell_angle_alpha    90
_cell_angle_beta     90
_cell_angle_gamma    104.484

_space_group_name_H-M_alt    "P 1"
_space_group_IT_number       1

loop_
  _space_group_symop_operation_xyz
  'x, y, z'

loop_
  _atom_site_type_symbol
  _atom_site_label
  _atom_site_symmetry_multiplicity
  _atom_site_fract_x
  _atom_site_fract_y
  _atom_site_fract_z
  _atom_site_occupancy
  O   O1        1.0  0.00000  0.00000  0.00000  1.0000
  O   O2        1.0  0.14800  0.51700  0.08520  1.0000
  O   O3        1.0  0.48300  0.85200  0.08520  1.0000
  O   O4        1.0  0.55000  0.45000  0.12500  1.0000
  O   O5        1.0  0.85200  0.14800  0.24300  1.0000
  O   O6        1.0  0.35200  0.64800  0.25700  1.0000
  O   O7        1.0  0.05040  0.95000  0.37500  1.0000
  O   O8        1.0  0.64800  0.01660  0.41500  1.0000
  O   O9        1.0  0.98300  0.35200  0.41500  1.0000
  O   O10       1.0  0.50000  0.50000  0.50000  1.0000
  O   O11       1.0  0.01660  0.64800  0.58500  1.0000
  O   O12       1.0  0.35200  0.98300  0.58500  1.0000
  O   O13       1.0  0.95000  0.05040  0.62500  1.0000
  O   O14       1.0  0.64800  0.35200  0.74300  1.0000
  O   O15       1.0  0.14800  0.85200  0.75700  1.0000
  O   O16       1.0  0.45000  0.55000  0.87500  1.0000
  O   O17       1.0  0.51700  0.14800  0.91500  1.0000
  O   O18       1.0  0.85200  0.48300  0.91500  1.0000
  P   P1        1.0  0.38800  0.61200  0.14200  1.0000
  P   P2        1.0  0.88800  0.11200  0.35800  1.0000
  P   P3        1.0  0.11200  0.88800  0.64200  1.0000
  P   P4        1.0  0.61200  0.38800  0.85800  1.0000
  Th  Th1       1.0  0.79100  0.20900  0.07160  1.0000
  Th  Th2       1.0  0.29100  0.70900  0.42800  1.0000
  Th  Th3       1.0  0.70900  0.29100  0.57200  1.0000
  Th  Th4       1.0  0.20900  0.79100  0.92800  1.0000
