data_image0
_chemical_formula_structural       Bi8Cs4Se14
_chemical_formula_sum              "Bi8 Cs4 Se14"
_cell_length_a       13.3593
_cell_length_b       4.25637
_cell_length_c       15.5953
_cell_angle_alpha    90
_cell_angle_beta     94.3137
_cell_angle_gamma    90

_space_group_name_H-M_alt    "P 1"
_space_group_IT_number       1

loop_
  _space_group_symop_operation_xyz
  'x, y, z'

loop_
  _atom_site_type_symbol
  _atom_site_label
  _atom_site_symmetry_multiplicity
  _atom_site_fract_x
  _atom_site_fract_y
  _atom_site_fract_z
  _atom_site_occupancy
  Bi  Bi1       1.0  0.27200  0.75000  0.05070  1.0000
  Bi  Bi2       1.0  0.94600  0.75000  0.12000  1.0000
  Bi  Bi3       1.0  0.16800  0.25000  0.27600  1.0000
  Bi  Bi4       1.0  0.39200  0.75000  0.42900  1.0000
  Bi  Bi5       1.0  0.60800  0.25000  0.57100  1.0000
  Bi  Bi6       1.0  0.83200  0.75000  0.72400  1.0000
  Bi  Bi7       1.0  0.05450  0.25000  0.88000  1.0000
  Bi  Bi8       1.0  0.72800  0.25000  0.94900  1.0000
  Cs  Cs1       1.0  0.56900  0.75000  0.18900  1.0000
  Cs  Cs2       1.0  0.82700  0.25000  0.37500  1.0000
  Cs  Cs3       1.0  0.17300  0.75000  0.62500  1.0000
  Cs  Cs4       1.0  0.43100  0.25000  0.81100  1.0000
  Se  Se1       1.0  0.40700  0.25000  0.03710  1.0000
  Se  Se2       1.0  0.09770  0.25000  0.08280  1.0000
  Se  Se3       1.0  0.79500  0.25000  0.13700  1.0000
  Se  Se4       1.0  0.31000  0.75000  0.24100  1.0000
  Se  Se5       1.0  0.01210  0.75000  0.29600  1.0000
  Se  Se6       1.0  0.54200  0.25000  0.39200  1.0000
  Se  Se7       1.0  0.24100  0.25000  0.45300  1.0000
  Se  Se8       1.0  0.75900  0.75000  0.54700  1.0000
  Se  Se9       1.0  0.45800  0.75000  0.60800  1.0000
  Se  Se10      1.0  0.98800  0.25000  0.70400  1.0000
  Se  Se11      1.0  0.69000  0.25000  0.75900  1.0000
  Se  Se12      1.0  0.20500  0.75000  0.86300  1.0000
  Se  Se13      1.0  0.90200  0.75000  0.91700  1.0000
  Se  Se14      1.0  0.59300  0.75000  0.96300  1.0000
