data_image0
_chemical_formula_structural       Fe6Nd6Sb14
_chemical_formula_sum              "Fe6 Nd6 Sb14"
_cell_length_a       13.2753
_cell_length_b       13.2754
_cell_length_c       4.19149
_cell_angle_alpha    90
_cell_angle_beta     90
_cell_angle_gamma    120

_space_group_name_H-M_alt    "P 1"
_space_group_IT_number       1

loop_
  _space_group_symop_operation_xyz
  'x, y, z'

loop_
  _atom_site_type_symbol
  _atom_site_label
  _atom_site_symmetry_multiplicity
  _atom_site_fract_x
  _atom_site_fract_y
  _atom_site_fract_z
  _atom_site_occupancy
  Fe  Fe1       1.0  0.92700  0.05140  0.25000  1.0000
  Fe  Fe2       1.0  0.12500  0.07350  0.25000  1.0000
  Fe  Fe3       1.0  0.94900  0.87500  0.25000  1.0000
  Fe  Fe4       1.0  0.05140  0.12500  0.75000  1.0000
  Fe  Fe5       1.0  0.87500  0.92600  0.75000  1.0000
  Fe  Fe6       1.0  0.07340  0.94900  0.75000  1.0000
  Nd  Nd1       1.0  0.46100  0.18300  0.25000  1.0000
  Nd  Nd2       1.0  0.81700  0.27800  0.25000  1.0000
  Nd  Nd3       1.0  0.72200  0.53900  0.25000  1.0000
  Nd  Nd4       1.0  0.27800  0.46100  0.75000  1.0000
  Nd  Nd5       1.0  0.18300  0.72200  0.75000  1.0000
  Nd  Nd6       1.0  0.53900  0.81700  0.75000  1.0000
  Sb  Sb1       1.0  0.59000  0.02330  0.25000  1.0000
  Sb  Sb2       1.0  0.08220  0.27200  0.25000  1.0000
  Sb  Sb3       1.0  0.43300  0.41000  0.25000  1.0000
  Sb  Sb4       1.0  0.97700  0.56700  0.25000  1.0000
  Sb  Sb5       1.0  0.33300  0.66700  0.25000  1.0000
  Sb  Sb6       1.0  0.72800  0.81000  0.25000  1.0000
  Sb  Sb7       1.0  0.19000  0.91800  0.25000  1.0000
  Sb  Sb8       1.0  0.81000  0.08220  0.75000  1.0000
  Sb  Sb9       1.0  0.27200  0.19000  0.75000  1.0000
  Sb  Sb10      1.0  0.66700  0.33300  0.75000  1.0000
  Sb  Sb11      1.0  0.02330  0.43300  0.75000  1.0000
  Sb  Sb12      1.0  0.56700  0.59000  0.75000  1.0000
  Sb  Sb13      1.0  0.91800  0.72800  0.75000  1.0000
  Sb  Sb14      1.0  0.41000  0.97700  0.75000  1.0000
