data_image0
_chemical_formula_structural       Mg6O16P4
_chemical_formula_sum              "Mg6 O16 P4"
_cell_length_a       5.85662
_cell_length_b       10.137
_cell_length_c       4.71489
_cell_angle_alpha    90
_cell_angle_beta     90
_cell_angle_gamma    91.1271

_space_group_name_H-M_alt    "P 1"
_space_group_IT_number       1

loop_
  _space_group_symop_operation_xyz
  'x, y, z'

loop_
  _atom_site_type_symbol
  _atom_site_label
  _atom_site_symmetry_multiplicity
  _atom_site_fract_x
  _atom_site_fract_y
  _atom_site_fract_z
  _atom_site_occupancy
  Mg  Mg1       1.0  0.50000  0.00000  0.00000  1.0000
  Mg  Mg2       1.0  0.76200  0.72400  0.01360  1.0000
  Mg  Mg3       1.0  0.76200  0.22400  0.48600  1.0000
  Mg  Mg4       1.0  0.50000  0.50000  0.50000  1.0000
  Mg  Mg5       1.0  0.23800  0.77600  0.51400  1.0000
  Mg  Mg6       1.0  0.23800  0.27600  0.98600  1.0000
  O   O1        1.0  0.25500  0.45300  0.19100  1.0000
  O   O2        1.0  0.05490  0.67600  0.19500  1.0000
  O   O3        1.0  0.46900  0.66300  0.23200  1.0000
  O   O4        1.0  0.72800  0.39800  0.24800  1.0000
  O   O5        1.0  0.72800  0.89800  0.25200  1.0000
  O   O6        1.0  0.46900  0.16300  0.26800  1.0000
  O   O7        1.0  0.05490  0.17600  0.30500  1.0000
  O   O8        1.0  0.25500  0.95300  0.30900  1.0000
  O   O9        1.0  0.74500  0.04680  0.69100  1.0000
  O   O10       1.0  0.94500  0.82400  0.69500  1.0000
  O   O11       1.0  0.53100  0.83700  0.73200  1.0000
  O   O12       1.0  0.27200  0.10200  0.74800  1.0000
  O   O13       1.0  0.27200  0.60200  0.75200  1.0000
  O   O14       1.0  0.53100  0.33700  0.76800  1.0000
  O   O15       1.0  0.94500  0.32400  0.80500  1.0000
  O   O16       1.0  0.74500  0.54700  0.80900  1.0000
  P   P1        1.0  0.25400  0.59600  0.07610  1.0000
  P   P2        1.0  0.25400  0.09590  0.42400  1.0000
  P   P3        1.0  0.74600  0.90400  0.57600  1.0000
  P   P4        1.0  0.74600  0.40400  0.92400  1.0000
