data_image0
_chemical_formula_structural       Ba4Ge4O16Ti2
_chemical_formula_sum              "Ba4 Ge4 O16 Ti2"
_cell_length_a       5.34096
_cell_length_b       8.73822
_cell_length_c       8.73822
_cell_angle_alpha    89.9598
_cell_angle_beta     90
_cell_angle_gamma    90

_space_group_name_H-M_alt    "P 1"
_space_group_IT_number       1

loop_
  _space_group_symop_operation_xyz
  'x, y, z'

loop_
  _atom_site_type_symbol
  _atom_site_label
  _atom_site_symmetry_multiplicity
  _atom_site_fract_x
  _atom_site_fract_y
  _atom_site_fract_z
  _atom_site_occupancy
  Ba  Ba1       1.0  0.01280  0.17200  0.17200  1.0000
  Ba  Ba2       1.0  0.01250  0.67200  0.32800  1.0000
  Ba  Ba3       1.0  0.01250  0.32800  0.67200  1.0000
  Ba  Ba4       1.0  0.01280  0.82800  0.82800  1.0000
  Ge  Ge1       1.0  0.49700  0.86800  0.13200  1.0000
  Ge  Ge2       1.0  0.49400  0.36800  0.36800  1.0000
  Ge  Ge3       1.0  0.49400  0.63200  0.63200  1.0000
  Ge  Ge4       1.0  0.49700  0.13200  0.86800  1.0000
  O   O1        1.0  0.35300  0.00000  0.00000  1.0000
  O   O2        1.0  0.78500  0.50000  0.00000  1.0000
  O   O3        1.0  0.34400  0.69800  0.08230  1.0000
  O   O4        1.0  0.81900  0.87400  0.12600  1.0000
  O   O5        1.0  0.34100  0.41800  0.19700  1.0000
  O   O6        1.0  0.34400  0.91800  0.30200  1.0000
  O   O7        1.0  0.81500  0.37400  0.37400  1.0000
  O   O8        1.0  0.34100  0.19700  0.41800  1.0000
  O   O9        1.0  0.78500  0.00000  0.50000  1.0000
  O   O10       1.0  0.35000  0.50000  0.50000  1.0000
  O   O11       1.0  0.34100  0.80300  0.58200  1.0000
  O   O12       1.0  0.81500  0.62600  0.62600  1.0000
  O   O13       1.0  0.34400  0.08230  0.69800  1.0000
  O   O14       1.0  0.34100  0.58200  0.80300  1.0000
  O   O15       1.0  0.81900  0.12600  0.87400  1.0000
  O   O16       1.0  0.34400  0.30200  0.91800  1.0000
  Ti  Ti1       1.0  0.46000  0.50000  0.00000  1.0000
  Ti  Ti2       1.0  0.46000  0.00000  0.50000  1.0000
