data_image0
_chemical_formula_structural       Mg2O16P4Zn4
_chemical_formula_sum              "Mg2 O16 P4 Zn4"
_cell_length_a       7.48447
_cell_length_b       8.29587
_cell_length_c       5.06529
_cell_angle_alpha    90
_cell_angle_beta     94.8256
_cell_angle_gamma    90

_space_group_name_H-M_alt    "P 1"
_space_group_IT_number       1

loop_
  _space_group_symop_operation_xyz
  'x, y, z'

loop_
  _atom_site_type_symbol
  _atom_site_label
  _atom_site_symmetry_multiplicity
  _atom_site_fract_x
  _atom_site_fract_y
  _atom_site_fract_z
  _atom_site_occupancy
  Mg  Mg1       1.0  0.50000  0.50000  0.00000  1.0000
  Mg  Mg2       1.0  0.00000  0.00000  0.50000  1.0000
  O   O1        1.0  0.74600  0.63600  0.04910  1.0000
  O   O2        1.0  0.35900  0.07810  0.06060  1.0000
  O   O3        1.0  0.94800  0.86600  0.17100  1.0000
  O   O4        1.0  0.38000  0.69500  0.18400  1.0000
  O   O5        1.0  0.12000  0.19500  0.31600  1.0000
  O   O6        1.0  0.55200  0.36600  0.32900  1.0000
  O   O7        1.0  0.14100  0.57800  0.43900  1.0000
  O   O8        1.0  0.75400  0.13600  0.45100  1.0000
  O   O9        1.0  0.24600  0.86400  0.54900  1.0000
  O   O10       1.0  0.85900  0.42200  0.56100  1.0000
  O   O11       1.0  0.44800  0.63400  0.67100  1.0000
  O   O12       1.0  0.88000  0.80500  0.68400  1.0000
  O   O13       1.0  0.62000  0.30500  0.81600  1.0000
  O   O14       1.0  0.05170  0.13400  0.82900  1.0000
  O   O15       1.0  0.64100  0.92200  0.93900  1.0000
  O   O16       1.0  0.25400  0.36400  0.95100  1.0000
  P   P1        1.0  0.19500  0.19300  0.04110  1.0000
  P   P2        1.0  0.30500  0.69300  0.45900  1.0000
  P   P3        1.0  0.69500  0.30700  0.54100  1.0000
  P   P4        1.0  0.80500  0.80700  0.95900  1.0000
  Zn  Zn1       1.0  0.62100  0.13900  0.09050  1.0000
  Zn  Zn2       1.0  0.87900  0.63900  0.40900  1.0000
  Zn  Zn3       1.0  0.12100  0.36100  0.59100  1.0000
  Zn  Zn4       1.0  0.37900  0.86100  0.90900  1.0000
