data_image0
_chemical_formula_structural       Al6Ca4O16S
_chemical_formula_sum              "Al6 Ca4 O16 S1"
_cell_length_a       7.85219
_cell_length_b       7.85219
_cell_length_c       7.85219
_cell_angle_alpha    109.471
_cell_angle_beta     109.471
_cell_angle_gamma    109.471

_space_group_name_H-M_alt    "P 1"
_space_group_IT_number       1

loop_
  _space_group_symop_operation_xyz
  'x, y, z'

loop_
  _atom_site_type_symbol
  _atom_site_label
  _atom_site_symmetry_multiplicity
  _atom_site_fract_x
  _atom_site_fract_y
  _atom_site_fract_z
  _atom_site_occupancy
  Al  Al1       1.0  0.75000  0.50000  0.25000  1.0000
  Al  Al2       1.0  0.50000  0.75000  0.25000  1.0000
  Al  Al3       1.0  0.75000  0.25000  0.50000  1.0000
  Al  Al4       1.0  0.25000  0.75000  0.50000  1.0000
  Al  Al5       1.0  0.50000  0.25000  0.75000  1.0000
  Al  Al6       1.0  0.25000  0.50000  0.75000  1.0000
  Ca  Ca1       1.0  0.37100  0.00000  0.00000  1.0000
  Ca  Ca2       1.0  0.00000  0.37100  0.00000  1.0000
  Ca  Ca3       1.0  0.00000  0.00000  0.37100  1.0000
  Ca  Ca4       1.0  0.62900  0.62900  0.62900  1.0000
  O   O1        1.0  0.81000  0.00000  0.00000  1.0000
  O   O2        1.0  0.00000  0.81000  0.00000  1.0000
  O   O3        1.0  0.28000  0.57200  0.00022  1.0000
  O   O4        1.0  0.19000  0.19000  0.19000  1.0000
  O   O5        1.0  1.00000  0.57100  0.28000  1.0000
  O   O6        1.0  0.57200  0.00022  0.28000  1.0000
  O   O7        1.0  0.72000  0.72000  0.29100  1.0000
  O   O8        1.0  0.70900  0.42900  0.42800  1.0000
  O   O9        1.0  0.42800  0.70900  0.42900  1.0000
  O   O10       1.0  0.28000  0.00000  0.57100  1.0000
  O   O11       1.0  0.00022  0.28000  0.57200  1.0000
  O   O12       1.0  0.42900  0.42800  0.70900  1.0000
  O   O13       1.0  0.72000  0.29100  0.72000  1.0000
  O   O14       1.0  0.29100  0.72000  0.72000  1.0000
  O   O15       1.0  0.00000  0.00000  0.81000  1.0000
  O   O16       1.0  0.57100  0.28000  0.00000  1.0000
  S   S1        1.0  0.00000  0.00000  0.00000  1.0000
