data_image0
_chemical_formula_structural       Pd20Te7
_chemical_formula_sum              "Pd20 Te7"
_cell_length_a       7.85277
_cell_length_b       7.85277
_cell_length_c       7.85277
_cell_angle_alpha    99.0247
_cell_angle_beta     99.0247
_cell_angle_gamma    99.0247

_space_group_name_H-M_alt    "P 1"
_space_group_IT_number       1

loop_
  _space_group_symop_operation_xyz
  'x, y, z'

loop_
  _atom_site_type_symbol
  _atom_site_label
  _atom_site_symmetry_multiplicity
  _atom_site_fract_x
  _atom_site_fract_y
  _atom_site_fract_z
  _atom_site_occupancy
  Pd  Pd1       1.0  0.33700  0.22300  0.00499  1.0000
  Pd  Pd2       1.0  0.31400  0.85600  0.01190  1.0000
  Pd  Pd3       1.0  0.98800  0.68600  0.14400  1.0000
  Pd  Pd4       1.0  0.67100  0.46800  0.21400  1.0000
  Pd  Pd5       1.0  0.00499  0.33700  0.22300  1.0000
  Pd  Pd6       1.0  0.85600  0.01190  0.31400  1.0000
  Pd  Pd7       1.0  0.53200  0.78600  0.32900  1.0000
  Pd  Pd8       1.0  0.22300  0.00499  0.33700  1.0000
  Pd  Pd9       1.0  0.37900  0.37900  0.37900  1.0000
  Pd  Pd10      1.0  0.21400  0.67100  0.46800  1.0000
  Pd  Pd11      1.0  0.78600  0.32900  0.53200  1.0000
  Pd  Pd12      1.0  0.62100  0.62100  0.62100  1.0000
  Pd  Pd13      1.0  0.77700  0.99500  0.66300  1.0000
  Pd  Pd14      1.0  0.46800  0.21400  0.67100  1.0000
  Pd  Pd15      1.0  0.14400  0.98800  0.68600  1.0000
  Pd  Pd16      1.0  0.99500  0.66300  0.77700  1.0000
  Pd  Pd17      1.0  0.32900  0.53200  0.78600  1.0000
  Pd  Pd18      1.0  0.01190  0.31400  0.85600  1.0000
  Pd  Pd19      1.0  0.68600  0.14400  0.98800  1.0000
  Pd  Pd20      1.0  0.66300  0.77700  0.99500  1.0000
  Te  Te1       1.0  0.00000  0.00000  0.00000  1.0000
  Te  Te2       1.0  0.27700  0.54600  0.12100  1.0000
  Te  Te3       1.0  0.54600  0.12100  0.27700  1.0000
  Te  Te4       1.0  0.87900  0.72300  0.45400  1.0000
  Te  Te5       1.0  0.12100  0.27700  0.54600  1.0000
  Te  Te6       1.0  0.45400  0.87900  0.72300  1.0000
  Te  Te7       1.0  0.72300  0.45400  0.87900  1.0000
