data_image0
_chemical_formula_structural       Cr4CuH4O16Rb2
_chemical_formula_sum              "Cr4 Cu1 H4 O16 Rb2"
_cell_length_a       7.19962
_cell_length_b       7.45068
_cell_length_c       7.45773
_cell_angle_alpha    91.5104
_cell_angle_beta     98.2582
_cell_angle_gamma    115.402

_space_group_name_H-M_alt    "P 1"
_space_group_IT_number       1

loop_
  _space_group_symop_operation_xyz
  'x, y, z'

loop_
  _atom_site_type_symbol
  _atom_site_label
  _atom_site_symmetry_multiplicity
  _atom_site_fract_x
  _atom_site_fract_y
  _atom_site_fract_z
  _atom_site_occupancy
  Cr  Cr1       1.0  0.30600  0.24000  0.14900  1.0000
  Cr  Cr2       1.0  0.75700  0.51900  0.32900  1.0000
  Cr  Cr3       1.0  0.24300  0.48100  0.67100  1.0000
  Cr  Cr4       1.0  0.69400  0.76000  0.85100  1.0000
  Cu  Cu1       1.0  0.00000  0.00000  0.50000  1.0000
  H   H1        1.0  0.73100  0.97100  0.21800  1.0000
  H   H2        1.0  0.65700  0.94900  0.41400  1.0000
  H   H3        1.0  0.34300  0.05060  0.58600  1.0000
  H   H4        1.0  0.26900  0.02850  0.78200  1.0000
  O   O1        1.0  0.63900  0.88300  0.00504  1.0000
  O   O2        1.0  0.09660  0.26100  0.07210  1.0000
  O   O3        1.0  0.51000  0.48700  0.20800  1.0000
  O   O4        1.0  0.84700  0.40200  0.20900  1.0000
  O   O5        1.0  0.27900  0.12000  0.33300  1.0000
  O   O6        1.0  0.76700  0.03250  0.34800  1.0000
  O   O7        1.0  0.92400  0.76000  0.35300  1.0000
  O   O8        1.0  0.27700  0.57400  0.48000  1.0000
  O   O9        1.0  0.72300  0.42600  0.52000  1.0000
  O   O10       1.0  0.07610  0.24000  0.64700  1.0000
  O   O11       1.0  0.23300  0.96800  0.65200  1.0000
  O   O12       1.0  0.72100  0.88000  0.66700  1.0000
  O   O13       1.0  0.15300  0.59800  0.79100  1.0000
  O   O14       1.0  0.49000  0.51300  0.79200  1.0000
  O   O15       1.0  0.90300  0.73900  0.92800  1.0000
  O   O16       1.0  0.36100  0.11700  0.99500  1.0000
  Rb  Rb1       1.0  0.24800  0.73400  0.15700  1.0000
  Rb  Rb2       1.0  0.75200  0.26600  0.84300  1.0000
