data_image0
_chemical_formula_structural       Fe12Gd2Sn12
_chemical_formula_sum              "Fe12 Gd2 Sn12"
_cell_length_a       5.41289
_cell_length_b       8.94339
_cell_length_c       10.3622
_cell_angle_alpha    64.4346
_cell_angle_beta     90
_cell_angle_gamma    90

_space_group_name_H-M_alt    "P 1"
_space_group_IT_number       1

loop_
  _space_group_symop_operation_xyz
  'x, y, z'

loop_
  _atom_site_type_symbol
  _atom_site_label
  _atom_site_symmetry_multiplicity
  _atom_site_fract_x
  _atom_site_fract_y
  _atom_site_fract_z
  _atom_site_occupancy
  Fe  Fe1       1.0  0.00000  0.24700  0.00000  1.0000
  Fe  Fe2       1.0  0.50000  0.24700  0.00000  1.0000
  Fe  Fe3       1.0  0.00000  0.75300  0.00000  1.0000
  Fe  Fe4       1.0  0.50000  0.75300  0.00000  1.0000
  Fe  Fe5       1.0  0.75000  0.12200  0.25000  1.0000
  Fe  Fe6       1.0  0.75000  0.62700  0.25000  1.0000
  Fe  Fe7       1.0  0.00000  0.00000  0.50000  1.0000
  Fe  Fe8       1.0  0.50000  0.00000  0.50000  1.0000
  Fe  Fe9       1.0  0.00000  0.50000  0.50000  1.0000
  Fe  Fe10      1.0  0.50000  0.50000  0.50000  1.0000
  Fe  Fe11      1.0  0.25000  0.37300  0.75000  1.0000
  Fe  Fe12      1.0  0.25000  0.87800  0.75000  1.0000
  Gd  Gd1       1.0  0.25000  0.87300  0.25400  1.0000
  Gd  Gd2       1.0  0.75000  0.12700  0.74600  1.0000
  Sn  Sn1       1.0  0.75000  0.45900  0.08170  1.0000
  Sn  Sn2       1.0  0.75000  0.95800  0.08430  1.0000
  Sn  Sn3       1.0  0.25000  0.21300  0.24900  1.0000
  Sn  Sn4       1.0  0.25000  0.53800  0.24900  1.0000
  Sn  Sn5       1.0  0.75000  0.29500  0.41000  1.0000
  Sn  Sn6       1.0  0.75000  0.78900  0.42200  1.0000
  Sn  Sn7       1.0  0.25000  0.21100  0.57800  1.0000
  Sn  Sn8       1.0  0.25000  0.70500  0.59000  1.0000
  Sn  Sn9       1.0  0.75000  0.46200  0.75100  1.0000
  Sn  Sn10      1.0  0.75000  0.78700  0.75100  1.0000
  Sn  Sn11      1.0  0.25000  0.04220  0.91600  1.0000
  Sn  Sn12      1.0  0.25000  0.54100  0.91800  1.0000
