data_image0
_chemical_formula_structural       S17ScU8
_chemical_formula_sum              "S17 Sc1 U8"
_cell_length_a       7.82173
_cell_length_b       7.82173
_cell_length_c       10.4467
_cell_angle_alpha    99.5849
_cell_angle_beta     99.5849
_cell_angle_gamma    64.6436

_space_group_name_H-M_alt    "P 1"
_space_group_IT_number       1

loop_
  _space_group_symop_operation_xyz
  'x, y, z'

loop_
  _atom_site_type_symbol
  _atom_site_label
  _atom_site_symmetry_multiplicity
  _atom_site_fract_x
  _atom_site_fract_y
  _atom_site_fract_z
  _atom_site_occupancy
  S   S1        1.0  0.67000  0.05830  0.03700  1.0000
  S   S2        1.0  0.05830  0.67000  0.03700  1.0000
  S   S3        1.0  0.52100  0.52100  0.17000  1.0000
  S   S4        1.0  0.06190  0.06190  0.23500  1.0000
  S   S5        1.0  0.30300  0.30300  0.24700  1.0000
  S   S6        1.0  0.78800  0.78800  0.27900  1.0000
  S   S7        1.0  0.82100  0.43200  0.46500  1.0000
  S   S8        1.0  0.43200  0.82100  0.46500  1.0000
  S   S9        1.0  0.00000  0.00000  0.50000  1.0000
  S   S10       1.0  0.56800  0.17900  0.53500  1.0000
  S   S11       1.0  0.17900  0.56800  0.53500  1.0000
  S   S12       1.0  0.21200  0.21200  0.72100  1.0000
  S   S13       1.0  0.69700  0.69700  0.75300  1.0000
  S   S14       1.0  0.93800  0.93800  0.76500  1.0000
  S   S15       1.0  0.47900  0.47900  0.83000  1.0000
  S   S16       1.0  0.94200  0.33000  0.96300  1.0000
  S   S17       1.0  0.33000  0.94200  0.96300  1.0000
  Sc  Sc1       1.0  0.00000  0.00000  0.00000  1.0000
  U   U1        1.0  0.68200  0.68200  0.01720  1.0000
  U   U2        1.0  0.69700  0.18400  0.30100  1.0000
  U   U3        1.0  0.18400  0.69700  0.30100  1.0000
  U   U4        1.0  0.20500  0.20500  0.45900  1.0000
  U   U5        1.0  0.79500  0.79500  0.54100  1.0000
  U   U6        1.0  0.81600  0.30300  0.69900  1.0000
  U   U7        1.0  0.30300  0.81600  0.69900  1.0000
  U   U8        1.0  0.31800  0.31800  0.98300  1.0000
