data_image0
_chemical_formula_structural       Cu4O16Te6
_chemical_formula_sum              "Cu4 O16 Te6"
_cell_length_a       5.2548
_cell_length_b       6.39083
_cell_length_c       12.1008
_cell_angle_alpha    99.7816
_cell_angle_beta     90
_cell_angle_gamma    114.275

_space_group_name_H-M_alt    "P 1"
_space_group_IT_number       1

loop_
  _space_group_symop_operation_xyz
  'x, y, z'

loop_
  _atom_site_type_symbol
  _atom_site_label
  _atom_site_symmetry_multiplicity
  _atom_site_fract_x
  _atom_site_fract_y
  _atom_site_fract_z
  _atom_site_occupancy
  Cu  Cu1       1.0  0.53900  0.53300  0.15400  1.0000
  Cu  Cu2       1.0  0.00614  0.46700  0.34600  1.0000
  Cu  Cu3       1.0  0.99400  0.53300  0.65400  1.0000
  Cu  Cu4       1.0  0.46100  0.46700  0.84600  1.0000
  O   O1        1.0  0.23800  0.55800  0.05070  1.0000
  O   O2        1.0  0.22500  0.23200  0.13900  1.0000
  O   O3        1.0  0.83500  0.82700  0.14400  1.0000
  O   O4        1.0  0.77900  0.37000  0.18400  1.0000
  O   O5        1.0  0.40900  0.63000  0.31600  1.0000
  O   O6        1.0  0.00723  0.17300  0.35600  1.0000
  O   O7        1.0  0.99300  0.76800  0.36100  1.0000
  O   O8        1.0  0.68000  0.44200  0.44900  1.0000
  O   O9        1.0  0.32000  0.55800  0.55100  1.0000
  O   O10       1.0  0.00715  0.23200  0.63900  1.0000
  O   O11       1.0  0.99300  0.82700  0.64400  1.0000
  O   O12       1.0  0.59100  0.37000  0.68400  1.0000
  O   O13       1.0  0.22100  0.63000  0.81600  1.0000
  O   O14       1.0  0.16500  0.17300  0.85600  1.0000
  O   O15       1.0  0.77500  0.76800  0.86100  1.0000
  O   O16       1.0  0.76200  0.44200  0.94900  1.0000
  Te  Te1       1.0  0.91500  0.26000  0.05230  1.0000
  Te  Te2       1.0  0.15300  0.00000  0.25000  1.0000
  Te  Te3       1.0  0.65500  0.74000  0.44800  1.0000
  Te  Te4       1.0  0.34500  0.26000  0.55200  1.0000
  Te  Te5       1.0  0.84700  0.00000  0.75000  1.0000
  Te  Te6       1.0  0.08500  0.74000  0.94800  1.0000
