data_image0
_chemical_formula_structural       Cs3Mn3O16V4
_chemical_formula_sum              "Cs3 Mn3 O16 V4"
_cell_length_a       5.1708
_cell_length_b       7.48774
_cell_length_c       11.2891
_cell_angle_alpha    77.78
_cell_angle_beta     89.7625
_cell_angle_gamma    82.7502

_space_group_name_H-M_alt    "P 1"
_space_group_IT_number       1

loop_
  _space_group_symop_operation_xyz
  'x, y, z'

loop_
  _atom_site_type_symbol
  _atom_site_label
  _atom_site_symmetry_multiplicity
  _atom_site_fract_x
  _atom_site_fract_y
  _atom_site_fract_z
  _atom_site_occupancy
  Cs  Cs1       1.0  0.00000  0.00000  0.00000  1.0000
  Cs  Cs2       1.0  0.11400  0.26100  0.49000  1.0000
  Cs  Cs3       1.0  0.88600  0.73900  0.51000  1.0000
  Mn  Mn1       1.0  0.50000  0.50000  0.00000  1.0000
  Mn  Mn2       1.0  0.00846  0.43800  0.13600  1.0000
  Mn  Mn3       1.0  0.99200  0.56200  0.86400  1.0000
  O   O1        1.0  0.80600  0.61800  0.00937  1.0000
  O   O2        1.0  0.69700  0.27300  0.13100  1.0000
  O   O3        1.0  0.33300  0.60200  0.13500  1.0000
  O   O4        1.0  0.55300  0.91300  0.18800  1.0000
  O   O5        1.0  0.20600  0.22900  0.24100  1.0000
  O   O6        1.0  0.83000  0.54300  0.26600  1.0000
  O   O7        1.0  0.37400  0.64400  0.37400  1.0000
  O   O8        1.0  0.66100  0.10400  0.37500  1.0000
  O   O9        1.0  0.33900  0.89600  0.62500  1.0000
  O   O10       1.0  0.62600  0.35600  0.62600  1.0000
  O   O11       1.0  0.17000  0.45700  0.73400  1.0000
  O   O12       1.0  0.79400  0.77100  0.75900  1.0000
  O   O13       1.0  0.44700  0.08680  0.81200  1.0000
  O   O14       1.0  0.66700  0.39800  0.86500  1.0000
  O   O15       1.0  0.30300  0.72700  0.86900  1.0000
  O   O16       1.0  0.19400  0.38200  0.99100  1.0000
  V   V1        1.0  0.53000  0.13100  0.23800  1.0000
  V   V2        1.0  0.52300  0.67100  0.24300  1.0000
  V   V3        1.0  0.47700  0.32900  0.75700  1.0000
  V   V4        1.0  0.47000  0.86900  0.76200  1.0000
