data_image0
_chemical_formula_structural       Ag4H8O12Te2
_chemical_formula_sum              "Ag4 H8 O12 Te2"
_cell_length_a       5.45192
_cell_length_b       5.45192
_cell_length_c       9.77394
_cell_angle_alpha    101.235
_cell_angle_beta     101.235
_cell_angle_gamma    107.541

_space_group_name_H-M_alt    "P 1"
_space_group_IT_number       1

loop_
  _space_group_symop_operation_xyz
  'x, y, z'

loop_
  _atom_site_type_symbol
  _atom_site_label
  _atom_site_symmetry_multiplicity
  _atom_site_fract_x
  _atom_site_fract_y
  _atom_site_fract_z
  _atom_site_occupancy
  Ag  Ag1       1.0  0.61600  0.59500  0.15600  1.0000
  Ag  Ag2       1.0  0.71000  0.18900  0.34400  1.0000
  Ag  Ag3       1.0  0.81100  0.29000  0.65600  1.0000
  Ag  Ag4       1.0  0.40500  0.38400  0.84400  1.0000
  H   H1        1.0  0.53800  0.01730  0.01570  1.0000
  H   H2        1.0  0.19200  0.79700  0.23300  1.0000
  H   H3        1.0  0.20800  0.31400  0.26700  1.0000
  H   H4        1.0  0.77200  0.75200  0.48400  1.0000
  H   H5        1.0  0.24800  0.22800  0.51600  1.0000
  H   H6        1.0  0.68600  0.79200  0.73300  1.0000
  H   H7        1.0  0.20300  0.80800  0.76700  1.0000
  H   H8        1.0  0.98300  0.46200  0.98400  1.0000
  O   O1        1.0  0.00727  0.71800  0.08670  1.0000
  O   O2        1.0  0.71200  0.03970  0.09170  1.0000
  O   O3        1.0  0.26300  0.27200  0.17000  1.0000
  O   O4        1.0  0.34200  0.85200  0.33000  1.0000
  O   O5        1.0  0.87000  0.69800  0.40800  1.0000
  O   O6        1.0  0.17100  0.38200  0.41300  1.0000
  O   O7        1.0  0.61800  0.82900  0.58700  1.0000
  O   O8        1.0  0.30200  0.13000  0.59200  1.0000
  O   O9        1.0  0.14800  0.65800  0.67000  1.0000
  O   O10       1.0  0.72800  0.73700  0.83000  1.0000
  O   O11       1.0  0.96000  0.28800  0.90800  1.0000
  O   O12       1.0  0.28200  0.99300  0.91300  1.0000
  Te  Te1       1.0  0.99700  0.00333  0.00000  1.0000
  Te  Te2       1.0  0.24700  0.75300  0.50000  1.0000
