data_image0
_chemical_formula_structural       O18Te8
_chemical_formula_sum              "O18 Te8"
_cell_length_a       7.18159
_cell_length_b       7.18145
_cell_length_c       7.18159
_cell_angle_alpha    99.0962
_cell_angle_beta     80.9044
_cell_angle_gamma    99.0953

_space_group_name_H-M_alt    "P 1"
_space_group_IT_number       1

loop_
  _space_group_symop_operation_xyz
  'x, y, z'

loop_
  _atom_site_type_symbol
  _atom_site_label
  _atom_site_symmetry_multiplicity
  _atom_site_fract_x
  _atom_site_fract_y
  _atom_site_fract_z
  _atom_site_occupancy
  O   O1        1.0  0.72100  0.06270  0.05010  1.0000
  O   O2        1.0  0.95000  0.72100  0.06270  1.0000
  O   O3        1.0  0.28300  0.58400  0.08740  1.0000
  O   O4        1.0  0.42700  0.29400  0.22200  1.0000
  O   O5        1.0  0.06280  0.05010  0.27900  1.0000
  O   O6        1.0  0.41600  0.91300  0.28300  1.0000
  O   O7        1.0  0.77800  0.42700  0.29400  1.0000
  O   O8        1.0  0.08730  0.71700  0.41600  1.0000
  O   O9        1.0  0.70600  0.77800  0.42700  1.0000
  O   O10       1.0  0.29400  0.22200  0.57300  1.0000
  O   O11       1.0  0.91300  0.28300  0.58400  1.0000
  O   O12       1.0  0.22200  0.57300  0.70600  1.0000
  O   O13       1.0  0.58400  0.08730  0.71700  1.0000
  O   O14       1.0  0.93700  0.95000  0.72100  1.0000
  O   O15       1.0  0.57300  0.70600  0.77800  1.0000
  O   O16       1.0  0.71700  0.41600  0.91300  1.0000
  O   O17       1.0  0.05000  0.27900  0.93700  1.0000
  O   O18       1.0  0.27900  0.93700  0.95000  1.0000
  Te  Te1       1.0  0.69700  0.60400  0.15700  1.0000
  Te  Te2       1.0  0.18100  0.81900  0.18100  1.0000
  Te  Te3       1.0  0.60400  0.15700  0.30300  1.0000
  Te  Te4       1.0  0.15700  0.30300  0.39600  1.0000
  Te  Te5       1.0  0.84300  0.69700  0.60400  1.0000
  Te  Te6       1.0  0.39600  0.84300  0.69700  1.0000
  Te  Te7       1.0  0.81900  0.18100  0.81900  1.0000
  Te  Te8       1.0  0.30300  0.39600  0.84300  1.0000
