data_image0
_chemical_formula_structural       Nb4Pd6Se16
_chemical_formula_sum              "Nb4 Pd6 Se16"
_cell_length_a       3.59939
_cell_length_b       10.7303
_cell_length_c       15.2743
_cell_angle_alpha    90
_cell_angle_beta     90
_cell_angle_gamma    90

_space_group_name_H-M_alt    "P 1"
_space_group_IT_number       1

loop_
  _space_group_symop_operation_xyz
  'x, y, z'

loop_
  _atom_site_type_symbol
  _atom_site_label
  _atom_site_symmetry_multiplicity
  _atom_site_fract_x
  _atom_site_fract_y
  _atom_site_fract_z
  _atom_site_occupancy
  Nb  Nb1       1.0  0.50000  0.21400  0.11600  1.0000
  Nb  Nb2       1.0  0.50000  0.71400  0.38400  1.0000
  Nb  Nb3       1.0  0.50000  0.28600  0.61600  1.0000
  Nb  Nb4       1.0  0.50000  0.78600  0.88400  1.0000
  Pd  Pd1       1.0  0.00000  0.00000  0.00000  1.0000
  Pd  Pd2       1.0  0.00000  0.38100  0.21700  1.0000
  Pd  Pd3       1.0  0.00000  0.88100  0.28300  1.0000
  Pd  Pd4       1.0  0.00000  0.50000  0.50000  1.0000
  Pd  Pd5       1.0  0.00000  0.11900  0.71700  1.0000
  Pd  Pd6       1.0  0.00000  0.61900  0.78300  1.0000
  Se  Se1       1.0  0.00000  0.76900  0.00972  1.0000
  Se  Se2       1.0  0.50000  0.45500  0.11600  1.0000
  Se  Se3       1.0  0.00000  0.04470  0.15700  1.0000
  Se  Se4       1.0  0.50000  0.75000  0.21700  1.0000
  Se  Se5       1.0  0.50000  0.25000  0.28300  1.0000
  Se  Se6       1.0  0.00000  0.54500  0.34300  1.0000
  Se  Se7       1.0  0.50000  0.95500  0.38400  1.0000
  Se  Se8       1.0  0.00000  0.26900  0.49000  1.0000
  Se  Se9       1.0  0.00000  0.73100  0.51000  1.0000
  Se  Se10      1.0  0.50000  0.04450  0.61600  1.0000
  Se  Se11      1.0  0.00000  0.45500  0.65700  1.0000
  Se  Se12      1.0  0.50000  0.75000  0.71700  1.0000
  Se  Se13      1.0  0.50000  0.25000  0.78300  1.0000
  Se  Se14      1.0  0.00000  0.95500  0.84300  1.0000
  Se  Se15      1.0  0.50000  0.54500  0.88400  1.0000
  Se  Se16      1.0  0.00000  0.23100  0.99000  1.0000
