data_image0
_chemical_formula_structural       Mn6O16V4
_chemical_formula_sum              "Mn6 O16 V4"
_cell_length_a       6.21613
_cell_length_b       6.63586
_cell_length_c       8.46961
_cell_angle_alpha    90
_cell_angle_beta     90
_cell_angle_gamma    62.0712

_space_group_name_H-M_alt    "P 1"
_space_group_IT_number       1

loop_
  _space_group_symop_operation_xyz
  'x, y, z'

loop_
  _atom_site_type_symbol
  _atom_site_label
  _atom_site_symmetry_multiplicity
  _atom_site_fract_x
  _atom_site_fract_y
  _atom_site_fract_z
  _atom_site_occupancy
  Mn  Mn1       1.0  0.00000  0.00000  0.00000  1.0000
  Mn  Mn2       1.0  0.11200  0.27500  0.25000  1.0000
  Mn  Mn3       1.0  0.61200  0.27500  0.25000  1.0000
  Mn  Mn4       1.0  0.50000  0.00000  0.50000  1.0000
  Mn  Mn5       1.0  0.38800  0.72500  0.75000  1.0000
  Mn  Mn6       1.0  0.88800  0.72500  0.75000  1.0000
  O   O1        1.0  0.39000  0.76300  0.00177  1.0000
  O   O2        1.0  0.84700  0.76300  0.00177  1.0000
  O   O3        1.0  0.74600  0.50900  0.22800  1.0000
  O   O4        1.0  0.99800  0.00307  0.24900  1.0000
  O   O5        1.0  0.49800  0.00307  0.25100  1.0000
  O   O6        1.0  0.24600  0.50900  0.27200  1.0000
  O   O7        1.0  0.34700  0.76300  0.49800  1.0000
  O   O8        1.0  0.89000  0.76300  0.49800  1.0000
  O   O9        1.0  0.11000  0.23700  0.50200  1.0000
  O   O10       1.0  0.65300  0.23700  0.50200  1.0000
  O   O11       1.0  0.75400  0.49100  0.72800  1.0000
  O   O12       1.0  0.50200  0.99700  0.74900  1.0000
  O   O13       1.0  0.00154  0.99700  0.75100  1.0000
  O   O14       1.0  0.25400  0.49100  0.77200  1.0000
  O   O15       1.0  0.15300  0.23700  0.99800  1.0000
  O   O16       1.0  0.61000  0.23700  0.99800  1.0000
  V   V1        1.0  0.62000  0.76000  0.11900  1.0000
  V   V2        1.0  0.12000  0.76000  0.38100  1.0000
  V   V3        1.0  0.88000  0.24000  0.61900  1.0000
  V   V4        1.0  0.38000  0.24000  0.88100  1.0000
