data_image0
_chemical_formula_structural       Li16N8Nb2O
_chemical_formula_sum              "Li16 N8 Nb2 O1"
_cell_length_a       5.95826
_cell_length_b       5.95826
_cell_length_c       9.10953
_cell_angle_alpha    70.9111
_cell_angle_beta     109.089
_cell_angle_gamma    120

_space_group_name_H-M_alt    "P 1"
_space_group_IT_number       1

loop_
  _space_group_symop_operation_xyz
  'x, y, z'

loop_
  _atom_site_type_symbol
  _atom_site_label
  _atom_site_symmetry_multiplicity
  _atom_site_fract_x
  _atom_site_fract_y
  _atom_site_fract_z
  _atom_site_occupancy
  Li  Li1       1.0  0.33200  0.31600  0.07120  1.0000
  Li  Li2       1.0  0.05530  0.66800  0.07120  1.0000
  Li  Li3       1.0  0.68400  0.94500  0.07120  1.0000
  Li  Li4       1.0  0.07790  0.92200  0.23400  1.0000
  Li  Li5       1.0  0.41700  0.58300  0.25000  1.0000
  Li  Li6       1.0  0.17300  0.16900  0.42500  1.0000
  Li  Li7       1.0  0.83100  0.57800  0.42500  1.0000
  Li  Li8       1.0  0.42200  0.82700  0.42500  1.0000
  Li  Li9       1.0  0.57800  0.17300  0.57500  1.0000
  Li  Li10      1.0  0.16900  0.42200  0.57500  1.0000
  Li  Li11      1.0  0.82700  0.83100  0.57500  1.0000
  Li  Li12      1.0  0.58300  0.41700  0.75000  1.0000
  Li  Li13      1.0  0.92200  0.07790  0.76600  1.0000
  Li  Li14      1.0  0.31600  0.05530  0.92900  1.0000
  Li  Li15      1.0  0.94500  0.33200  0.92900  1.0000
  Li  Li16      1.0  0.66800  0.68400  0.92900  1.0000
  N   N1        1.0  0.67300  0.32700  0.01760  1.0000
  N   N2        1.0  0.46200  0.22600  0.32600  1.0000
  N   N3        1.0  0.08990  0.53800  0.32600  1.0000
  N   N4        1.0  0.77400  0.91000  0.32600  1.0000
  N   N5        1.0  0.22600  0.08990  0.67400  1.0000
  N   N6        1.0  0.91000  0.46200  0.67400  1.0000
  N   N7        1.0  0.53800  0.77400  0.67400  1.0000
  N   N8        1.0  0.32700  0.67300  0.98200  1.0000
  Nb  Nb1       1.0  0.75000  0.25000  0.25100  1.0000
  Nb  Nb2       1.0  0.25000  0.75000  0.74900  1.0000
  O   O1        1.0  0.00000  0.00000  0.00000  1.0000
