data_image0
_chemical_formula_structural       Ca10Ga4Sb12
_chemical_formula_sum              "Ca10 Ga4 Sb12"
_cell_length_a       14.0851
_cell_length_b       12.1329
_cell_length_c       4.4893
_cell_angle_alpha    90
_cell_angle_beta     90
_cell_angle_gamma    90

_space_group_name_H-M_alt    "P 1"
_space_group_IT_number       1

loop_
  _space_group_symop_operation_xyz
  'x, y, z'

loop_
  _atom_site_type_symbol
  _atom_site_label
  _atom_site_symmetry_multiplicity
  _atom_site_fract_x
  _atom_site_fract_y
  _atom_site_fract_z
  _atom_site_occupancy
  Ca  Ca1       1.0  0.50000  0.00000  0.50000  1.0000
  Ca  Ca2       1.0  0.74700  0.09140  0.50000  1.0000
  Ca  Ca3       1.0  0.01670  0.17200  0.50000  1.0000
  Ca  Ca4       1.0  0.51700  0.32800  0.50000  1.0000
  Ca  Ca5       1.0  0.24700  0.40900  0.50000  1.0000
  Ca  Ca6       1.0  0.00000  0.50000  0.50000  1.0000
  Ca  Ca7       1.0  0.75300  0.59100  0.50000  1.0000
  Ca  Ca8       1.0  0.48300  0.67200  0.50000  1.0000
  Ca  Ca9       1.0  0.98300  0.82800  0.50000  1.0000
  Ca  Ca10      1.0  0.25300  0.90900  0.50000  1.0000
  Ga  Ga1       1.0  0.21200  0.17000  0.00000  1.0000
  Ga  Ga2       1.0  0.71200  0.33000  0.00000  1.0000
  Ga  Ga3       1.0  0.28800  0.67000  0.00000  1.0000
  Ga  Ga4       1.0  0.78800  0.83000  0.00000  1.0000
  Sb  Sb1       1.0  0.90000  0.02650  0.00000  1.0000
  Sb  Sb2       1.0  0.59100  0.15400  0.00000  1.0000
  Sb  Sb3       1.0  0.09150  0.34600  0.00000  1.0000
  Sb  Sb4       1.0  0.40000  0.47300  0.00000  1.0000
  Sb  Sb5       1.0  0.60000  0.52700  0.00000  1.0000
  Sb  Sb6       1.0  0.90900  0.65400  0.00000  1.0000
  Sb  Sb7       1.0  0.40900  0.84600  0.00000  1.0000
  Sb  Sb8       1.0  0.10000  0.97300  0.00000  1.0000
  Sb  Sb9       1.0  0.32300  0.16300  0.50000  1.0000
  Sb  Sb10      1.0  0.82300  0.33700  0.50000  1.0000
  Sb  Sb11      1.0  0.17700  0.66300  0.50000  1.0000
  Sb  Sb12      1.0  0.67700  0.83700  0.50000  1.0000
