data_image0
_chemical_formula_structural       Ca4O16Se6
_chemical_formula_sum              "Ca4 O16 Se6"
_cell_length_a       5.47188
_cell_length_b       8.04468
_cell_length_c       8.66187
_cell_angle_alpha    91.6251
_cell_angle_beta     96.3151
_cell_angle_gamma    96.7452

_space_group_name_H-M_alt    "P 1"
_space_group_IT_number       1

loop_
  _space_group_symop_operation_xyz
  'x, y, z'

loop_
  _atom_site_type_symbol
  _atom_site_label
  _atom_site_symmetry_multiplicity
  _atom_site_fract_x
  _atom_site_fract_y
  _atom_site_fract_z
  _atom_site_occupancy
  Ca  Ca1       1.0  0.71000  0.84100  0.04220  1.0000
  Ca  Ca2       1.0  0.24300  0.95600  0.34800  1.0000
  Ca  Ca3       1.0  0.75700  0.04360  0.65200  1.0000
  Ca  Ca4       1.0  0.29000  0.15900  0.95800  1.0000
  O   O1        1.0  0.25000  0.42800  0.02890  1.0000
  O   O2        1.0  0.31600  0.75100  0.13000  1.0000
  O   O3        1.0  0.01080  0.08520  0.13800  1.0000
  O   O4        1.0  0.54400  0.07760  0.17900  1.0000
  O   O5        1.0  0.87600  0.76100  0.28200  1.0000
  O   O6        1.0  0.50400  0.51100  0.31500  1.0000
  O   O7        1.0  0.91800  0.14000  0.41800  1.0000
  O   O8        1.0  0.54900  0.81300  0.48200  1.0000
  O   O9        1.0  0.45100  0.18700  0.51800  1.0000
  O   O10       1.0  0.08160  0.86000  0.58200  1.0000
  O   O11       1.0  0.49600  0.48900  0.68500  1.0000
  O   O12       1.0  0.12400  0.23900  0.71800  1.0000
  O   O13       1.0  0.45600  0.92200  0.82100  1.0000
  O   O14       1.0  0.98900  0.91500  0.86200  1.0000
  O   O15       1.0  0.68400  0.24900  0.87000  1.0000
  O   O16       1.0  0.75000  0.57200  0.97100  1.0000
  Se  Se1       1.0  0.22200  0.55400  0.18100  1.0000
  Se  Se2       1.0  0.82200  0.20100  0.23500  1.0000
  Se  Se3       1.0  0.73100  0.67000  0.42800  1.0000
  Se  Se4       1.0  0.26900  0.33000  0.57200  1.0000
  Se  Se5       1.0  0.17800  0.79900  0.76500  1.0000
  Se  Se6       1.0  0.77800  0.44600  0.81900  1.0000
