data_image0
_chemical_formula_structural       Cl18Cs2PbTa6
_chemical_formula_sum              "Cl18 Cs2 Pb1 Ta6"
_cell_length_a       10.3863
_cell_length_b       10.3863
_cell_length_c       10.3863
_cell_angle_alpha    54.7349
_cell_angle_beta     54.7349
_cell_angle_gamma    54.7349

_space_group_name_H-M_alt    "P 1"
_space_group_IT_number       1

loop_
  _space_group_symop_operation_xyz
  'x, y, z'

loop_
  _atom_site_type_symbol
  _atom_site_label
  _atom_site_symmetry_multiplicity
  _atom_site_fract_x
  _atom_site_fract_y
  _atom_site_fract_z
  _atom_site_occupancy
  Cl  Cl1       1.0  0.82800  0.32500  0.04000  1.0000
  Cl  Cl2       1.0  0.77000  0.64200  0.09010  1.0000
  Cl  Cl3       1.0  0.43400  0.57900  0.16600  1.0000
  Cl  Cl4       1.0  0.67500  0.96000  0.17200  1.0000
  Cl  Cl5       1.0  0.35800  0.91000  0.23000  1.0000
  Cl  Cl6       1.0  0.04000  0.82800  0.32500  1.0000
  Cl  Cl7       1.0  0.91000  0.23000  0.35800  1.0000
  Cl  Cl8       1.0  0.83400  0.56600  0.42100  1.0000
  Cl  Cl9       1.0  0.57900  0.16600  0.43400  1.0000
  Cl  Cl10      1.0  0.42100  0.83400  0.56600  1.0000
  Cl  Cl11      1.0  0.16600  0.43400  0.57900  1.0000
  Cl  Cl12      1.0  0.09010  0.77000  0.64200  1.0000
  Cl  Cl13      1.0  0.96000  0.17200  0.67500  1.0000
  Cl  Cl14      1.0  0.64200  0.09010  0.77000  1.0000
  Cl  Cl15      1.0  0.32500  0.04000  0.82800  1.0000
  Cl  Cl16      1.0  0.56600  0.42100  0.83400  1.0000
  Cl  Cl17      1.0  0.23000  0.35800  0.91000  1.0000
  Cl  Cl18      1.0  0.17200  0.67500  0.96000  1.0000
  Cs  Cs1       1.0  0.27700  0.27700  0.27700  1.0000
  Cs  Cs2       1.0  0.72300  0.72300  0.72300  1.0000
  Pb  Pb1       1.0  0.00000  0.00000  0.00000  1.0000
  Ta  Ta1       1.0  0.64600  0.42000  0.30000  1.0000
  Ta  Ta2       1.0  0.58000  0.70000  0.35400  1.0000
  Ta  Ta3       1.0  0.30000  0.64600  0.42000  1.0000
  Ta  Ta4       1.0  0.70000  0.35400  0.58000  1.0000
  Ta  Ta5       1.0  0.42000  0.30000  0.64600  1.0000
  Ta  Ta6       1.0  0.35400  0.58000  0.70000  1.0000
