data_image0
_chemical_formula_structural       Co2O16P4Zn4
_chemical_formula_sum              "Co2 O16 P4 Zn4"
_cell_length_a       7.43418
_cell_length_b       8.36502
_cell_length_c       5.05896
_cell_angle_alpha    90
_cell_angle_beta     94.5909
_cell_angle_gamma    90

_space_group_name_H-M_alt    "P 1"
_space_group_IT_number       1

loop_
  _space_group_symop_operation_xyz
  'x, y, z'

loop_
  _atom_site_type_symbol
  _atom_site_label
  _atom_site_symmetry_multiplicity
  _atom_site_fract_x
  _atom_site_fract_y
  _atom_site_fract_z
  _atom_site_occupancy
  Co  Co1       1.0  0.50000  0.50000  0.00000  1.0000
  Co  Co2       1.0  0.00000  0.00000  0.50000  1.0000
  O   O1        1.0  0.75000  0.63700  0.04910  1.0000
  O   O2        1.0  0.35600  0.07870  0.05360  1.0000
  O   O3        1.0  0.95800  0.86300  0.16300  1.0000
  O   O4        1.0  0.37700  0.69700  0.17800  1.0000
  O   O5        1.0  0.12300  0.19700  0.32200  1.0000
  O   O6        1.0  0.54200  0.36300  0.33700  1.0000
  O   O7        1.0  0.14400  0.57900  0.44600  1.0000
  O   O8        1.0  0.75000  0.13700  0.45100  1.0000
  O   O9        1.0  0.25000  0.86300  0.54900  1.0000
  O   O10       1.0  0.85600  0.42100  0.55400  1.0000
  O   O11       1.0  0.45800  0.63700  0.66300  1.0000
  O   O12       1.0  0.87700  0.80300  0.67800  1.0000
  O   O13       1.0  0.62300  0.30300  0.82200  1.0000
  O   O14       1.0  0.04190  0.13700  0.83700  1.0000
  O   O15       1.0  0.64400  0.92100  0.94600  1.0000
  O   O16       1.0  0.25000  0.36300  0.95100  1.0000
  P   P1        1.0  0.19200  0.19300  0.04140  1.0000
  P   P2        1.0  0.30800  0.69300  0.45900  1.0000
  P   P3        1.0  0.69200  0.30700  0.54100  1.0000
  P   P4        1.0  0.80800  0.80700  0.95900  1.0000
  Zn  Zn1       1.0  0.62100  0.13700  0.09110  1.0000
  Zn  Zn2       1.0  0.87900  0.63700  0.40900  1.0000
  Zn  Zn3       1.0  0.12100  0.36300  0.59100  1.0000
  Zn  Zn4       1.0  0.37900  0.86300  0.90900  1.0000
