data_image0
_chemical_formula_structural       Sb6Tl21
_chemical_formula_sum              "Sb6 Tl21"
_cell_length_a       10.1459
_cell_length_b       10.1459
_cell_length_c       10.1459
_cell_angle_alpha    109.471
_cell_angle_beta     109.471
_cell_angle_gamma    109.471

_space_group_name_H-M_alt    "P 1"
_space_group_IT_number       1

loop_
  _space_group_symop_operation_xyz
  'x, y, z'

loop_
  _atom_site_type_symbol
  _atom_site_label
  _atom_site_symmetry_multiplicity
  _atom_site_fract_x
  _atom_site_fract_y
  _atom_site_fract_z
  _atom_site_occupancy
  Sb  Sb1       1.0  0.30700  0.30700  0.00000  1.0000
  Sb  Sb2       1.0  0.69300  0.69300  0.00000  1.0000
  Sb  Sb3       1.0  0.30700  0.00000  0.30700  1.0000
  Sb  Sb4       1.0  0.00000  0.30700  0.30700  1.0000
  Sb  Sb5       1.0  0.69300  0.00000  0.69300  1.0000
  Sb  Sb6       1.0  0.00000  0.69300  0.69300  1.0000
  Tl  Tl1       1.0  0.00000  0.00000  0.00000  1.0000
  Tl  Tl2       1.0  0.34000  0.00000  0.00000  1.0000
  Tl  Tl3       1.0  0.66000  0.00000  0.00000  1.0000
  Tl  Tl4       1.0  0.00000  0.34000  0.00000  1.0000
  Tl  Tl5       1.0  0.65200  0.34800  0.00000  1.0000
  Tl  Tl6       1.0  0.34800  0.65200  0.00000  1.0000
  Tl  Tl7       1.0  0.00000  0.66000  0.00000  1.0000
  Tl  Tl8       1.0  0.65200  0.65200  0.30400  1.0000
  Tl  Tl9       1.0  0.00000  0.00000  0.34000  1.0000
  Tl  Tl10      1.0  0.34000  0.34000  0.34000  1.0000
  Tl  Tl11      1.0  0.69600  0.34800  0.34800  1.0000
  Tl  Tl12      1.0  0.34800  0.69600  0.34800  1.0000
  Tl  Tl13      1.0  0.65200  0.00000  0.34800  1.0000
  Tl  Tl14      1.0  0.00000  0.65200  0.34800  1.0000
  Tl  Tl15      1.0  0.34800  0.00000  0.65200  1.0000
  Tl  Tl16      1.0  0.65200  0.30400  0.65200  1.0000
  Tl  Tl17      1.0  0.00000  0.34800  0.65200  1.0000
  Tl  Tl18      1.0  0.30400  0.65200  0.65200  1.0000
  Tl  Tl19      1.0  0.00000  0.00000  0.66000  1.0000
  Tl  Tl20      1.0  0.66000  0.66000  0.66000  1.0000
  Tl  Tl21      1.0  0.34800  0.34800  0.69600  1.0000
