data_image0
_chemical_formula_structural       Pt6Se16Ta4
_chemical_formula_sum              "Pt6 Se16 Ta4"
_cell_length_a       15.2103
_cell_length_b       10.8201
_cell_length_c       3.59484
_cell_angle_alpha    90
_cell_angle_beta     90
_cell_angle_gamma    90

_space_group_name_H-M_alt    "P 1"
_space_group_IT_number       1

loop_
  _space_group_symop_operation_xyz
  'x, y, z'

loop_
  _atom_site_type_symbol
  _atom_site_label
  _atom_site_symmetry_multiplicity
  _atom_site_fract_x
  _atom_site_fract_y
  _atom_site_fract_z
  _atom_site_occupancy
  Pt  Pt1       1.0  0.00000  0.00000  0.00000  1.0000
  Pt  Pt2       1.0  0.71700  0.12800  0.00000  1.0000
  Pt  Pt3       1.0  0.21700  0.37200  0.00000  1.0000
  Pt  Pt4       1.0  0.50000  0.50000  0.00000  1.0000
  Pt  Pt5       1.0  0.78300  0.62800  0.00000  1.0000
  Pt  Pt6       1.0  0.28300  0.87200  0.00000  1.0000
  Se  Se1       1.0  0.15900  0.04080  0.00000  1.0000
  Se  Se2       1.0  0.99300  0.22900  0.00000  1.0000
  Se  Se3       1.0  0.49300  0.27100  0.00000  1.0000
  Se  Se4       1.0  0.65900  0.45900  0.00000  1.0000
  Se  Se5       1.0  0.34100  0.54100  0.00000  1.0000
  Se  Se6       1.0  0.50700  0.72900  0.00000  1.0000
  Se  Se7       1.0  0.00680  0.77100  0.00000  1.0000
  Se  Se8       1.0  0.84100  0.95900  0.00000  1.0000
  Se  Se9       1.0  0.61800  0.04880  0.50000  1.0000
  Se  Se10      1.0  0.28800  0.24700  0.50000  1.0000
  Se  Se11      1.0  0.78800  0.25300  0.50000  1.0000
  Se  Se12      1.0  0.11800  0.45100  0.50000  1.0000
  Se  Se13      1.0  0.88200  0.54900  0.50000  1.0000
  Se  Se14      1.0  0.21200  0.74700  0.50000  1.0000
  Se  Se15      1.0  0.71200  0.75300  0.50000  1.0000
  Se  Se16      1.0  0.38200  0.95100  0.50000  1.0000
  Ta  Ta1       1.0  0.11900  0.21100  0.50000  1.0000
  Ta  Ta2       1.0  0.61900  0.28900  0.50000  1.0000
  Ta  Ta3       1.0  0.38100  0.71100  0.50000  1.0000
  Ta  Ta4       1.0  0.88100  0.78900  0.50000  1.0000
