data_image0
_chemical_formula_structural       Co5O15Sr6
_chemical_formula_sum              "Co5 O15 Sr6"
_cell_length_a       6.82628
_cell_length_b       6.82628
_cell_length_c       6.82628
_cell_angle_alpha    92.5511
_cell_angle_beta     87.4489
_cell_angle_gamma    92.5511

_space_group_name_H-M_alt    "P 1"
_space_group_IT_number       1

loop_
  _space_group_symop_operation_xyz
  'x, y, z'

loop_
  _atom_site_type_symbol
  _atom_site_label
  _atom_site_symmetry_multiplicity
  _atom_site_fract_x
  _atom_site_fract_y
  _atom_site_fract_z
  _atom_site_occupancy
  Co  Co1       1.0  0.09810  0.90200  0.09810  1.0000
  Co  Co2       1.0  0.29000  0.71000  0.29000  1.0000
  Co  Co3       1.0  0.50000  0.50000  0.50000  1.0000
  Co  Co4       1.0  0.71000  0.29000  0.71000  1.0000
  Co  Co5       1.0  0.90200  0.09810  0.90200  1.0000
  O   O1        1.0  0.15400  0.15400  0.00000  1.0000
  O   O2        1.0  0.34200  0.80100  0.02450  1.0000
  O   O3        1.0  0.84600  1.00000  0.15400  1.0000
  O   O4        1.0  0.02450  0.65800  0.19900  1.0000
  O   O5        1.0  0.37800  0.45600  0.24000  1.0000
  O   O6        1.0  0.19900  0.97500  0.34200  1.0000
  O   O7        1.0  0.54400  0.76000  0.37800  1.0000
  O   O8        1.0  0.62200  0.24000  0.45600  1.0000
  O   O9        1.0  0.24000  0.62200  0.54400  1.0000
  O   O10       1.0  0.76000  0.54400  0.62200  1.0000
  O   O11       1.0  0.97500  0.19900  0.65800  1.0000
  O   O12       1.0  0.45600  0.37800  0.76000  1.0000
  O   O13       1.0  0.65800  0.02450  0.80100  1.0000
  O   O14       1.0  0.00000  0.84600  0.84600  1.0000
  O   O15       1.0  0.80100  0.34200  0.97500  1.0000
  Sr  Sr1       1.0  0.66900  0.66900  0.00000  1.0000
  Sr  Sr2       1.0  0.50000  0.14100  0.14100  1.0000
  Sr  Sr3       1.0  0.00000  0.33100  0.33100  1.0000
  Sr  Sr4       1.0  0.85900  0.85900  0.50000  1.0000
  Sr  Sr5       1.0  0.33100  1.00000  0.66900  1.0000
  Sr  Sr6       1.0  0.14100  0.50000  0.85900  1.0000
