data_image0
_chemical_formula_structural       F8H12N4Si2
_chemical_formula_sum              "F8 H12 N4 Si2"
_cell_length_a       4.77508
_cell_length_b       7.0393
_cell_length_c       5.96797
_cell_angle_alpha    90
_cell_angle_beta     99.8368
_cell_angle_gamma    90

_space_group_name_H-M_alt    "P 1"
_space_group_IT_number       1

loop_
  _space_group_symop_operation_xyz
  'x, y, z'

loop_
  _atom_site_type_symbol
  _atom_site_label
  _atom_site_symmetry_multiplicity
  _atom_site_fract_x
  _atom_site_fract_y
  _atom_site_fract_z
  _atom_site_occupancy
  F   F1        1.0  0.12900  0.22500  0.00508  1.0000
  F   F2        1.0  0.75200  0.07260  0.15700  1.0000
  F   F3        1.0  0.24800  0.57300  0.34300  1.0000
  F   F4        1.0  0.87100  0.72500  0.49500  1.0000
  F   F5        1.0  0.12900  0.27500  0.50500  1.0000
  F   F6        1.0  0.75200  0.42700  0.65700  1.0000
  F   F7        1.0  0.24800  0.92700  0.84300  1.0000
  F   F8        1.0  0.87100  0.77500  0.99500  1.0000
  H   H1        1.0  0.78300  0.55600  0.11300  1.0000
  H   H2        1.0  0.76200  0.32100  0.16700  1.0000
  H   H3        1.0  0.46000  0.97600  0.24000  1.0000
  H   H4        1.0  0.54000  0.47600  0.26000  1.0000
  H   H5        1.0  0.23800  0.82100  0.33300  1.0000
  H   H6        1.0  0.21700  0.05600  0.38700  1.0000
  H   H7        1.0  0.78300  0.94400  0.61300  1.0000
  H   H8        1.0  0.76200  0.17900  0.66700  1.0000
  H   H9        1.0  0.46000  0.52400  0.74000  1.0000
  H   H10       1.0  0.54000  0.02440  0.76000  1.0000
  H   H11       1.0  0.23800  0.67900  0.83300  1.0000
  H   H12       1.0  0.21700  0.44400  0.88700  1.0000
  N   N1        1.0  0.74400  0.45600  0.23000  1.0000
  N   N2        1.0  0.25600  0.95600  0.27000  1.0000
  N   N3        1.0  0.74400  0.04400  0.73000  1.0000
  N   N4        1.0  0.25600  0.54400  0.77000  1.0000
  Si  Si1       1.0  0.00000  0.00000  0.00000  1.0000
  Si  Si2       1.0  0.00000  0.50000  0.50000  1.0000
