data_image0
_chemical_formula_structural       Al16Ce2Pt9
_chemical_formula_sum              "Al16 Ce2 Pt9"
_cell_length_a       4.18797
_cell_length_b       11.1837
_cell_length_c       11.1837
_cell_angle_alpha    110.662
_cell_angle_beta     100.791
_cell_angle_gamma    100.791

_space_group_name_H-M_alt    "P 1"
_space_group_IT_number       1

loop_
  _space_group_symop_operation_xyz
  'x, y, z'

loop_
  _atom_site_type_symbol
  _atom_site_label
  _atom_site_symmetry_multiplicity
  _atom_site_fract_x
  _atom_site_fract_y
  _atom_site_fract_z
  _atom_site_occupancy
  Al  Al1       1.0  0.50000  0.91300  0.08650  1.0000
  Al  Al2       1.0  0.17100  0.25100  0.09180  1.0000
  Al  Al3       1.0  0.30800  0.51200  0.10400  1.0000
  Al  Al4       1.0  0.17100  0.09180  0.25100  1.0000
  Al  Al5       1.0  0.88200  0.48900  0.27500  1.0000
  Al  Al6       1.0  0.38600  0.38600  0.38600  1.0000
  Al  Al7       1.0  0.69200  0.89600  0.48800  1.0000
  Al  Al8       1.0  0.88200  0.27500  0.48900  1.0000
  Al  Al9       1.0  0.11800  0.72500  0.51100  1.0000
  Al  Al10      1.0  0.30800  0.10400  0.51200  1.0000
  Al  Al11      1.0  0.61400  0.61400  0.61400  1.0000
  Al  Al12      1.0  0.11800  0.51100  0.72500  1.0000
  Al  Al13      1.0  0.82900  0.90800  0.74900  1.0000
  Al  Al14      1.0  0.69200  0.48800  0.89600  1.0000
  Al  Al15      1.0  0.82900  0.74900  0.90800  1.0000
  Al  Al16      1.0  0.50000  0.08650  0.91300  1.0000
  Ce  Ce1       1.0  0.00000  0.77100  0.22900  1.0000
  Ce  Ce2       1.0  0.00000  0.22900  0.77100  1.0000
  Pt  Pt1       1.0  0.00000  0.00000  0.00000  1.0000
  Pt  Pt2       1.0  0.68700  0.34700  0.02710  1.0000
  Pt  Pt3       1.0  0.75000  0.25000  0.25000  1.0000
  Pt  Pt4       1.0  0.68700  0.02710  0.34700  1.0000
  Pt  Pt5       1.0  0.50000  0.62300  0.37700  1.0000
  Pt  Pt6       1.0  0.50000  0.37700  0.62300  1.0000
  Pt  Pt7       1.0  0.31300  0.97300  0.65300  1.0000
  Pt  Pt8       1.0  0.25000  0.75000  0.75000  1.0000
  Pt  Pt9       1.0  0.31300  0.65300  0.97300  1.0000
