data_image0
_chemical_formula_structural       Ba4O16Si4V2
_chemical_formula_sum              "Ba4 O16 Si4 V2"
_cell_length_a       5.19322
_cell_length_b       8.52088
_cell_length_c       8.52088
_cell_angle_alpha    90
_cell_angle_beta     90
_cell_angle_gamma    90

_space_group_name_H-M_alt    "P 1"
_space_group_IT_number       1

loop_
  _space_group_symop_operation_xyz
  'x, y, z'

loop_
  _atom_site_type_symbol
  _atom_site_label
  _atom_site_symmetry_multiplicity
  _atom_site_fract_x
  _atom_site_fract_y
  _atom_site_fract_z
  _atom_site_occupancy
  Ba  Ba1       1.0  0.99500  0.67200  0.17200  1.0000
  Ba  Ba2       1.0  0.99500  0.17200  0.32800  1.0000
  Ba  Ba3       1.0  0.99500  0.82800  0.67200  1.0000
  Ba  Ba4       1.0  0.99500  0.32800  0.82800  1.0000
  O   O1        1.0  0.20900  0.00000  0.00000  1.0000
  O   O2        1.0  0.63000  0.50000  0.00000  1.0000
  O   O3        1.0  0.64800  0.20500  0.07800  1.0000
  O   O4        1.0  0.20500  0.37200  0.12800  1.0000
  O   O5        1.0  0.64800  0.92200  0.20500  1.0000
  O   O6        1.0  0.64800  0.42200  0.29500  1.0000
  O   O7        1.0  0.20500  0.87200  0.37200  1.0000
  O   O8        1.0  0.64800  0.70500  0.42200  1.0000
  O   O9        1.0  0.63000  0.00000  0.50000  1.0000
  O   O10       1.0  0.20900  0.50000  0.50000  1.0000
  O   O11       1.0  0.64800  0.29500  0.57800  1.0000
  O   O12       1.0  0.20500  0.12800  0.62800  1.0000
  O   O13       1.0  0.64800  0.57800  0.70500  1.0000
  O   O14       1.0  0.64800  0.07800  0.79500  1.0000
  O   O15       1.0  0.20500  0.62800  0.87200  1.0000
  O   O16       1.0  0.64800  0.79500  0.92200  1.0000
  Si  Si1       1.0  0.51300  0.37100  0.12900  1.0000
  Si  Si2       1.0  0.51300  0.87100  0.37100  1.0000
  Si  Si3       1.0  0.51300  0.12900  0.62900  1.0000
  Si  Si4       1.0  0.51300  0.62900  0.87100  1.0000
  V   V1        1.0  0.53100  0.00000  0.00000  1.0000
  V   V2        1.0  0.53100  0.50000  0.50000  1.0000
