data_image0
_chemical_formula_structural       Nb6O18Pb3
_chemical_formula_sum              "Nb6 O18 Pb3"
_cell_length_a       7.179
_cell_length_b       7.179
_cell_length_c       7.179
_cell_angle_alpha    94.2965
_cell_angle_beta     94.2965
_cell_angle_gamma    94.2965

_space_group_name_H-M_alt    "P 1"
_space_group_IT_number       1

loop_
  _space_group_symop_operation_xyz
  'x, y, z'

loop_
  _atom_site_type_symbol
  _atom_site_label
  _atom_site_symmetry_multiplicity
  _atom_site_fract_x
  _atom_site_fract_y
  _atom_site_fract_z
  _atom_site_occupancy
  Nb  Nb1       1.0  0.81500  0.47200  0.17200  1.0000
  Nb  Nb2       1.0  0.47200  0.81500  0.17200  1.0000
  Nb  Nb3       1.0  0.81500  0.17200  0.47200  1.0000
  Nb  Nb4       1.0  0.17200  0.81500  0.47200  1.0000
  Nb  Nb5       1.0  0.47200  0.17200  0.81500  1.0000
  Nb  Nb6       1.0  0.17200  0.47200  0.81500  1.0000
  O   O1        1.0  0.60200  0.33000  0.05670  1.0000
  O   O2        1.0  0.33000  0.60200  0.05670  1.0000
  O   O3        1.0  0.72000  0.72000  0.16400  1.0000
  O   O4        1.0  0.95000  0.22900  0.22900  1.0000
  O   O5        1.0  0.22900  0.95000  0.22900  1.0000
  O   O6        1.0  0.60200  0.05670  0.33000  1.0000
  O   O7        1.0  0.05670  0.60200  0.33000  1.0000
  O   O8        1.0  0.72000  0.43200  0.43200  1.0000
  O   O9        1.0  0.43200  0.72000  0.43200  1.0000
  O   O10       1.0  0.94500  0.94500  0.49600  1.0000
  O   O11       1.0  0.33000  0.05670  0.60200  1.0000
  O   O12       1.0  0.05670  0.33000  0.60200  1.0000
  O   O13       1.0  0.43200  0.43200  0.72000  1.0000
  O   O14       1.0  0.72000  0.16400  0.72000  1.0000
  O   O15       1.0  0.16400  0.72000  0.72000  1.0000
  O   O16       1.0  0.94500  0.49600  0.94500  1.0000
  O   O17       1.0  0.49600  0.94500  0.94500  1.0000
  O   O18       1.0  0.22900  0.22900  0.95000  1.0000
  Pb  Pb1       1.0  0.31100  0.31100  0.31100  1.0000
  Pb  Pb2       1.0  0.65900  0.65900  0.65900  1.0000
  Pb  Pb3       1.0  0.99500  0.99500  0.99500  1.0000
