data_image0
_chemical_formula_structural       Bi8Rb4Se14
_chemical_formula_sum              "Bi8 Rb4 Se14"
_cell_length_a       13.1451
_cell_length_b       4.25056
_cell_length_c       15.3154
_cell_angle_alpha    90
_cell_angle_beta     92.8039
_cell_angle_gamma    90

_space_group_name_H-M_alt    "P 1"
_space_group_IT_number       1

loop_
  _space_group_symop_operation_xyz
  'x, y, z'

loop_
  _atom_site_type_symbol
  _atom_site_label
  _atom_site_symmetry_multiplicity
  _atom_site_fract_x
  _atom_site_fract_y
  _atom_site_fract_z
  _atom_site_occupancy
  Bi  Bi1       1.0  0.27300  0.75000  0.04890  1.0000
  Bi  Bi2       1.0  0.94100  0.75000  0.12400  1.0000
  Bi  Bi3       1.0  0.16300  0.25000  0.28000  1.0000
  Bi  Bi4       1.0  0.39100  0.75000  0.43100  1.0000
  Bi  Bi5       1.0  0.60900  0.25000  0.56900  1.0000
  Bi  Bi6       1.0  0.83700  0.75000  0.72000  1.0000
  Bi  Bi7       1.0  0.05940  0.25000  0.87600  1.0000
  Bi  Bi8       1.0  0.72700  0.25000  0.95100  1.0000
  Rb  Rb1       1.0  0.56500  0.75000  0.18700  1.0000
  Rb  Rb2       1.0  0.82100  0.25000  0.37200  1.0000
  Rb  Rb3       1.0  0.17900  0.75000  0.62800  1.0000
  Rb  Rb4       1.0  0.43500  0.25000  0.81300  1.0000
  Se  Se1       1.0  0.41100  0.25000  0.03590  1.0000
  Se  Se2       1.0  0.09490  0.25000  0.08460  1.0000
  Se  Se3       1.0  0.78600  0.25000  0.14200  1.0000
  Se  Se4       1.0  0.30800  0.75000  0.24200  1.0000
  Se  Se5       1.0  0.00429  0.75000  0.30200  1.0000
  Se  Se6       1.0  0.54300  0.25000  0.38700  1.0000
  Se  Se7       1.0  0.23800  0.25000  0.46000  1.0000
  Se  Se8       1.0  0.76200  0.75000  0.54000  1.0000
  Se  Se9       1.0  0.45700  0.75000  0.61300  1.0000
  Se  Se10      1.0  0.99600  0.25000  0.69800  1.0000
  Se  Se11      1.0  0.69200  0.25000  0.75800  1.0000
  Se  Se12      1.0  0.21400  0.75000  0.85800  1.0000
  Se  Se13      1.0  0.90500  0.75000  0.91500  1.0000
  Se  Se14      1.0  0.58900  0.75000  0.96400  1.0000
