data_image0
_chemical_formula_structural       B20Ni2Th4
_chemical_formula_sum              "B20 Ni2 Th4"
_cell_length_a       5.64198
_cell_length_b       11.1989
_cell_length_c       4.17391
_cell_angle_alpha    90
_cell_angle_beta     90
_cell_angle_gamma    90

_space_group_name_H-M_alt    "P 1"
_space_group_IT_number       1

loop_
  _space_group_symop_operation_xyz
  'x, y, z'

loop_
  _atom_site_type_symbol
  _atom_site_label
  _atom_site_symmetry_multiplicity
  _atom_site_fract_x
  _atom_site_fract_y
  _atom_site_fract_z
  _atom_site_occupancy
  B   B1        1.0  0.37500  0.04060  0.00000  1.0000
  B   B2        1.0  0.03660  0.18800  0.00000  1.0000
  B   B3        1.0  0.34800  0.19700  0.00000  1.0000
  B   B4        1.0  0.84800  0.30300  0.00000  1.0000
  B   B5        1.0  0.53700  0.31200  0.00000  1.0000
  B   B6        1.0  0.87500  0.45900  0.00000  1.0000
  B   B7        1.0  0.12500  0.54100  0.00000  1.0000
  B   B8        1.0  0.46300  0.68800  0.00000  1.0000
  B   B9        1.0  0.15200  0.69700  0.00000  1.0000
  B   B10       1.0  0.65200  0.80300  0.00000  1.0000
  B   B11       1.0  0.96300  0.81200  0.00000  1.0000
  B   B12       1.0  0.62500  0.95900  0.00000  1.0000
  B   B13       1.0  0.20200  0.11400  0.30000  1.0000
  B   B14       1.0  0.70200  0.38600  0.30000  1.0000
  B   B15       1.0  0.29800  0.61400  0.30000  1.0000
  B   B16       1.0  0.79800  0.88600  0.30000  1.0000
  B   B17       1.0  0.20200  0.11400  0.70000  1.0000
  B   B18       1.0  0.70200  0.38600  0.70000  1.0000
  B   B19       1.0  0.29800  0.61400  0.70000  1.0000
  B   B20       1.0  0.79800  0.88600  0.70000  1.0000
  Ni  Ni1       1.0  0.00000  0.00000  0.00000  1.0000
  Ni  Ni2       1.0  0.50000  0.50000  0.00000  1.0000
  Th  Th1       1.0  0.69400  0.13700  0.50000  1.0000
  Th  Th2       1.0  0.19400  0.36300  0.50000  1.0000
  Th  Th3       1.0  0.80600  0.63700  0.50000  1.0000
  Th  Th4       1.0  0.30600  0.86300  0.50000  1.0000
