data_image0
_chemical_formula_structural       Pd20Sb7
_chemical_formula_sum              "Pd20 Sb7"
_cell_length_a       7.78544
_cell_length_b       7.78544
_cell_length_c       7.78544
_cell_angle_alpha    99.1541
_cell_angle_beta     99.1541
_cell_angle_gamma    99.1541

_space_group_name_H-M_alt    "P 1"
_space_group_IT_number       1

loop_
  _space_group_symop_operation_xyz
  'x, y, z'

loop_
  _atom_site_type_symbol
  _atom_site_label
  _atom_site_symmetry_multiplicity
  _atom_site_fract_x
  _atom_site_fract_y
  _atom_site_fract_z
  _atom_site_occupancy
  Pd  Pd1       1.0  0.22400  0.33900  0.00119  1.0000
  Pd  Pd2       1.0  0.85600  0.31300  0.01200  1.0000
  Pd  Pd3       1.0  0.68700  0.98800  0.14400  1.0000
  Pd  Pd4       1.0  0.47700  0.66100  0.20600  1.0000
  Pd  Pd5       1.0  0.33900  0.00119  0.22400  1.0000
  Pd  Pd6       1.0  0.01200  0.85600  0.31300  1.0000
  Pd  Pd7       1.0  0.79400  0.52300  0.33900  1.0000
  Pd  Pd8       1.0  0.00119  0.22400  0.33900  1.0000
  Pd  Pd9       1.0  0.37700  0.37700  0.37700  1.0000
  Pd  Pd10      1.0  0.66100  0.20600  0.47700  1.0000
  Pd  Pd11      1.0  0.33900  0.79400  0.52300  1.0000
  Pd  Pd12      1.0  0.62300  0.62300  0.62300  1.0000
  Pd  Pd13      1.0  0.99900  0.77600  0.66100  1.0000
  Pd  Pd14      1.0  0.20600  0.47700  0.66100  1.0000
  Pd  Pd15      1.0  0.98800  0.14400  0.68700  1.0000
  Pd  Pd16      1.0  0.66100  0.99900  0.77600  1.0000
  Pd  Pd17      1.0  0.52300  0.33900  0.79400  1.0000
  Pd  Pd18      1.0  0.31300  0.01200  0.85600  1.0000
  Pd  Pd19      1.0  0.14400  0.68700  0.98800  1.0000
  Pd  Pd20      1.0  0.77600  0.66100  0.99900  1.0000
  Sb  Sb1       1.0  0.00000  0.00000  0.00000  1.0000
  Sb  Sb2       1.0  0.54600  0.27600  0.12300  1.0000
  Sb  Sb3       1.0  0.12300  0.54600  0.27600  1.0000
  Sb  Sb4       1.0  0.72400  0.87700  0.45400  1.0000
  Sb  Sb5       1.0  0.27600  0.12300  0.54600  1.0000
  Sb  Sb6       1.0  0.87700  0.45400  0.72400  1.0000
  Sb  Sb7       1.0  0.45400  0.72400  0.87700  1.0000
