data_image0
_chemical_formula_structural       Ba4O16Si4Ti2
_chemical_formula_sum              "Ba4 O16 Si4 Ti2"
_cell_length_a       8.5389
_cell_length_b       8.5389
_cell_length_c       5.19203
_cell_angle_alpha    90
_cell_angle_beta     90
_cell_angle_gamma    90

_space_group_name_H-M_alt    "P 1"
_space_group_IT_number       1

loop_
  _space_group_symop_operation_xyz
  'x, y, z'

loop_
  _atom_site_type_symbol
  _atom_site_label
  _atom_site_symmetry_multiplicity
  _atom_site_fract_x
  _atom_site_fract_y
  _atom_site_fract_z
  _atom_site_occupancy
  Ba  Ba1       1.0  0.67200  0.17200  0.00583  1.0000
  Ba  Ba2       1.0  0.17200  0.32800  0.00583  1.0000
  Ba  Ba3       1.0  0.82800  0.67200  0.00583  1.0000
  Ba  Ba4       1.0  0.32800  0.82800  0.00583  1.0000
  O   O1        1.0  0.00000  0.00000  0.20900  1.0000
  O   O2        1.0  0.50000  0.50000  0.20900  1.0000
  O   O3        1.0  0.37300  0.12700  0.21200  1.0000
  O   O4        1.0  0.87300  0.37300  0.21200  1.0000
  O   O5        1.0  0.12700  0.62700  0.21200  1.0000
  O   O6        1.0  0.62700  0.87300  0.21200  1.0000
  O   O7        1.0  0.50000  0.00000  0.63800  1.0000
  O   O8        1.0  0.00000  0.50000  0.63800  1.0000
  O   O9        1.0  0.20700  0.07720  0.65600  1.0000
  O   O10       1.0  0.92300  0.20700  0.65600  1.0000
  O   O11       1.0  0.42300  0.29300  0.65600  1.0000
  O   O12       1.0  0.70700  0.42300  0.65600  1.0000
  O   O13       1.0  0.29300  0.57700  0.65600  1.0000
  O   O14       1.0  0.57700  0.70700  0.65600  1.0000
  O   O15       1.0  0.07720  0.79300  0.65600  1.0000
  O   O16       1.0  0.79300  0.92300  0.65600  1.0000
  Si  Si1       1.0  0.37100  0.12900  0.52000  1.0000
  Si  Si2       1.0  0.87100  0.37100  0.52000  1.0000
  Si  Si3       1.0  0.12900  0.62900  0.52000  1.0000
  Si  Si4       1.0  0.62900  0.87100  0.52000  1.0000
  Ti  Ti1       1.0  0.00000  0.00000  0.54300  1.0000
  Ti  Ti2       1.0  0.50000  0.50000  0.54300  1.0000
