data_image0
_chemical_formula_structural       In2O18P6
_chemical_formula_sum              "In2 O18 P6"
_cell_length_a       6.54601
_cell_length_b       7.48507
_cell_length_c       8.26956
_cell_angle_alpha    94.6906
_cell_angle_beta     113.315
_cell_angle_gamma    64.0701

_space_group_name_H-M_alt    "P 1"
_space_group_IT_number       1

loop_
  _space_group_symop_operation_xyz
  'x, y, z'

loop_
  _atom_site_type_symbol
  _atom_site_label
  _atom_site_symmetry_multiplicity
  _atom_site_fract_x
  _atom_site_fract_y
  _atom_site_fract_z
  _atom_site_occupancy
  In  In1       1.0  0.02270  0.99200  0.00221  1.0000
  In  In2       1.0  0.98700  0.49200  0.50200  1.0000
  O   O1        1.0  0.91500  0.52000  0.02550  1.0000
  O   O2        1.0  0.76500  0.23300  0.08830  1.0000
  O   O3        1.0  0.37100  0.39300  0.12000  1.0000
  O   O4        1.0  0.11900  0.74500  0.17400  1.0000
  O   O5        1.0  0.27000  0.06540  0.21800  1.0000
  O   O6        1.0  0.68700  0.04050  0.27000  1.0000
  O   O7        1.0  0.65600  0.73300  0.32700  1.0000
  O   O8        1.0  0.19500  0.44100  0.34800  1.0000
  O   O9        1.0  0.77100  0.32800  0.39700  1.0000
  O   O10       1.0  0.59000  0.01980  0.52600  1.0000
  O   O11       1.0  0.09060  0.73300  0.58800  1.0000
  O   O12       1.0  0.35600  0.89300  0.62000  1.0000
  O   O13       1.0  0.31000  0.24500  0.67400  1.0000
  O   O14       1.0  0.88300  0.56500  0.71800  1.0000
  O   O15       1.0  0.54200  0.54100  0.77000  1.0000
  O   O16       1.0  0.93800  0.23300  0.82700  1.0000
  O   O17       1.0  0.71300  0.94100  0.84800  1.0000
  O   O18       1.0  0.29800  0.82800  0.89700  1.0000
  P   P1        1.0  0.15000  0.53500  0.17700  1.0000
  P   P2        1.0  0.66300  0.25500  0.22500  1.0000
  P   P3        1.0  0.54200  0.95500  0.33000  1.0000
  P   P4        1.0  0.49200  0.03530  0.67700  1.0000
  P   P5        1.0  0.30700  0.75500  0.72500  1.0000
  P   P6        1.0  0.83300  0.45500  0.83000  1.0000
