data_image0
_chemical_formula_structural       Cs8Sn4Te14
_chemical_formula_sum              "Cs8 Sn4 Te14"
_cell_length_a       7.9993
_cell_length_b       9.31304
_cell_length_c       19.4956
_cell_angle_alpha    92.6399
_cell_angle_beta     101.839
_cell_angle_gamma    115.434

_space_group_name_H-M_alt    "P 1"
_space_group_IT_number       1

loop_
  _space_group_symop_operation_xyz
  'x, y, z'

loop_
  _atom_site_type_symbol
  _atom_site_label
  _atom_site_symmetry_multiplicity
  _atom_site_fract_x
  _atom_site_fract_y
  _atom_site_fract_z
  _atom_site_occupancy
  Cs  Cs1       1.0  0.91900  0.23800  0.05960  1.0000
  Cs  Cs2       1.0  0.60900  0.63500  0.14700  1.0000
  Cs  Cs3       1.0  0.32700  0.86500  0.35300  1.0000
  Cs  Cs4       1.0  0.12100  0.26200  0.44000  1.0000
  Cs  Cs5       1.0  0.87900  0.73800  0.56000  1.0000
  Cs  Cs6       1.0  0.67300  0.13500  0.64700  1.0000
  Cs  Cs7       1.0  0.39100  0.36500  0.85300  1.0000
  Cs  Cs8       1.0  0.08130  0.76200  0.94000  1.0000
  Sn  Sn1       1.0  0.37400  0.05980  0.15500  1.0000
  Sn  Sn2       1.0  0.65900  0.44000  0.34500  1.0000
  Sn  Sn3       1.0  0.34100  0.56000  0.65500  1.0000
  Sn  Sn4       1.0  0.62600  0.94000  0.84500  1.0000
  Te  Te1       1.0  0.39600  0.20500  0.03680  1.0000
  Te  Te2       1.0  0.14700  0.73600  0.14600  1.0000
  Te  Te3       1.0  0.72900  0.08370  0.23700  1.0000
  Te  Te4       1.0  0.29000  0.25000  0.25000  1.0000
  Te  Te5       1.0  0.90900  0.41600  0.26300  1.0000
  Te  Te6       1.0  0.76600  0.76400  0.35400  1.0000
  Te  Te7       1.0  0.65500  0.29500  0.46300  1.0000
  Te  Te8       1.0  0.34500  0.70500  0.53700  1.0000
  Te  Te9       1.0  0.23400  0.23600  0.64600  1.0000
  Te  Te10      1.0  0.09140  0.58400  0.73700  1.0000
  Te  Te11      1.0  0.71000  0.75000  0.75000  1.0000
  Te  Te12      1.0  0.27100  0.91600  0.76300  1.0000
  Te  Te13      1.0  0.85300  0.26400  0.85400  1.0000
  Te  Te14      1.0  0.60400  0.79500  0.96300  1.0000
