data_image0
_chemical_formula_structural       O16P4Zn6
_chemical_formula_sum              "O16 P4 Zn6"
_cell_length_a       5.06086
_cell_length_b       8.39853
_cell_length_c       8.66146
_cell_angle_alpha    90
_cell_angle_beta     120.804
_cell_angle_gamma    90

_space_group_name_H-M_alt    "P 1"
_space_group_IT_number       1

loop_
  _space_group_symop_operation_xyz
  'x, y, z'

loop_
  _atom_site_type_symbol
  _atom_site_label
  _atom_site_symmetry_multiplicity
  _atom_site_fract_x
  _atom_site_fract_y
  _atom_site_fract_z
  _atom_site_occupancy
  O   O1        1.0  0.71200  0.13400  0.04520  1.0000
  O   O2        1.0  0.30500  0.19800  0.12300  1.0000
  O   O3        1.0  0.19800  0.58000  0.14200  1.0000
  O   O4        1.0  0.80400  0.36200  0.25000  1.0000
  O   O5        1.0  0.19600  0.86200  0.25000  1.0000
  O   O6        1.0  0.80200  0.07980  0.35800  1.0000
  O   O7        1.0  0.69500  0.69800  0.37700  1.0000
  O   O8        1.0  0.28800  0.63400  0.45500  1.0000
  O   O9        1.0  0.71200  0.36600  0.54500  1.0000
  O   O10       1.0  0.30500  0.30200  0.62300  1.0000
  O   O11       1.0  0.19800  0.92000  0.64200  1.0000
  O   O12       1.0  0.80400  0.13800  0.75000  1.0000
  O   O13       1.0  0.19600  0.63800  0.75000  1.0000
  O   O14       1.0  0.80200  0.42000  0.85800  1.0000
  O   O15       1.0  0.69500  0.80200  0.87700  1.0000
  O   O16       1.0  0.28800  0.86600  0.95500  1.0000
  P   P1        1.0  0.65400  0.19300  0.19300  1.0000
  P   P2        1.0  0.34600  0.69300  0.30700  1.0000
  P   P3        1.0  0.65400  0.30700  0.69300  1.0000
  P   P4        1.0  0.34600  0.80700  0.80700  1.0000
  Zn  Zn1       1.0  0.00000  0.00000  0.00000  1.0000
  Zn  Zn2       1.0  0.03640  0.36400  0.12200  1.0000
  Zn  Zn3       1.0  0.96400  0.86400  0.37800  1.0000
  Zn  Zn4       1.0  0.00000  0.50000  0.50000  1.0000
  Zn  Zn5       1.0  0.03640  0.13600  0.62200  1.0000
  Zn  Zn6       1.0  0.96400  0.63600  0.87800  1.0000
