data_image0
_chemical_formula_structural       Al4Bi12Ca10
_chemical_formula_sum              "Al4 Bi12 Ca10"
_cell_length_a       23.3885
_cell_length_b       7.55666
_cell_length_c       4.55398
_cell_angle_alpha    90
_cell_angle_beta     90
_cell_angle_gamma    90

_space_group_name_H-M_alt    "P 1"
_space_group_IT_number       1

loop_
  _space_group_symop_operation_xyz
  'x, y, z'

loop_
  _atom_site_type_symbol
  _atom_site_label
  _atom_site_symmetry_multiplicity
  _atom_site_fract_x
  _atom_site_fract_y
  _atom_site_fract_z
  _atom_site_occupancy
  Al  Al1       1.0  0.37900  0.18100  0.50000  1.0000
  Al  Al2       1.0  0.87900  0.31900  0.50000  1.0000
  Al  Al3       1.0  0.12100  0.68100  0.50000  1.0000
  Al  Al4       1.0  0.62100  0.81900  0.50000  1.0000
  Bi  Bi1       1.0  0.63600  0.03750  0.00000  1.0000
  Bi  Bi2       1.0  0.13600  0.46300  0.00000  1.0000
  Bi  Bi3       1.0  0.86400  0.53700  0.00000  1.0000
  Bi  Bi4       1.0  0.36400  0.96300  0.00000  1.0000
  Bi  Bi5       1.0  0.81200  0.01240  0.50000  1.0000
  Bi  Bi6       1.0  0.99700  0.20700  0.50000  1.0000
  Bi  Bi7       1.0  0.49700  0.29300  0.50000  1.0000
  Bi  Bi8       1.0  0.31200  0.48800  0.50000  1.0000
  Bi  Bi9       1.0  0.68800  0.51200  0.50000  1.0000
  Bi  Bi10      1.0  0.50300  0.70700  0.50000  1.0000
  Bi  Bi11      1.0  0.00265  0.79300  0.50000  1.0000
  Bi  Bi12      1.0  0.18800  0.98800  0.50000  1.0000
  Ca  Ca1       1.0  0.50000  0.00000  0.00000  1.0000
  Ca  Ca2       1.0  0.08830  0.03670  0.00000  1.0000
  Ca  Ca3       1.0  0.25500  0.22800  0.00000  1.0000
  Ca  Ca4       1.0  0.75500  0.27200  0.00000  1.0000
  Ca  Ca5       1.0  0.58800  0.46300  0.00000  1.0000
  Ca  Ca6       1.0  0.00000  0.50000  0.00000  1.0000
  Ca  Ca7       1.0  0.41200  0.53700  0.00000  1.0000
  Ca  Ca8       1.0  0.24500  0.72800  0.00000  1.0000
  Ca  Ca9       1.0  0.74500  0.77200  0.00000  1.0000
  Ca  Ca10      1.0  0.91200  0.96300  0.00000  1.0000
