data_image0
_chemical_formula_structural       B2Ta8Te16
_chemical_formula_sum              "B2 Ta8 Te16"
_cell_length_a       11.696
_cell_length_b       16.9325
_cell_length_c       3.60539
_cell_angle_alpha    90
_cell_angle_beta     90
_cell_angle_gamma    90

_space_group_name_H-M_alt    "P 1"
_space_group_IT_number       1

loop_
  _space_group_symop_operation_xyz
  'x, y, z'

loop_
  _atom_site_type_symbol
  _atom_site_label
  _atom_site_symmetry_multiplicity
  _atom_site_fract_x
  _atom_site_fract_y
  _atom_site_fract_z
  _atom_site_occupancy
  B   B1        1.0  0.00000  0.00000  0.00000  1.0000
  B   B2        1.0  0.50000  0.50000  0.00000  1.0000
  Ta  Ta1       1.0  0.84500  0.07640  0.00000  1.0000
  Ta  Ta2       1.0  0.34500  0.42400  0.00000  1.0000
  Ta  Ta3       1.0  0.65500  0.57600  0.00000  1.0000
  Ta  Ta4       1.0  0.15500  0.92400  0.00000  1.0000
  Ta  Ta5       1.0  0.07330  0.07100  0.50000  1.0000
  Ta  Ta6       1.0  0.57300  0.42900  0.50000  1.0000
  Ta  Ta7       1.0  0.42700  0.57100  0.50000  1.0000
  Ta  Ta8       1.0  0.92700  0.92900  0.50000  1.0000
  Te  Te1       1.0  0.20400  0.17000  0.00000  1.0000
  Te  Te2       1.0  0.63100  0.17100  0.00000  1.0000
  Te  Te3       1.0  0.13100  0.32900  0.00000  1.0000
  Te  Te4       1.0  0.70400  0.33000  0.00000  1.0000
  Te  Te5       1.0  0.29600  0.67000  0.00000  1.0000
  Te  Te6       1.0  0.86900  0.67100  0.00000  1.0000
  Te  Te7       1.0  0.36900  0.82900  0.00000  1.0000
  Te  Te8       1.0  0.79600  0.83000  0.00000  1.0000
  Te  Te9       1.0  0.29700  0.00484  0.50000  1.0000
  Te  Te10      1.0  0.91500  0.19300  0.50000  1.0000
  Te  Te11      1.0  0.41500  0.30700  0.50000  1.0000
  Te  Te12      1.0  0.79700  0.49500  0.50000  1.0000
  Te  Te13      1.0  0.20300  0.50500  0.50000  1.0000
  Te  Te14      1.0  0.58500  0.69300  0.50000  1.0000
  Te  Te15      1.0  0.08540  0.80700  0.50000  1.0000
  Te  Te16      1.0  0.70300  0.99500  0.50000  1.0000
