data_image0
_chemical_formula_structural       Na9O15Re3
_chemical_formula_sum              "Na9 O15 Re3"
_cell_length_a       5.48675
_cell_length_b       5.48675
_cell_length_c       13.4898
_cell_angle_alpha    90
_cell_angle_beta     90
_cell_angle_gamma    120

_space_group_name_H-M_alt    "P 1"
_space_group_IT_number       1

loop_
  _space_group_symop_operation_xyz
  'x, y, z'

loop_
  _atom_site_type_symbol
  _atom_site_label
  _atom_site_symmetry_multiplicity
  _atom_site_fract_x
  _atom_site_fract_y
  _atom_site_fract_z
  _atom_site_occupancy
  Na  Na1       1.0  0.71000  0.97200  0.08790  1.0000
  Na  Na2       1.0  0.05930  0.67200  0.16900  1.0000
  Na  Na3       1.0  0.41300  0.37100  0.25300  1.0000
  Na  Na4       1.0  0.02760  0.73700  0.42100  1.0000
  Na  Na5       1.0  0.32800  0.38700  0.50200  1.0000
  Na  Na6       1.0  0.62900  0.04280  0.58700  1.0000
  Na  Na7       1.0  0.26300  0.29000  0.75500  1.0000
  Na  Na8       1.0  0.61300  0.94100  0.83600  1.0000
  Na  Na9       1.0  0.95700  0.58600  0.92000  1.0000
  O   O1        1.0  0.33100  0.95900  0.00466  1.0000
  O   O2        1.0  0.67500  0.49600  0.06940  1.0000
  O   O3        1.0  0.16700  0.34700  0.11200  1.0000
  O   O4        1.0  0.48900  0.99000  0.22900  1.0000
  O   O5        1.0  0.84400  0.83500  0.27300  1.0000
  O   O6        1.0  0.04090  0.37200  0.33800  1.0000
  O   O7        1.0  0.50400  0.17900  0.40300  1.0000
  O   O8        1.0  0.65300  0.82000  0.44600  1.0000
  O   O9        1.0  0.01050  0.50000  0.56300  1.0000
  O   O10       1.0  0.16500  0.00980  0.60600  1.0000
  O   O11       1.0  0.62800  0.66900  0.67100  1.0000
  O   O12       1.0  0.82100  0.32500  0.73600  1.0000
  O   O13       1.0  0.18000  0.83300  0.77900  1.0000
  O   O14       1.0  0.50000  0.51100  0.89600  1.0000
  O   O15       1.0  0.99000  0.15600  0.94000  1.0000
  Re  Re1       1.0  0.33300  0.28800  0.00432  1.0000
  Re  Re2       1.0  0.71200  0.04450  0.33800  1.0000
  Re  Re3       1.0  0.95500  0.66700  0.67100  1.0000
