data_image0
_chemical_formula_structural       Co2Nb8S16
_chemical_formula_sum              "Co2 Nb8 S16"
_cell_length_a       6.66293
_cell_length_b       6.66295
_cell_length_c       11.6805
_cell_angle_alpha    90
_cell_angle_beta     90
_cell_angle_gamma    120

_space_group_name_H-M_alt    "P 1"
_space_group_IT_number       1

loop_
  _space_group_symop_operation_xyz
  'x, y, z'

loop_
  _atom_site_type_symbol
  _atom_site_label
  _atom_site_symmetry_multiplicity
  _atom_site_fract_x
  _atom_site_fract_y
  _atom_site_fract_z
  _atom_site_occupancy
  Co  Co1       1.0  0.00000  0.00000  0.00000  1.0000
  Co  Co2       1.0  0.00000  0.00000  0.50000  1.0000
  Nb  Nb1       1.0  0.00000  0.00000  0.25000  1.0000
  Nb  Nb2       1.0  0.01330  0.50700  0.25000  1.0000
  Nb  Nb3       1.0  0.49300  0.50700  0.25000  1.0000
  Nb  Nb4       1.0  0.49300  0.98700  0.25000  1.0000
  Nb  Nb5       1.0  0.00000  0.00000  0.75000  1.0000
  Nb  Nb6       1.0  0.50700  0.01330  0.75000  1.0000
  Nb  Nb7       1.0  0.50700  0.49300  0.75000  1.0000
  Nb  Nb8       1.0  0.98700  0.49300  0.75000  1.0000
  S   S1        1.0  0.33300  0.66700  0.11100  1.0000
  S   S2        1.0  0.33100  0.16500  0.11600  1.0000
  S   S3        1.0  0.83500  0.16500  0.11600  1.0000
  S   S4        1.0  0.83500  0.66900  0.11600  1.0000
  S   S5        1.0  0.33100  0.16500  0.38400  1.0000
  S   S6        1.0  0.83500  0.16500  0.38400  1.0000
  S   S7        1.0  0.83500  0.66900  0.38400  1.0000
  S   S8        1.0  0.33300  0.66700  0.38900  1.0000
  S   S9        1.0  0.66700  0.33300  0.61100  1.0000
  S   S10       1.0  0.16500  0.83500  0.61600  1.0000
  S   S11       1.0  0.66900  0.83500  0.61600  1.0000
  S   S12       1.0  0.16500  0.33100  0.61600  1.0000
  S   S13       1.0  0.16500  0.33100  0.88400  1.0000
  S   S14       1.0  0.16500  0.83500  0.88400  1.0000
  S   S15       1.0  0.66900  0.83500  0.88400  1.0000
  S   S16       1.0  0.66700  0.33300  0.88900  1.0000
