data_image0
_chemical_formula_structural       Cl16O4Se4Sn2
_chemical_formula_sum              "Cl16 O4 Se4 Sn2"
_cell_length_a       6.61731
_cell_length_b       6.61731
_cell_length_c       16.3627
_cell_angle_alpha    93.1688
_cell_angle_beta     93.1688
_cell_angle_gamma    89.9911

_space_group_name_H-M_alt    "P 1"
_space_group_IT_number       1

loop_
  _space_group_symop_operation_xyz
  'x, y, z'

loop_
  _atom_site_type_symbol
  _atom_site_label
  _atom_site_symmetry_multiplicity
  _atom_site_fract_x
  _atom_site_fract_y
  _atom_site_fract_z
  _atom_site_occupancy
  Cl  Cl1       1.0  0.81900  0.70300  0.02210  1.0000
  Cl  Cl2       1.0  0.68800  0.17400  0.07070  1.0000
  Cl  Cl3       1.0  0.36400  0.63000  0.13900  1.0000
  Cl  Cl4       1.0  0.90300  0.57800  0.24100  1.0000
  Cl  Cl5       1.0  0.42200  0.09660  0.25900  1.0000
  Cl  Cl6       1.0  0.37000  0.63600  0.36100  1.0000
  Cl  Cl7       1.0  0.82600  0.31200  0.42900  1.0000
  Cl  Cl8       1.0  0.29700  0.18100  0.47800  1.0000
  Cl  Cl9       1.0  0.70300  0.81900  0.52200  1.0000
  Cl  Cl10      1.0  0.17400  0.68800  0.57100  1.0000
  Cl  Cl11      1.0  0.63000  0.36400  0.63900  1.0000
  Cl  Cl12      1.0  0.57800  0.90300  0.74100  1.0000
  Cl  Cl13      1.0  0.09660  0.42200  0.75900  1.0000
  Cl  Cl14      1.0  0.63600  0.37000  0.86100  1.0000
  Cl  Cl15      1.0  0.31200  0.82600  0.92900  1.0000
  Cl  Cl16      1.0  0.18100  0.29700  0.97800  1.0000
  O   O1        1.0  0.02030  0.97700  0.16200  1.0000
  O   O2        1.0  0.02330  0.98000  0.33800  1.0000
  O   O3        1.0  0.97700  0.02030  0.66200  1.0000
  O   O4        1.0  0.98000  0.02330  0.83800  1.0000
  Se  Se1       1.0  0.78100  0.90100  0.13300  1.0000
  Se  Se2       1.0  0.09890  0.21900  0.36700  1.0000
  Se  Se3       1.0  0.90100  0.78100  0.63300  1.0000
  Se  Se4       1.0  0.21900  0.09890  0.86700  1.0000
  Sn  Sn1       1.0  0.20000  0.80000  0.25000  1.0000
  Sn  Sn2       1.0  0.80000  0.20000  0.75000  1.0000
