data_image0
_chemical_formula_structural       Ni3O18V6
_chemical_formula_sum              "Ni3 O18 V6"
_cell_length_a       7.11408
_cell_length_b       8.75989
_cell_length_c       4.77138
_cell_angle_alpha    90.1907
_cell_angle_beta     94.598
_cell_angle_gamma    102.053

_space_group_name_H-M_alt    "P 1"
_space_group_IT_number       1

loop_
  _space_group_symop_operation_xyz
  'x, y, z'

loop_
  _atom_site_type_symbol
  _atom_site_label
  _atom_site_symmetry_multiplicity
  _atom_site_fract_x
  _atom_site_fract_y
  _atom_site_fract_z
  _atom_site_occupancy
  Ni  Ni1       1.0  0.00000  0.50000  0.00000  1.0000
  Ni  Ni2       1.0  0.01100  0.16700  0.00719  1.0000
  Ni  Ni3       1.0  0.98900  0.83300  0.99300  1.0000
  O   O1        1.0  0.82500  0.30200  0.11400  1.0000
  O   O2        1.0  0.84800  0.64000  0.16300  1.0000
  O   O3        1.0  0.84600  0.97900  0.16300  1.0000
  O   O4        1.0  0.52600  0.75400  0.22900  1.0000
  O   O5        1.0  0.51800  0.08200  0.28500  1.0000
  O   O6        1.0  0.52000  0.42400  0.28500  1.0000
  O   O7        1.0  0.16700  0.88600  0.34800  1.0000
  O   O8        1.0  0.16500  0.49700  0.34900  1.0000
  O   O9        1.0  0.20300  0.19900  0.36000  1.0000
  O   O10       1.0  0.79700  0.80100  0.64000  1.0000
  O   O11       1.0  0.83500  0.50300  0.65100  1.0000
  O   O12       1.0  0.83300  0.11400  0.65200  1.0000
  O   O13       1.0  0.48000  0.57600  0.71500  1.0000
  O   O14       1.0  0.48200  0.91800  0.71500  1.0000
  O   O15       1.0  0.47400  0.24600  0.77100  1.0000
  O   O16       1.0  0.15400  0.02050  0.83700  1.0000
  O   O17       1.0  0.15200  0.36000  0.83700  1.0000
  O   O18       1.0  0.17500  0.69800  0.88600  1.0000
  V   V1        1.0  0.58000  0.26300  0.10900  1.0000
  V   V2        1.0  0.71300  0.60800  0.45100  1.0000
  V   V3        1.0  0.71300  0.96700  0.45300  1.0000
  V   V4        1.0  0.28700  0.03310  0.54700  1.0000
  V   V5        1.0  0.28700  0.39200  0.54900  1.0000
  V   V6        1.0  0.42000  0.73700  0.89100  1.0000
