data_image0
_chemical_formula_structural       C10Ru12Th4
_chemical_formula_sum              "C10 Ru12 Th4"
_cell_length_a       9.14285
_cell_length_b       9.14285
_cell_length_c       4.1997
_cell_angle_alpha    90
_cell_angle_beta     90
_cell_angle_gamma    90

_space_group_name_H-M_alt    "P 1"
_space_group_IT_number       1

loop_
  _space_group_symop_operation_xyz
  'x, y, z'

loop_
  _atom_site_type_symbol
  _atom_site_label
  _atom_site_symmetry_multiplicity
  _atom_site_fract_x
  _atom_site_fract_y
  _atom_site_fract_z
  _atom_site_occupancy
  C   C1        1.0  0.37400  0.12600  0.17000  1.0000
  C   C2        1.0  0.87400  0.37400  0.17000  1.0000
  C   C3        1.0  0.12600  0.62600  0.17000  1.0000
  C   C4        1.0  0.62600  0.87400  0.17000  1.0000
  C   C5        1.0  0.00000  0.00000  0.50000  1.0000
  C   C6        1.0  0.50000  0.50000  0.50000  1.0000
  C   C7        1.0  0.37400  0.12600  0.83000  1.0000
  C   C8        1.0  0.87400  0.37400  0.83000  1.0000
  C   C9        1.0  0.12600  0.62600  0.83000  1.0000
  C   C10       1.0  0.62600  0.87400  0.83000  1.0000
  Ru  Ru1       1.0  0.00000  0.00000  0.00000  1.0000
  Ru  Ru2       1.0  0.50000  0.50000  0.00000  1.0000
  Ru  Ru3       1.0  0.50000  0.00000  0.50000  1.0000
  Ru  Ru4       1.0  0.21200  0.07150  0.50000  1.0000
  Ru  Ru5       1.0  0.92900  0.21200  0.50000  1.0000
  Ru  Ru6       1.0  0.42900  0.28800  0.50000  1.0000
  Ru  Ru7       1.0  0.71200  0.42900  0.50000  1.0000
  Ru  Ru8       1.0  0.00000  0.50000  0.50000  1.0000
  Ru  Ru9       1.0  0.28800  0.57100  0.50000  1.0000
  Ru  Ru10      1.0  0.57100  0.71200  0.50000  1.0000
  Ru  Ru11      1.0  0.07150  0.78800  0.50000  1.0000
  Ru  Ru12      1.0  0.78800  0.92900  0.50000  1.0000
  Th  Th1       1.0  0.67400  0.17400  0.00000  1.0000
  Th  Th2       1.0  0.17400  0.32600  0.00000  1.0000
  Th  Th3       1.0  0.82600  0.67400  0.00000  1.0000
  Th  Th4       1.0  0.32600  0.82600  0.00000  1.0000
