data_image0
_chemical_formula_structural       O14Pb8Rb4
_chemical_formula_sum              "O14 Pb8 Rb4"
_cell_length_a       10.5153
_cell_length_b       7.37587
_cell_length_c       6.61185
_cell_angle_alpha    90.0145
_cell_angle_beta     99.0355
_cell_angle_gamma    102.006

_space_group_name_H-M_alt    "P 1"
_space_group_IT_number       1

loop_
  _space_group_symop_operation_xyz
  'x, y, z'

loop_
  _atom_site_type_symbol
  _atom_site_label
  _atom_site_symmetry_multiplicity
  _atom_site_fract_x
  _atom_site_fract_y
  _atom_site_fract_z
  _atom_site_occupancy
  O   O1        1.0  0.16500  0.34500  0.03750  1.0000
  O   O2        1.0  0.59800  0.43700  0.14900  1.0000
  O   O3        1.0  0.63600  0.84300  0.16000  1.0000
  O   O4        1.0  0.09600  0.68900  0.26800  1.0000
  O   O5        1.0  0.37800  0.15800  0.34400  1.0000
  O   O6        1.0  0.40200  0.56600  0.35000  1.0000
  O   O7        1.0  0.83600  0.65500  0.45500  1.0000
  O   O8        1.0  0.16400  0.34500  0.54500  1.0000
  O   O9        1.0  0.59800  0.43400  0.65000  1.0000
  O   O10       1.0  0.62200  0.84200  0.65600  1.0000
  O   O11       1.0  0.90400  0.31100  0.73200  1.0000
  O   O12       1.0  0.36400  0.15700  0.84000  1.0000
  O   O13       1.0  0.40200  0.56300  0.85100  1.0000
  O   O14       1.0  0.83500  0.65500  0.96300  1.0000
  Pb  Pb1       1.0  0.37700  0.35000  0.09670  1.0000
  Pb  Pb2       1.0  0.93500  0.84500  0.23400  1.0000
  Pb  Pb3       1.0  0.02660  0.38400  0.25600  1.0000
  Pb  Pb4       1.0  0.62300  0.65000  0.40900  1.0000
  Pb  Pb5       1.0  0.37700  0.35000  0.59100  1.0000
  Pb  Pb6       1.0  0.97300  0.61600  0.74400  1.0000
  Pb  Pb7       1.0  0.06520  0.15500  0.76600  1.0000
  Pb  Pb8       1.0  0.62300  0.65000  0.90300  1.0000
  Rb  Rb1       1.0  0.31600  0.83300  0.08010  1.0000
  Rb  Rb2       1.0  0.68600  0.16800  0.42200  1.0000
  Rb  Rb3       1.0  0.31400  0.83200  0.57800  1.0000
  Rb  Rb4       1.0  0.68400  0.16700  0.92000  1.0000
