data_image0
_chemical_formula_structural       In6O18Te3
_chemical_formula_sum              "In6 O18 Te3"
_cell_length_a       8.94709
_cell_length_b       8.94721
_cell_length_c       4.83183
_cell_angle_alpha    90
_cell_angle_beta     90.0017
_cell_angle_gamma    120

_space_group_name_H-M_alt    "P 1"
_space_group_IT_number       1

loop_
  _space_group_symop_operation_xyz
  'x, y, z'

loop_
  _atom_site_type_symbol
  _atom_site_label
  _atom_site_symmetry_multiplicity
  _atom_site_fract_x
  _atom_site_fract_y
  _atom_site_fract_z
  _atom_site_occupancy
  In  In1       1.0  0.63000  0.00000  0.00000  1.0000
  In  In2       1.0  0.37000  0.37000  0.00000  1.0000
  In  In3       1.0  0.00000  0.63000  0.00000  1.0000
  In  In4       1.0  0.29300  0.00000  0.50000  1.0000
  In  In5       1.0  0.00000  0.29300  0.50000  1.0000
  In  In6       1.0  0.70700  0.70700  0.50000  1.0000
  O   O1        1.0  0.87800  0.08430  0.22300  1.0000
  O   O2        1.0  0.91600  0.79400  0.22300  1.0000
  O   O3        1.0  0.20600  0.12200  0.22300  1.0000
  O   O4        1.0  0.87100  0.40800  0.26200  1.0000
  O   O5        1.0  0.53700  0.12900  0.26200  1.0000
  O   O6        1.0  0.59200  0.46300  0.26200  1.0000
  O   O7        1.0  0.23900  0.45900  0.28400  1.0000
  O   O8        1.0  0.22000  0.76100  0.28400  1.0000
  O   O9        1.0  0.54100  0.78000  0.28400  1.0000
  O   O10       1.0  0.45900  0.23900  0.71600  1.0000
  O   O11       1.0  0.78000  0.54100  0.71600  1.0000
  O   O12       1.0  0.76100  0.22000  0.71600  1.0000
  O   O13       1.0  0.40800  0.87100  0.73800  1.0000
  O   O14       1.0  0.46300  0.59200  0.73800  1.0000
  O   O15       1.0  0.12900  0.53700  0.73800  1.0000
  O   O16       1.0  0.79400  0.91600  0.77700  1.0000
  O   O17       1.0  0.08430  0.87800  0.77700  1.0000
  O   O18       1.0  0.12200  0.20600  0.77700  1.0000
  Te  Te1       1.0  0.00000  0.00000  0.00000  1.0000
  Te  Te2       1.0  0.66700  0.33300  0.48900  1.0000
  Te  Te3       1.0  0.33300  0.66700  0.51100  1.0000
