data_image0
_chemical_formula_structural       Al4O16Si4Sr2
_chemical_formula_sum              "Al4 O16 Si4 Sr2"
_cell_length_a       5.18227
_cell_length_b       5.1823
_cell_length_c       15.1299
_cell_angle_alpha    90
_cell_angle_beta     90.0001
_cell_angle_gamma    120

_space_group_name_H-M_alt    "P 1"
_space_group_IT_number       1

loop_
  _space_group_symop_operation_xyz
  'x, y, z'

loop_
  _atom_site_type_symbol
  _atom_site_label
  _atom_site_symmetry_multiplicity
  _atom_site_fract_x
  _atom_site_fract_y
  _atom_site_fract_z
  _atom_site_occupancy
  Al  Al1       1.0  0.66700  0.33300  0.14400  1.0000
  Al  Al2       1.0  0.33300  0.66700  0.35600  1.0000
  Al  Al3       1.0  0.66700  0.33300  0.64400  1.0000
  Al  Al4       1.0  0.33300  0.66700  0.85600  1.0000
  O   O1        1.0  0.59500  0.60600  0.09910  1.0000
  O   O2        1.0  0.39400  0.98800  0.09910  1.0000
  O   O3        1.0  0.01160  0.40500  0.09910  1.0000
  O   O4        1.0  0.33300  0.66700  0.24400  1.0000
  O   O5        1.0  0.66700  0.33300  0.25600  1.0000
  O   O6        1.0  0.98800  0.39400  0.40100  1.0000
  O   O7        1.0  0.60600  0.59500  0.40100  1.0000
  O   O8        1.0  0.40500  0.01160  0.40100  1.0000
  O   O9        1.0  0.59500  0.98800  0.59900  1.0000
  O   O10       1.0  0.39400  0.40500  0.59900  1.0000
  O   O11       1.0  0.01160  0.60600  0.59900  1.0000
  O   O12       1.0  0.33300  0.66700  0.74400  1.0000
  O   O13       1.0  0.66700  0.33300  0.75600  1.0000
  O   O14       1.0  0.98800  0.59500  0.90100  1.0000
  O   O15       1.0  0.60600  0.01160  0.90100  1.0000
  O   O16       1.0  0.40500  0.39400  0.90100  1.0000
  Si  Si1       1.0  0.33300  0.66700  0.13800  1.0000
  Si  Si2       1.0  0.66700  0.33300  0.36200  1.0000
  Si  Si3       1.0  0.33300  0.66700  0.63800  1.0000
  Si  Si4       1.0  0.66700  0.33300  0.86200  1.0000
  Sr  Sr1       1.0  0.00000  0.00000  0.00000  1.0000
  Sr  Sr2       1.0  0.00000  0.00000  0.50000  1.0000
