data_image0
_chemical_formula_structural       Nd4Ni14P8
_chemical_formula_sum              "Nd4 Ni14 P8"
_cell_length_a       3.75579
_cell_length_b       9.22587
_cell_length_c       10.4157
_cell_angle_alpha    90
_cell_angle_beta     90
_cell_angle_gamma    90

_space_group_name_H-M_alt    "P 1"
_space_group_IT_number       1

loop_
  _space_group_symop_operation_xyz
  'x, y, z'

loop_
  _atom_site_type_symbol
  _atom_site_label
  _atom_site_symmetry_multiplicity
  _atom_site_fract_x
  _atom_site_fract_y
  _atom_site_fract_z
  _atom_site_occupancy
  Nd  Nd1       1.0  0.00000  0.56300  0.00051  1.0000
  Nd  Nd2       1.0  0.50000  0.06000  0.28200  1.0000
  Nd  Nd3       1.0  0.50000  0.43700  0.50100  1.0000
  Nd  Nd4       1.0  0.00000  0.94000  0.78200  1.0000
  Ni  Ni1       1.0  0.50000  0.30600  0.07430  1.0000
  Ni  Ni2       1.0  0.00000  0.90300  0.08440  1.0000
  Ni  Ni3       1.0  0.50000  0.72700  0.17100  1.0000
  Ni  Ni4       1.0  0.00000  0.31800  0.26200  1.0000
  Ni  Ni5       1.0  0.00000  0.58300  0.30600  1.0000
  Ni  Ni6       1.0  0.50000  0.74600  0.40300  1.0000
  Ni  Ni7       1.0  0.00000  0.94000  0.48000  1.0000
  Ni  Ni8       1.0  0.00000  0.69400  0.57400  1.0000
  Ni  Ni9       1.0  0.50000  0.09700  0.58400  1.0000
  Ni  Ni10      1.0  0.00000  0.27300  0.67100  1.0000
  Ni  Ni11      1.0  0.50000  0.68200  0.76200  1.0000
  Ni  Ni12      1.0  0.50000  0.41700  0.80600  1.0000
  Ni  Ni13      1.0  0.00000  0.25400  0.90300  1.0000
  Ni  Ni14      1.0  0.50000  0.06030  0.98000  1.0000
  P   P1        1.0  0.00000  0.15700  0.09020  1.0000
  P   P2        1.0  0.50000  0.47800  0.21800  1.0000
  P   P3        1.0  0.00000  0.81700  0.28800  1.0000
  P   P4        1.0  0.00000  0.18700  0.46900  1.0000
  P   P5        1.0  0.50000  0.84300  0.59000  1.0000
  P   P6        1.0  0.00000  0.52200  0.71800  1.0000
  P   P7        1.0  0.50000  0.18300  0.78800  1.0000
  P   P8        1.0  0.50000  0.81300  0.96900  1.0000
