data_image0
_chemical_formula_structural       Co2Nb8Se16
_chemical_formula_sum              "Co2 Nb8 Se16"
_cell_length_a       6.95817
_cell_length_b       6.95819
_cell_length_c       12.3601
_cell_angle_alpha    90
_cell_angle_beta     90
_cell_angle_gamma    120

_space_group_name_H-M_alt    "P 1"
_space_group_IT_number       1

loop_
  _space_group_symop_operation_xyz
  'x, y, z'

loop_
  _atom_site_type_symbol
  _atom_site_label
  _atom_site_symmetry_multiplicity
  _atom_site_fract_x
  _atom_site_fract_y
  _atom_site_fract_z
  _atom_site_occupancy
  Co  Co1       1.0  0.00000  0.00000  0.00000  1.0000
  Co  Co2       1.0  0.00000  0.00000  0.50000  1.0000
  Nb  Nb1       1.0  0.00000  0.00000  0.25000  1.0000
  Nb  Nb2       1.0  0.50900  0.01840  0.25000  1.0000
  Nb  Nb3       1.0  0.50900  0.49100  0.25000  1.0000
  Nb  Nb4       1.0  0.98200  0.49100  0.25000  1.0000
  Nb  Nb5       1.0  0.00000  0.00000  0.75000  1.0000
  Nb  Nb6       1.0  0.01830  0.50900  0.75000  1.0000
  Nb  Nb7       1.0  0.49100  0.50900  0.75000  1.0000
  Nb  Nb8       1.0  0.49100  0.98200  0.75000  1.0000
  Se  Se1       1.0  0.66700  0.33300  0.10800  1.0000
  Se  Se2       1.0  0.16700  0.83300  0.11600  1.0000
  Se  Se3       1.0  0.66700  0.83300  0.11600  1.0000
  Se  Se4       1.0  0.16700  0.33300  0.11600  1.0000
  Se  Se5       1.0  0.16700  0.33300  0.38400  1.0000
  Se  Se6       1.0  0.16700  0.83300  0.38400  1.0000
  Se  Se7       1.0  0.66700  0.83300  0.38400  1.0000
  Se  Se8       1.0  0.66700  0.33300  0.39200  1.0000
  Se  Se9       1.0  0.33300  0.66700  0.60800  1.0000
  Se  Se10      1.0  0.33300  0.16700  0.61600  1.0000
  Se  Se11      1.0  0.83300  0.16700  0.61600  1.0000
  Se  Se12      1.0  0.83300  0.66700  0.61600  1.0000
  Se  Se13      1.0  0.83300  0.66700  0.88400  1.0000
  Se  Se14      1.0  0.33300  0.16700  0.88400  1.0000
  Se  Se15      1.0  0.83300  0.16700  0.88400  1.0000
  Se  Se16      1.0  0.33300  0.66700  0.89200  1.0000
