data_image0
_chemical_formula_structural       Cl20Fe2W4
_chemical_formula_sum              "Cl20 Fe2 W4"
_cell_length_a       6.17458
_cell_length_b       8.95199
_cell_length_c       12.0941
_cell_angle_alpha    93.3807
_cell_angle_beta     99.8435
_cell_angle_gamma    69.8243

_space_group_name_H-M_alt    "P 1"
_space_group_IT_number       1

loop_
  _space_group_symop_operation_xyz
  'x, y, z'

loop_
  _atom_site_type_symbol
  _atom_site_label
  _atom_site_symmetry_multiplicity
  _atom_site_fract_x
  _atom_site_fract_y
  _atom_site_fract_z
  _atom_site_occupancy
  Cl  Cl1       1.0  0.48100  0.79900  0.11300  1.0000
  Cl  Cl2       1.0  0.26800  0.18000  0.13500  1.0000
  Cl  Cl3       1.0  0.09700  0.60800  0.13700  1.0000
  Cl  Cl4       1.0  0.67500  0.42500  0.14000  1.0000
  Cl  Cl5       1.0  0.91400  0.98700  0.14100  1.0000
  Cl  Cl6       1.0  0.59900  0.98700  0.35900  1.0000
  Cl  Cl7       1.0  0.40000  0.42500  0.36000  1.0000
  Cl  Cl8       1.0  0.79500  0.60800  0.36300  1.0000
  Cl  Cl9       1.0  0.05170  0.18000  0.36500  1.0000
  Cl  Cl10      1.0  0.22000  0.79900  0.38700  1.0000
  Cl  Cl11      1.0  0.78000  0.20100  0.61300  1.0000
  Cl  Cl12      1.0  0.94800  0.82000  0.63500  1.0000
  Cl  Cl13      1.0  0.20500  0.39200  0.63700  1.0000
  Cl  Cl14      1.0  0.60000  0.57500  0.64000  1.0000
  Cl  Cl15      1.0  0.40100  0.01290  0.64100  1.0000
  Cl  Cl16      1.0  0.08610  0.01290  0.85900  1.0000
  Cl  Cl17      1.0  0.32500  0.57500  0.86000  1.0000
  Cl  Cl18      1.0  0.90300  0.39200  0.86300  1.0000
  Cl  Cl19      1.0  0.73200  0.82000  0.86500  1.0000
  Cl  Cl20      1.0  0.51900  0.20100  0.88700  1.0000
  Fe  Fe1       1.0  0.05670  0.38700  0.25000  1.0000
  Fe  Fe2       1.0  0.94300  0.61300  0.75000  1.0000
  W   W1        1.0  0.27100  0.95800  0.25000  1.0000
  W   W2        1.0  0.42900  0.64200  0.25000  1.0000
  W   W3        1.0  0.57100  0.35800  0.75000  1.0000
  W   W4        1.0  0.72900  0.04220  0.75000  1.0000
