data_image0
_chemical_formula_structural       Na4O16P4V2
_chemical_formula_sum              "Na4 O16 P4 V2"
_cell_length_a       4.81254
_cell_length_b       8.2133
_cell_length_c       8.2133
_cell_angle_alpha    90
_cell_angle_beta     90
_cell_angle_gamma    90

_space_group_name_H-M_alt    "P 1"
_space_group_IT_number       1

loop_
  _space_group_symop_operation_xyz
  'x, y, z'

loop_
  _atom_site_type_symbol
  _atom_site_label
  _atom_site_symmetry_multiplicity
  _atom_site_fract_x
  _atom_site_fract_y
  _atom_site_fract_z
  _atom_site_occupancy
  Na  Na1       1.0  0.50500  0.32800  0.17200  1.0000
  Na  Na2       1.0  0.50500  0.82800  0.32800  1.0000
  Na  Na3       1.0  0.50500  0.17200  0.67200  1.0000
  Na  Na4       1.0  0.50500  0.67200  0.82800  1.0000
  O   O1        1.0  0.30200  0.00000  0.00000  1.0000
  O   O2        1.0  0.84600  0.50000  0.00000  1.0000
  O   O3        1.0  0.83200  0.78800  0.07870  1.0000
  O   O4        1.0  0.28500  0.62700  0.12700  1.0000
  O   O5        1.0  0.83200  0.07870  0.21200  1.0000
  O   O6        1.0  0.83200  0.57900  0.28800  1.0000
  O   O7        1.0  0.28500  0.12700  0.37300  1.0000
  O   O8        1.0  0.83200  0.28800  0.42100  1.0000
  O   O9        1.0  0.84600  0.00000  0.50000  1.0000
  O   O10       1.0  0.30200  0.50000  0.50000  1.0000
  O   O11       1.0  0.83200  0.71200  0.57900  1.0000
  O   O12       1.0  0.28500  0.87300  0.62700  1.0000
  O   O13       1.0  0.83200  0.42100  0.71200  1.0000
  O   O14       1.0  0.83200  0.92100  0.78800  1.0000
  O   O15       1.0  0.28500  0.37300  0.87300  1.0000
  O   O16       1.0  0.83200  0.21200  0.92100  1.0000
  P   P1        1.0  0.97400  0.63000  0.13000  1.0000
  P   P2        1.0  0.97400  0.13000  0.37000  1.0000
  P   P3        1.0  0.97400  0.87000  0.63000  1.0000
  P   P4        1.0  0.97400  0.37000  0.87000  1.0000
  V   V1        1.0  0.96300  0.00000  0.00000  1.0000
  V   V2        1.0  0.96300  0.50000  0.50000  1.0000
