data_image0
_chemical_formula_structural       B3Be6F6O9Tl3
_chemical_formula_sum              "B3 Be6 F6 O9 Tl3"
_cell_length_a       4.42855
_cell_length_b       4.42854
_cell_length_c       19.1957
_cell_angle_alpha    90.0005
_cell_angle_beta     89.9996
_cell_angle_gamma    120.001

_space_group_name_H-M_alt    "P 1"
_space_group_IT_number       1

loop_
  _space_group_symop_operation_xyz
  'x, y, z'

loop_
  _atom_site_type_symbol
  _atom_site_label
  _atom_site_symmetry_multiplicity
  _atom_site_fract_x
  _atom_site_fract_y
  _atom_site_fract_z
  _atom_site_occupancy
  B   B1        1.0  0.33300  0.66700  0.16700  1.0000
  B   B2        1.0  0.00000  0.00000  0.50000  1.0000
  B   B3        1.0  0.66700  0.33300  0.83300  1.0000
  Be  Be1       1.0  0.66700  0.33300  0.13700  1.0000
  Be  Be2       1.0  0.00000  0.00000  0.19600  1.0000
  Be  Be3       1.0  0.33300  0.66700  0.47100  1.0000
  Be  Be4       1.0  0.66700  0.33300  0.52900  1.0000
  Be  Be5       1.0  0.00000  0.00000  0.80400  1.0000
  Be  Be6       1.0  0.33300  0.66700  0.86300  1.0000
  F   F1        1.0  0.66700  0.33300  0.05710  1.0000
  F   F2        1.0  0.00000  0.00000  0.27600  1.0000
  F   F3        1.0  0.33300  0.66700  0.39000  1.0000
  F   F4        1.0  0.66700  0.33300  0.61000  1.0000
  F   F5        1.0  0.00000  0.00000  0.72400  1.0000
  F   F6        1.0  0.33300  0.66700  0.94300  1.0000
  O   O1        1.0  0.33300  0.97700  0.16700  1.0000
  O   O2        1.0  0.02350  0.35700  0.16700  1.0000
  O   O3        1.0  0.64300  0.66700  0.16700  1.0000
  O   O4        1.0  0.00000  0.31000  0.50000  1.0000
  O   O5        1.0  0.69000  0.69000  0.50000  1.0000
  O   O6        1.0  0.31000  0.00000  0.50000  1.0000
  O   O7        1.0  0.66700  0.64300  0.83300  1.0000
  O   O8        1.0  0.35700  0.02350  0.83300  1.0000
  O   O9        1.0  0.97700  0.33300  0.83300  1.0000
  Tl  Tl1       1.0  0.00000  0.00000  0.00000  1.0000
  Tl  Tl2       1.0  0.66700  0.33300  0.33300  1.0000
  Tl  Tl3       1.0  0.33300  0.66700  0.66700  1.0000
