data_image0
_chemical_formula_structural       F18Ge3Na6
_chemical_formula_sum              "F18 Ge3 Na6"
_cell_length_a       8.99418
_cell_length_b       8.99422
_cell_length_c       4.54318
_cell_angle_alpha    89.9997
_cell_angle_beta     89.9956
_cell_angle_gamma    120.001

_space_group_name_H-M_alt    "P 1"
_space_group_IT_number       1

loop_
  _space_group_symop_operation_xyz
  'x, y, z'

loop_
  _atom_site_type_symbol
  _atom_site_label
  _atom_site_symmetry_multiplicity
  _atom_site_fract_x
  _atom_site_fract_y
  _atom_site_fract_z
  _atom_site_occupancy
  F   F1        1.0  0.80700  0.90400  0.22800  1.0000
  F   F2        1.0  0.09640  0.19300  0.22800  1.0000
  F   F3        1.0  0.09640  0.90400  0.22800  1.0000
  F   F4        1.0  0.76300  0.23700  0.27000  1.0000
  F   F5        1.0  0.76300  0.52600  0.27000  1.0000
  F   F6        1.0  0.47400  0.23700  0.27000  1.0000
  F   F7        1.0  0.42900  0.57100  0.27800  1.0000
  F   F8        1.0  0.42900  0.85900  0.27800  1.0000
  F   F9        1.0  0.14100  0.57100  0.27800  1.0000
  F   F10       1.0  0.85900  0.42900  0.72200  1.0000
  F   F11       1.0  0.57100  0.14100  0.72200  1.0000
  F   F12       1.0  0.57100  0.42900  0.72200  1.0000
  F   F13       1.0  0.52600  0.76300  0.73000  1.0000
  F   F14       1.0  0.23700  0.47400  0.73000  1.0000
  F   F15       1.0  0.23700  0.76300  0.73000  1.0000
  F   F16       1.0  0.90400  0.09650  0.77200  1.0000
  F   F17       1.0  0.90400  0.80700  0.77200  1.0000
  F   F18       1.0  0.19300  0.09650  0.77200  1.0000
  Ge  Ge1       1.0  0.00000  0.00000  0.00000  1.0000
  Ge  Ge2       1.0  0.66700  0.33300  0.49500  1.0000
  Ge  Ge3       1.0  0.33300  0.66700  0.50500  1.0000
  Na  Na1       1.0  0.34500  0.00000  0.00000  1.0000
  Na  Na2       1.0  0.65500  0.00000  0.00000  1.0000
  Na  Na3       1.0  0.34500  0.34500  0.00000  1.0000
  Na  Na4       1.0  0.00000  0.34500  0.00000  1.0000
  Na  Na5       1.0  0.00000  0.65500  0.00000  1.0000
  Na  Na6       1.0  0.65500  0.65500  0.00000  1.0000
