data_image0
_chemical_formula_structural       F18Fe4Na2Pb2
_chemical_formula_sum              "F18 Fe4 Na2 Pb2"
_cell_length_a       7.04972
_cell_length_b       7.04972
_cell_length_c       7.46802
_cell_angle_alpha    91.3202
_cell_angle_beta     91.3202
_cell_angle_gamma    119.452

_space_group_name_H-M_alt    "P 1"
_space_group_IT_number       1

loop_
  _space_group_symop_operation_xyz
  'x, y, z'

loop_
  _atom_site_type_symbol
  _atom_site_label
  _atom_site_symmetry_multiplicity
  _atom_site_fract_x
  _atom_site_fract_y
  _atom_site_fract_z
  _atom_site_occupancy
  F   F1        1.0  0.79700  0.72700  0.01700  1.0000
  F   F2        1.0  0.61800  0.31300  0.06610  1.0000
  F   F3        1.0  0.21300  0.91300  0.07940  1.0000
  F   F4        1.0  0.59600  0.96600  0.23300  1.0000
  F   F5        1.0  0.45900  0.54100  0.25000  1.0000
  F   F6        1.0  0.03350  0.40400  0.26700  1.0000
  F   F7        1.0  0.08670  0.78700  0.42100  1.0000
  F   F8        1.0  0.68700  0.38200  0.43400  1.0000
  F   F9        1.0  0.27300  0.20300  0.48300  1.0000
  F   F10       1.0  0.72700  0.79700  0.51700  1.0000
  F   F11       1.0  0.31300  0.61800  0.56600  1.0000
  F   F12       1.0  0.91300  0.21300  0.57900  1.0000
  F   F13       1.0  0.96600  0.59600  0.73300  1.0000
  F   F14       1.0  0.54100  0.45900  0.75000  1.0000
  F   F15       1.0  0.40400  0.03350  0.76700  1.0000
  F   F16       1.0  0.78700  0.08670  0.92100  1.0000
  F   F17       1.0  0.38200  0.68700  0.93400  1.0000
  F   F18       1.0  0.20300  0.27300  0.98300  1.0000
  Fe  Fe1       1.0  0.50000  0.00000  0.00000  1.0000
  Fe  Fe2       1.0  0.50000  0.50000  0.00000  1.0000
  Fe  Fe3       1.0  0.00000  0.50000  0.50000  1.0000
  Fe  Fe4       1.0  0.50000  0.50000  0.50000  1.0000
  Na  Na1       1.0  0.00000  0.50000  0.00000  1.0000
  Na  Na2       1.0  0.50000  0.00000  0.50000  1.0000
  Pb  Pb1       1.0  0.97400  0.02650  0.25000  1.0000
  Pb  Pb2       1.0  0.02650  0.97400  0.75000  1.0000
