data_image0
_chemical_formula_structural       Ni4O16Te6
_chemical_formula_sum              "Ni4 O16 Te6"
_cell_length_a       5.1506
_cell_length_b       6.65571
_cell_length_c       11.3922
_cell_angle_alpha    98.0636
_cell_angle_beta     90
_cell_angle_gamma    112.764

_space_group_name_H-M_alt    "P 1"
_space_group_IT_number       1

loop_
  _space_group_symop_operation_xyz
  'x, y, z'

loop_
  _atom_site_type_symbol
  _atom_site_label
  _atom_site_symmetry_multiplicity
  _atom_site_fract_x
  _atom_site_fract_y
  _atom_site_fract_z
  _atom_site_occupancy
  Ni  Ni1       1.0  0.58300  0.53000  0.14400  1.0000
  Ni  Ni2       1.0  0.05320  0.47000  0.35600  1.0000
  Ni  Ni3       1.0  0.94700  0.53000  0.64400  1.0000
  Ni  Ni4       1.0  0.41700  0.47000  0.85600  1.0000
  O   O1        1.0  0.25900  0.53700  0.02830  1.0000
  O   O2        1.0  0.26700  0.22300  0.12900  1.0000
  O   O3        1.0  0.86900  0.83700  0.14300  1.0000
  O   O4        1.0  0.84700  0.39500  0.19800  1.0000
  O   O5        1.0  0.45200  0.60500  0.30200  1.0000
  O   O6        1.0  0.03240  0.16300  0.35700  1.0000
  O   O7        1.0  0.04360  0.77700  0.37100  1.0000
  O   O8        1.0  0.72200  0.46300  0.47200  1.0000
  O   O9        1.0  0.27800  0.53700  0.52800  1.0000
  O   O10       1.0  0.95600  0.22300  0.62900  1.0000
  O   O11       1.0  0.96800  0.83700  0.64300  1.0000
  O   O12       1.0  0.54800  0.39500  0.69800  1.0000
  O   O13       1.0  0.15300  0.60500  0.80200  1.0000
  O   O14       1.0  0.13100  0.16300  0.85700  1.0000
  O   O15       1.0  0.73300  0.77700  0.87100  1.0000
  O   O16       1.0  0.74100  0.46300  0.97200  1.0000
  Te  Te1       1.0  0.94300  0.26300  0.05440  1.0000
  Te  Te2       1.0  0.19000  0.00000  0.25000  1.0000
  Te  Te3       1.0  0.67900  0.73700  0.44600  1.0000
  Te  Te4       1.0  0.32100  0.26300  0.55400  1.0000
  Te  Te5       1.0  0.81000  0.00000  0.75000  1.0000
  Te  Te6       1.0  0.05730  0.73700  0.94600  1.0000
