data_image0
_chemical_formula_structural       B2Na2O16Si6
_chemical_formula_sum              "B2 Na2 O16 Si6"
_cell_length_a       6.79543
_cell_length_b       7.14569
_cell_length_c       7.41248
_cell_angle_alpha    115.673
_cell_angle_beta     100.747
_cell_angle_gamma    106.838

_space_group_name_H-M_alt    "P 1"
_space_group_IT_number       1

loop_
  _space_group_symop_operation_xyz
  'x, y, z'

loop_
  _atom_site_type_symbol
  _atom_site_label
  _atom_site_symmetry_multiplicity
  _atom_site_fract_x
  _atom_site_fract_y
  _atom_site_fract_z
  _atom_site_occupancy
  B   B1        1.0  0.77900  0.83200  0.14800  1.0000
  B   B2        1.0  0.22100  0.16800  0.85200  1.0000
  Na  Na1       1.0  0.13200  0.26200  0.24600  1.0000
  Na  Na2       1.0  0.86800  0.73800  0.75400  1.0000
  O   O1        1.0  0.76900  0.35200  0.02360  1.0000
  O   O2        1.0  0.38300  0.31300  0.07630  1.0000
  O   O3        1.0  0.99600  0.86100  0.12700  1.0000
  O   O4        1.0  0.78800  0.06420  0.24700  1.0000
  O   O5        1.0  0.72900  0.73000  0.27600  1.0000
  O   O6        1.0  0.41700  0.06620  0.32900  1.0000
  O   O7        1.0  0.19900  0.70200  0.34400  1.0000
  O   O8        1.0  0.72700  0.44100  0.40000  1.0000
  O   O9        1.0  0.27300  0.55900  0.60000  1.0000
  O   O10       1.0  0.80100  0.29800  0.65600  1.0000
  O   O11       1.0  0.58300  0.93400  0.67100  1.0000
  O   O12       1.0  0.27100  0.27000  0.72400  1.0000
  O   O13       1.0  0.21200  0.93600  0.75300  1.0000
  O   O14       1.0  0.00360  0.13900  0.87300  1.0000
  O   O15       1.0  0.61700  0.68700  0.92400  1.0000
  O   O16       1.0  0.23100  0.64800  0.97600  1.0000
  Si  Si1       1.0  0.64800  0.46000  0.18600  1.0000
  Si  Si2       1.0  0.20900  0.81600  0.19500  1.0000
  Si  Si3       1.0  0.68200  0.20300  0.40200  1.0000
  Si  Si4       1.0  0.31800  0.79700  0.59800  1.0000
  Si  Si5       1.0  0.79100  0.18400  0.80500  1.0000
  Si  Si6       1.0  0.35200  0.54000  0.81400  1.0000
