data_image0
_chemical_formula_structural       Fe12Ge12Y2
_chemical_formula_sum              "Fe12 Ge12 Y2"
_cell_length_a       5.11855
_cell_length_b       8.15467
_cell_length_c       9.74793
_cell_angle_alpha    65.2741
_cell_angle_beta     90
_cell_angle_gamma    90

_space_group_name_H-M_alt    "P 1"
_space_group_IT_number       1

loop_
  _space_group_symop_operation_xyz
  'x, y, z'

loop_
  _atom_site_type_symbol
  _atom_site_label
  _atom_site_symmetry_multiplicity
  _atom_site_fract_x
  _atom_site_fract_y
  _atom_site_fract_z
  _atom_site_occupancy
  Fe  Fe1       1.0  0.00000  0.24900  0.00000  1.0000
  Fe  Fe2       1.0  0.50000  0.24900  0.00000  1.0000
  Fe  Fe3       1.0  0.00000  0.75100  0.00000  1.0000
  Fe  Fe4       1.0  0.50000  0.75100  0.00000  1.0000
  Fe  Fe5       1.0  0.75000  0.12500  0.25000  1.0000
  Fe  Fe6       1.0  0.75000  0.62500  0.25000  1.0000
  Fe  Fe7       1.0  0.00000  0.00000  0.50000  1.0000
  Fe  Fe8       1.0  0.50000  0.00000  0.50000  1.0000
  Fe  Fe9       1.0  0.00000  0.50000  0.50000  1.0000
  Fe  Fe10      1.0  0.50000  0.50000  0.50000  1.0000
  Fe  Fe11      1.0  0.25000  0.37500  0.75000  1.0000
  Fe  Fe12      1.0  0.25000  0.87500  0.75000  1.0000
  Ge  Ge1       1.0  0.75000  0.46000  0.08040  1.0000
  Ge  Ge2       1.0  0.75000  0.95800  0.08350  1.0000
  Ge  Ge3       1.0  0.25000  0.22200  0.24900  1.0000
  Ge  Ge4       1.0  0.25000  0.52900  0.24900  1.0000
  Ge  Ge5       1.0  0.75000  0.29600  0.40800  1.0000
  Ge  Ge6       1.0  0.75000  0.78900  0.42300  1.0000
  Ge  Ge7       1.0  0.25000  0.21100  0.57700  1.0000
  Ge  Ge8       1.0  0.25000  0.70400  0.59200  1.0000
  Ge  Ge9       1.0  0.75000  0.47100  0.75100  1.0000
  Ge  Ge10      1.0  0.75000  0.77800  0.75100  1.0000
  Ge  Ge11      1.0  0.25000  0.04170  0.91700  1.0000
  Ge  Ge12      1.0  0.25000  0.54000  0.92000  1.0000
  Y   Y1        1.0  0.25000  0.87200  0.25500  1.0000
  Y   Y2        1.0  0.75000  0.12800  0.74500  1.0000
