data_image0
_chemical_formula_structural       K16Sb8Sn2
_chemical_formula_sum              "K16 Sb8 Sn2"
_cell_length_a       11.6229
_cell_length_b       11.6229
_cell_length_c       11.6229
_cell_angle_alpha    120
_cell_angle_beta     120
_cell_angle_gamma    90

_space_group_name_H-M_alt    "P 1"
_space_group_IT_number       1

loop_
  _space_group_symop_operation_xyz
  'x, y, z'

loop_
  _atom_site_type_symbol
  _atom_site_label
  _atom_site_symmetry_multiplicity
  _atom_site_fract_x
  _atom_site_fract_y
  _atom_site_fract_z
  _atom_site_occupancy
  K   K1        1.0  0.27400  0.27400  0.00000  1.0000
  K   K2        1.0  0.72600  0.27400  0.00000  1.0000
  K   K3        1.0  0.27400  0.72600  0.00000  1.0000
  K   K4        1.0  0.72600  0.72600  0.00000  1.0000
  K   K5        1.0  0.52400  0.02370  0.04730  1.0000
  K   K6        1.0  0.12500  0.37500  0.25000  1.0000
  K   K7        1.0  0.12500  0.87500  0.25000  1.0000
  K   K8        1.0  0.72600  0.72600  0.45300  1.0000
  K   K9        1.0  0.97600  0.02370  0.50000  1.0000
  K   K10       1.0  0.52400  0.02370  0.50000  1.0000
  K   K11       1.0  0.52400  0.47600  0.50000  1.0000
  K   K12       1.0  0.97600  0.47600  0.50000  1.0000
  K   K13       1.0  0.27400  0.27400  0.54700  1.0000
  K   K14       1.0  0.12500  0.87500  0.75000  1.0000
  K   K15       1.0  0.62500  0.87500  0.75000  1.0000
  K   K16       1.0  0.97600  0.47600  0.95300  1.0000
  Sb  Sb1       1.0  0.31000  0.10300  0.20700  1.0000
  Sb  Sb2       1.0  0.89700  0.10300  0.20700  1.0000
  Sb  Sb3       1.0  0.35300  0.64700  0.29300  1.0000
  Sb  Sb4       1.0  0.94000  0.64700  0.29300  1.0000
  Sb  Sb5       1.0  0.35300  0.06000  0.70700  1.0000
  Sb  Sb6       1.0  0.35300  0.64700  0.70700  1.0000
  Sb  Sb7       1.0  0.89700  0.10300  0.79300  1.0000
  Sb  Sb8       1.0  0.89700  0.69000  0.79300  1.0000
  Sn  Sn1       1.0  0.00000  0.00000  0.00000  1.0000
  Sn  Sn2       1.0  0.25000  0.75000  0.50000  1.0000
