data_image0
_chemical_formula_structural       Br4C8Cs4N8Pt2
_chemical_formula_sum              "Br4 C8 Cs4 N8 Pt2"
_cell_length_a       7.30851
_cell_length_b       9.91555
_cell_length_c       9.97272
_cell_angle_alpha    93.0372
_cell_angle_beta     111.495
_cell_angle_gamma    68.3745

_space_group_name_H-M_alt    "P 1"
_space_group_IT_number       1

loop_
  _space_group_symop_operation_xyz
  'x, y, z'

loop_
  _atom_site_type_symbol
  _atom_site_label
  _atom_site_symmetry_multiplicity
  _atom_site_fract_x
  _atom_site_fract_y
  _atom_site_fract_z
  _atom_site_occupancy
  Br  Br1       1.0  0.36600  0.97500  0.17100  1.0000
  Br  Br2       1.0  0.67000  0.52500  0.32900  1.0000
  Br  Br3       1.0  0.33000  0.47500  0.67100  1.0000
  Br  Br4       1.0  0.63400  0.02530  0.82900  1.0000
  C   C1        1.0  0.89000  0.21300  0.02900  1.0000
  C   C2        1.0  0.92900  0.95900  0.16700  1.0000
  C   C3        1.0  0.22200  0.54100  0.33300  1.0000
  C   C4        1.0  0.57300  0.28700  0.47100  1.0000
  C   C5        1.0  0.42700  0.71300  0.52900  1.0000
  C   C6        1.0  0.77800  0.45900  0.66700  1.0000
  C   C7        1.0  0.07090  0.04080  0.83300  1.0000
  C   C8        1.0  0.11000  0.78700  0.97100  1.0000
  Cs  Cs1       1.0  0.35200  0.32300  0.03970  1.0000
  Cs  Cs2       1.0  0.13600  0.17700  0.46000  1.0000
  Cs  Cs3       1.0  0.86400  0.82300  0.54000  1.0000
  Cs  Cs4       1.0  0.64800  0.67700  0.96000  1.0000
  N   N1        1.0  0.82200  0.33500  0.05010  1.0000
  N   N2        1.0  0.06120  0.55900  0.23700  1.0000
  N   N3        1.0  0.88300  0.94100  0.26300  1.0000
  N   N4        1.0  0.60700  0.16500  0.45000  1.0000
  N   N5        1.0  0.39300  0.83500  0.55000  1.0000
  N   N6        1.0  0.11700  0.05860  0.73700  1.0000
  N   N7        1.0  0.93900  0.44100  0.76300  1.0000
  N   N8        1.0  0.17800  0.66500  0.95000  1.0000
  Pt  Pt1       1.0  0.00000  0.00000  0.00000  1.0000
  Pt  Pt2       1.0  0.50000  0.50000  0.50000  1.0000
