data_image0
_chemical_formula_structural       O18Te4V4
_chemical_formula_sum              "O18 Te4 V4"
_cell_length_a       4.86882
_cell_length_b       4.86882
_cell_length_c       14.1728
_cell_angle_alpha    99.3487
_cell_angle_beta     99.3487
_cell_angle_gamma    93.1116

_space_group_name_H-M_alt    "P 1"
_space_group_IT_number       1

loop_
  _space_group_symop_operation_xyz
  'x, y, z'

loop_
  _atom_site_type_symbol
  _atom_site_label
  _atom_site_symmetry_multiplicity
  _atom_site_fract_x
  _atom_site_fract_y
  _atom_site_fract_z
  _atom_site_occupancy
  O   O1        1.0  0.92300  0.07680  0.00000  1.0000
  O   O2        1.0  0.59800  0.78500  0.09040  1.0000
  O   O3        1.0  0.08780  0.57400  0.10500  1.0000
  O   O4        1.0  0.10700  0.09440  0.19600  1.0000
  O   O5        1.0  0.68400  0.44100  0.21300  1.0000
  O   O6        1.0  0.72100  0.97800  0.28700  1.0000
  O   O7        1.0  0.16100  0.64900  0.30400  1.0000
  O   O8        1.0  0.23300  0.21900  0.39500  1.0000
  O   O9        1.0  0.75700  0.44500  0.41000  1.0000
  O   O10       1.0  0.17300  0.82700  0.50000  1.0000
  O   O11       1.0  0.55500  0.24300  0.59000  1.0000
  O   O12       1.0  0.78100  0.76700  0.60500  1.0000
  O   O13       1.0  0.35100  0.83900  0.69600  1.0000
  O   O14       1.0  0.02180  0.27900  0.71300  1.0000
  O   O15       1.0  0.55900  0.31600  0.78700  1.0000
  O   O16       1.0  0.90600  0.89300  0.80400  1.0000
  O   O17       1.0  0.42600  0.91200  0.89500  1.0000
  O   O18       1.0  0.21500  0.40200  0.91000  1.0000
  Te  Te1       1.0  0.25600  0.22800  0.09340  1.0000
  Te  Te2       1.0  0.41300  0.88500  0.40700  1.0000
  Te  Te3       1.0  0.11500  0.58700  0.59300  1.0000
  Te  Te4       1.0  0.77200  0.74400  0.90700  1.0000
  V   V1        1.0  0.84500  0.74500  0.18000  1.0000
  V   V2        1.0  0.91500  0.31500  0.32000  1.0000
  V   V3        1.0  0.68500  0.08520  0.68000  1.0000
  V   V4        1.0  0.25500  0.15500  0.82000  1.0000
