data_image0
_chemical_formula_structural       Ba2Ga2O14Y2Zn6
_chemical_formula_sum              "Ba2 Ga2 O14 Y2 Zn6"
_cell_length_a       6.37003
_cell_length_b       6.36993
_cell_length_c       10.3107
_cell_angle_alpha    90
_cell_angle_beta     90
_cell_angle_gamma    120

_space_group_name_H-M_alt    "P 1"
_space_group_IT_number       1

loop_
  _space_group_symop_operation_xyz
  'x, y, z'

loop_
  _atom_site_type_symbol
  _atom_site_label
  _atom_site_symmetry_multiplicity
  _atom_site_fract_x
  _atom_site_fract_y
  _atom_site_fract_z
  _atom_site_occupancy
  Ba  Ba1       1.0  0.66700  0.33300  0.45800  1.0000
  Ba  Ba2       1.0  0.33300  0.66700  0.95800  1.0000
  Ga  Ga1       1.0  0.00000  0.00000  0.38400  1.0000
  Ga  Ga2       1.0  0.00000  0.00000  0.88400  1.0000
  O   O1        1.0  0.49500  0.99000  0.18900  1.0000
  O   O2        1.0  0.49500  0.50500  0.18900  1.0000
  O   O3        1.0  0.01050  0.50500  0.18900  1.0000
  O   O4        1.0  0.00000  0.00000  0.20200  1.0000
  O   O5        1.0  0.68200  0.84000  0.44200  1.0000
  O   O6        1.0  0.16000  0.84100  0.44200  1.0000
  O   O7        1.0  0.15900  0.31800  0.44200  1.0000
  O   O8        1.0  0.50500  0.01050  0.68900  1.0000
  O   O9        1.0  0.50500  0.49500  0.68900  1.0000
  O   O10       1.0  0.99000  0.49500  0.68900  1.0000
  O   O11       1.0  0.00000  0.00000  0.70200  1.0000
  O   O12       1.0  0.31800  0.16000  0.94200  1.0000
  O   O13       1.0  0.84000  0.15900  0.94200  1.0000
  O   O14       1.0  0.84100  0.68200  0.94200  1.0000
  Y   Y1        1.0  0.33300  0.66700  0.31800  1.0000
  Y   Y2        1.0  0.66700  0.33300  0.81800  1.0000
  Zn  Zn1       1.0  0.34200  0.17100  0.13400  1.0000
  Zn  Zn2       1.0  0.82900  0.17100  0.13400  1.0000
  Zn  Zn3       1.0  0.82900  0.65800  0.13400  1.0000
  Zn  Zn4       1.0  0.65800  0.82900  0.63400  1.0000
  Zn  Zn5       1.0  0.17100  0.34200  0.63400  1.0000
  Zn  Zn6       1.0  0.17100  0.82900  0.63400  1.0000
