data_image0
_chemical_formula_structural       B6Ge4Ni16
_chemical_formula_sum              "B6 Ge4 Ni16"
_cell_length_a       2.94646
_cell_length_b       6.09693
_cell_length_c       14.7249
_cell_angle_alpha    90
_cell_angle_beta     90
_cell_angle_gamma    90

_space_group_name_H-M_alt    "P 1"
_space_group_IT_number       1

loop_
  _space_group_symop_operation_xyz
  'x, y, z'

loop_
  _atom_site_type_symbol
  _atom_site_label
  _atom_site_symmetry_multiplicity
  _atom_site_fract_x
  _atom_site_fract_y
  _atom_site_fract_z
  _atom_site_occupancy
  B   B1        1.0  0.75000  0.46100  0.03220  1.0000
  B   B2        1.0  0.25000  0.45600  0.25000  1.0000
  B   B3        1.0  0.75000  0.46100  0.46800  1.0000
  B   B4        1.0  0.25000  0.53900  0.53200  1.0000
  B   B5        1.0  0.75000  0.54400  0.75000  1.0000
  B   B6        1.0  0.25000  0.53900  0.96800  1.0000
  Ge  Ge1       1.0  0.75000  0.96200  0.12600  1.0000
  Ge  Ge2       1.0  0.75000  0.96200  0.37400  1.0000
  Ge  Ge3       1.0  0.25000  0.03770  0.62600  1.0000
  Ge  Ge4       1.0  0.25000  0.03770  0.87400  1.0000
  Ni  Ni1       1.0  0.25000  0.20100  0.02370  1.0000
  Ni  Ni2       1.0  0.25000  0.63300  0.10500  1.0000
  Ni  Ni3       1.0  0.75000  0.34100  0.16300  1.0000
  Ni  Ni4       1.0  0.25000  0.07590  0.25000  1.0000
  Ni  Ni5       1.0  0.75000  0.70200  0.25000  1.0000
  Ni  Ni6       1.0  0.75000  0.34100  0.33700  1.0000
  Ni  Ni7       1.0  0.25000  0.63300  0.39500  1.0000
  Ni  Ni8       1.0  0.25000  0.20100  0.47600  1.0000
  Ni  Ni9       1.0  0.75000  0.79900  0.52400  1.0000
  Ni  Ni10      1.0  0.75000  0.36700  0.60500  1.0000
  Ni  Ni11      1.0  0.25000  0.65900  0.66300  1.0000
  Ni  Ni12      1.0  0.25000  0.29800  0.75000  1.0000
  Ni  Ni13      1.0  0.75000  0.92400  0.75000  1.0000
  Ni  Ni14      1.0  0.25000  0.65900  0.83700  1.0000
  Ni  Ni15      1.0  0.75000  0.36700  0.89500  1.0000
  Ni  Ni16      1.0  0.75000  0.79900  0.97600  1.0000
