data_image0
_chemical_formula_structural       CdCr4Cs2H4O16
_chemical_formula_sum              "Cd1 Cr4 Cs2 H4 O16"
_cell_length_a       7.22
_cell_length_b       7.90148
_cell_length_c       7.84243
_cell_angle_alpha    89.9519
_cell_angle_beta     81.0358
_cell_angle_gamma    64.051

_space_group_name_H-M_alt    "P 1"
_space_group_IT_number       1

loop_
  _space_group_symop_operation_xyz
  'x, y, z'

loop_
  _atom_site_type_symbol
  _atom_site_label
  _atom_site_symmetry_multiplicity
  _atom_site_fract_x
  _atom_site_fract_y
  _atom_site_fract_z
  _atom_site_occupancy
  Cd  Cd1       1.0  0.00000  0.00000  0.50000  1.0000
  Cr  Cr1       1.0  0.71400  0.23200  0.15100  1.0000
  Cr  Cr2       1.0  0.25900  0.51000  0.31700  1.0000
  Cr  Cr3       1.0  0.74100  0.49000  0.68300  1.0000
  Cr  Cr4       1.0  0.28600  0.76800  0.84900  1.0000
  Cs  Cs1       1.0  0.72000  0.74700  0.17800  1.0000
  Cs  Cs2       1.0  0.28000  0.25300  0.82200  1.0000
  H   H1        1.0  0.24800  0.99300  0.19200  1.0000
  H   H2        1.0  0.19500  0.18900  0.28400  1.0000
  H   H3        1.0  0.80500  0.81100  0.71600  1.0000
  H   H4        1.0  0.75200  0.00701  0.80800  1.0000
  O   O1        1.0  0.65500  0.11900  0.00983  1.0000
  O   O2        1.0  0.92100  0.25300  0.07110  1.0000
  O   O3        1.0  0.51000  0.46600  0.20200  1.0000
  O   O4        1.0  0.16100  0.39900  0.21400  1.0000
  O   O5        1.0  0.23400  0.05410  0.30700  1.0000
  O   O6        1.0  0.74600  0.11500  0.32600  1.0000
  O   O7        1.0  0.10500  0.73800  0.32700  1.0000
  O   O8        1.0  0.71800  0.56400  0.49300  1.0000
  O   O9        1.0  0.28200  0.43600  0.50700  1.0000
  O   O10       1.0  0.89500  0.26200  0.67300  1.0000
  O   O11       1.0  0.25400  0.88500  0.67400  1.0000
  O   O12       1.0  0.76600  0.94600  0.69300  1.0000
  O   O13       1.0  0.83900  0.60100  0.78600  1.0000
  O   O14       1.0  0.49000  0.53400  0.79800  1.0000
  O   O15       1.0  0.07890  0.74700  0.92900  1.0000
  O   O16       1.0  0.34500  0.88100  0.99000  1.0000
