data_image0
_chemical_formula_structural       Al3Ca3F18Na3
_chemical_formula_sum              "Al3 Ca3 F18 Na3"
_cell_length_a       8.7386
_cell_length_b       8.73862
_cell_length_c       4.9203
_cell_angle_alpha    90
_cell_angle_beta     89.9998
_cell_angle_gamma    120

_space_group_name_H-M_alt    "P 1"
_space_group_IT_number       1

loop_
  _space_group_symop_operation_xyz
  'x, y, z'

loop_
  _atom_site_type_symbol
  _atom_site_label
  _atom_site_symmetry_multiplicity
  _atom_site_fract_x
  _atom_site_fract_y
  _atom_site_fract_z
  _atom_site_occupancy
  Al  Al1       1.0  0.00000  0.00000  0.00000  1.0000
  Al  Al2       1.0  0.66700  0.33300  0.49900  1.0000
  Al  Al3       1.0  0.33300  0.66700  0.50100  1.0000
  Ca  Ca1       1.0  0.37500  0.00000  0.00000  1.0000
  Ca  Ca2       1.0  0.00000  0.37500  0.00000  1.0000
  Ca  Ca3       1.0  0.62500  0.62500  0.00000  1.0000
  F   F1        1.0  0.80400  0.88700  0.20800  1.0000
  F   F2        1.0  0.08330  0.19600  0.20800  1.0000
  F   F3        1.0  0.11300  0.91700  0.20800  1.0000
  F   F4        1.0  0.77400  0.24600  0.28500  1.0000
  F   F5        1.0  0.47200  0.22600  0.28500  1.0000
  F   F6        1.0  0.75400  0.52800  0.28500  1.0000
  F   F7        1.0  0.45300  0.86000  0.28700  1.0000
  F   F8        1.0  0.40700  0.54700  0.28700  1.0000
  F   F9        1.0  0.14000  0.59300  0.28700  1.0000
  F   F10       1.0  0.59300  0.14000  0.71300  1.0000
  F   F11       1.0  0.86000  0.45300  0.71300  1.0000
  F   F12       1.0  0.54700  0.40700  0.71300  1.0000
  F   F13       1.0  0.52800  0.75400  0.71500  1.0000
  F   F14       1.0  0.24600  0.77400  0.71500  1.0000
  F   F15       1.0  0.22600  0.47200  0.71500  1.0000
  F   F16       1.0  0.91700  0.11300  0.79200  1.0000
  F   F17       1.0  0.88700  0.80400  0.79200  1.0000
  F   F18       1.0  0.19600  0.08330  0.79200  1.0000
  Na  Na1       1.0  0.71300  0.00000  0.50000  1.0000
  Na  Na2       1.0  1.00000  0.71300  0.50000  1.0000
  Na  Na3       1.0  0.28700  0.28700  0.50000  1.0000
