data_image0
_chemical_formula_structural       Mo6O16Sc2Zn2
_chemical_formula_sum              "Mo6 O16 Sc2 Zn2"
_cell_length_a       5.8074
_cell_length_b       5.80745
_cell_length_c       10.0532
_cell_angle_alpha    90
_cell_angle_beta     90
_cell_angle_gamma    120

_space_group_name_H-M_alt    "P 1"
_space_group_IT_number       1

loop_
  _space_group_symop_operation_xyz
  'x, y, z'

loop_
  _atom_site_type_symbol
  _atom_site_label
  _atom_site_symmetry_multiplicity
  _atom_site_fract_x
  _atom_site_fract_y
  _atom_site_fract_z
  _atom_site_occupancy
  Mo  Mo1       1.0  0.14400  0.85600  0.25100  1.0000
  Mo  Mo2       1.0  0.71100  0.85600  0.25100  1.0000
  Mo  Mo3       1.0  0.14400  0.28900  0.25100  1.0000
  Mo  Mo4       1.0  0.28900  0.14400  0.75100  1.0000
  Mo  Mo5       1.0  0.85600  0.14400  0.75100  1.0000
  Mo  Mo6       1.0  0.85600  0.71100  0.75100  1.0000
  O   O1        1.0  0.83500  0.67000  0.12700  1.0000
  O   O2        1.0  0.33000  0.16500  0.12700  1.0000
  O   O3        1.0  0.83500  0.16500  0.12700  1.0000
  O   O4        1.0  0.33300  0.66700  0.14700  1.0000
  O   O5        1.0  0.02030  0.51000  0.36700  1.0000
  O   O6        1.0  0.49000  0.51000  0.36700  1.0000
  O   O7        1.0  0.49000  0.98000  0.36700  1.0000
  O   O8        1.0  0.00000  0.00000  0.39300  1.0000
  O   O9        1.0  0.16500  0.33000  0.62700  1.0000
  O   O10       1.0  0.16500  0.83500  0.62700  1.0000
  O   O11       1.0  0.67000  0.83500  0.62700  1.0000
  O   O12       1.0  0.66700  0.33300  0.64700  1.0000
  O   O13       1.0  0.51000  0.49000  0.86700  1.0000
  O   O14       1.0  0.98000  0.49000  0.86700  1.0000
  O   O15       1.0  0.51000  0.02030  0.86700  1.0000
  O   O16       1.0  0.00000  0.00000  0.89300  1.0000
  Sc  Sc1       1.0  0.66700  0.33300  0.01350  1.0000
  Sc  Sc2       1.0  0.33300  0.66700  0.51300  1.0000
  Zn  Zn1       1.0  0.66700  0.33300  0.45300  1.0000
  Zn  Zn2       1.0  0.33300  0.66700  0.95300  1.0000
