data_image0
_chemical_formula_structural       Al18Dy2Ni6
_chemical_formula_sum              "Al18 Dy2 Ni6"
_cell_length_a       7.27852
_cell_length_b       7.27852
_cell_length_c       10.0595
_cell_angle_alpha    90
_cell_angle_beta     111.209
_cell_angle_gamma    60

_space_group_name_H-M_alt    "P 1"
_space_group_IT_number       1

loop_
  _space_group_symop_operation_xyz
  'x, y, z'

loop_
  _atom_site_type_symbol
  _atom_site_label
  _atom_site_symmetry_multiplicity
  _atom_site_fract_x
  _atom_site_fract_y
  _atom_site_fract_z
  _atom_site_occupancy
  Al  Al1       1.0  0.33500  0.00000  0.00000  1.0000
  Al  Al2       1.0  0.66500  0.33500  0.00000  1.0000
  Al  Al3       1.0  0.00000  0.66500  0.00000  1.0000
  Al  Al4       1.0  0.43600  0.28200  0.15400  1.0000
  Al  Al5       1.0  0.10300  0.94800  0.15500  1.0000
  Al  Al6       1.0  0.77300  0.61300  0.16000  1.0000
  Al  Al7       1.0  0.86500  0.89700  0.29800  1.0000
  Al  Al8       1.0  0.53500  0.56800  0.29800  1.0000
  Al  Al9       1.0  0.19500  0.23800  0.29800  1.0000
  Al  Al10      1.0  0.79100  0.70900  0.50000  1.0000
  Al  Al11      1.0  0.20900  0.50000  0.50000  1.0000
  Al  Al12      1.0  0.00000  0.29100  0.50000  1.0000
  Al  Al13      1.0  0.80500  0.43200  0.70200  1.0000
  Al  Al14      1.0  0.46500  0.10300  0.70200  1.0000
  Al  Al15      1.0  0.13500  0.76200  0.70200  1.0000
  Al  Al16      1.0  0.22700  0.38700  0.84000  1.0000
  Al  Al17      1.0  0.89700  0.05170  0.84500  1.0000
  Al  Al18      1.0  0.56400  0.71800  0.84600  1.0000
  Dy  Dy1       1.0  0.66600  0.16700  0.49900  1.0000
  Dy  Dy2       1.0  0.33400  0.83300  0.50100  1.0000
  Ni  Ni1       1.0  0.83700  0.24200  0.25500  1.0000
  Ni  Ni2       1.0  0.49700  0.92200  0.25500  1.0000
  Ni  Ni3       1.0  0.17700  0.58200  0.25500  1.0000
  Ni  Ni4       1.0  0.82300  0.75800  0.74500  1.0000
  Ni  Ni5       1.0  0.50300  0.41800  0.74500  1.0000
  Ni  Ni6       1.0  0.16300  0.07830  0.74500  1.0000
