data_image0
_chemical_formula_structural       Hf3Te12Tl12
_chemical_formula_sum              "Hf3 Te12 Tl12"
_cell_length_a       9.73773
_cell_length_b       9.73773
_cell_length_c       9.73773
_cell_angle_alpha    98.1797
_cell_angle_beta     98.1797
_cell_angle_gamma    98.1797

_space_group_name_H-M_alt    "P 1"
_space_group_IT_number       1

loop_
  _space_group_symop_operation_xyz
  'x, y, z'

loop_
  _atom_site_type_symbol
  _atom_site_label
  _atom_site_symmetry_multiplicity
  _atom_site_fract_x
  _atom_site_fract_y
  _atom_site_fract_z
  _atom_site_occupancy
  Hf  Hf1       1.0  0.24600  0.24600  0.24600  1.0000
  Hf  Hf2       1.0  0.50000  0.50000  0.50000  1.0000
  Hf  Hf3       1.0  0.75400  0.75400  0.75400  1.0000
  Te  Te1       1.0  0.70100  0.80300  0.03570  1.0000
  Te  Te2       1.0  0.96400  0.29900  0.19700  1.0000
  Te  Te3       1.0  0.34200  0.55000  0.23800  1.0000
  Te  Te4       1.0  0.19700  0.96400  0.29900  1.0000
  Te  Te5       1.0  0.55000  0.23800  0.34200  1.0000
  Te  Te6       1.0  0.76200  0.65800  0.45000  1.0000
  Te  Te7       1.0  0.23800  0.34200  0.55000  1.0000
  Te  Te8       1.0  0.45000  0.76200  0.65800  1.0000
  Te  Te9       1.0  0.80300  0.03570  0.70100  1.0000
  Te  Te10      1.0  0.65800  0.45000  0.76200  1.0000
  Te  Te11      1.0  0.03570  0.70100  0.80300  1.0000
  Te  Te12      1.0  0.29900  0.19700  0.96400  1.0000
  Tl  Tl1       1.0  0.33100  0.88000  0.01140  1.0000
  Tl  Tl2       1.0  0.98900  0.66900  0.12000  1.0000
  Tl  Tl3       1.0  0.63600  0.46700  0.13000  1.0000
  Tl  Tl4       1.0  0.88000  0.01140  0.33100  1.0000
  Tl  Tl5       1.0  0.53300  0.87000  0.36400  1.0000
  Tl  Tl6       1.0  0.13000  0.63600  0.46700  1.0000
  Tl  Tl7       1.0  0.87000  0.36400  0.53300  1.0000
  Tl  Tl8       1.0  0.46700  0.13000  0.63600  1.0000
  Tl  Tl9       1.0  0.12000  0.98900  0.66900  1.0000
  Tl  Tl10      1.0  0.36400  0.53300  0.87000  1.0000
  Tl  Tl11      1.0  0.01140  0.33100  0.88000  1.0000
  Tl  Tl12      1.0  0.66900  0.12000  0.98900  1.0000
