data_image0
_chemical_formula_structural       Hf4O18P4
_chemical_formula_sum              "Hf4 O18 P4"
_cell_length_a       6.59709
_cell_length_b       7.51482
_cell_length_c       8.10767
_cell_angle_alpha    101.919
_cell_angle_beta     65.9934
_cell_angle_gamma    116.036

_space_group_name_H-M_alt    "P 1"
_space_group_IT_number       1

loop_
  _space_group_symop_operation_xyz
  'x, y, z'

loop_
  _atom_site_type_symbol
  _atom_site_label
  _atom_site_symmetry_multiplicity
  _atom_site_fract_x
  _atom_site_fract_y
  _atom_site_fract_z
  _atom_site_occupancy
  Hf  Hf1       1.0  0.05730  0.21300  0.09880  1.0000
  Hf  Hf2       1.0  0.68300  0.73100  0.36400  1.0000
  Hf  Hf3       1.0  0.31700  0.26900  0.63600  1.0000
  Hf  Hf4       1.0  0.94300  0.78700  0.90100  1.0000
  O   O1        1.0  0.73400  0.55700  0.08920  1.0000
  O   O2        1.0  0.37700  0.23100  0.09890  1.0000
  O   O3        1.0  0.75600  0.23100  0.09890  1.0000
  O   O4        1.0  0.88500  0.92800  0.15900  1.0000
  O   O5        1.0  0.37800  0.72200  0.34800  1.0000
  O   O6        1.0  0.99700  0.72200  0.34800  1.0000
  O   O7        1.0  0.96800  0.29800  0.36100  1.0000
  O   O8        1.0  0.51500  0.39600  0.36600  1.0000
  O   O9        1.0  0.27600  0.02160  0.46900  1.0000
  O   O10       1.0  0.72400  0.97800  0.53100  1.0000
  O   O11       1.0  0.48500  0.60400  0.63400  1.0000
  O   O12       1.0  0.03180  0.70200  0.63900  1.0000
  O   O13       1.0  0.00344  0.27800  0.65200  1.0000
  O   O14       1.0  0.62200  0.27800  0.65200  1.0000
  O   O15       1.0  0.11500  0.07200  0.84100  1.0000
  O   O16       1.0  0.24400  0.76900  0.90100  1.0000
  O   O17       1.0  0.62300  0.76900  0.90100  1.0000
  O   O18       1.0  0.26600  0.44300  0.91100  1.0000
  P   P1        1.0  0.59100  0.34100  0.15900  1.0000
  P   P2        1.0  0.17200  0.79300  0.45000  1.0000
  P   P3        1.0  0.82800  0.20700  0.55000  1.0000
  P   P4        1.0  0.40900  0.65900  0.84100  1.0000
