data_image0
_chemical_formula_structural       Al16Cr10
_chemical_formula_sum              "Al16 Cr10"
_cell_length_a       7.87159
_cell_length_b       7.87159
_cell_length_c       7.87159
_cell_angle_alpha    109.741
_cell_angle_beta     109.741
_cell_angle_gamma    109.741

_space_group_name_H-M_alt    "P 1"
_space_group_IT_number       1

loop_
  _space_group_symop_operation_xyz
  'x, y, z'

loop_
  _atom_site_type_symbol
  _atom_site_label
  _atom_site_symmetry_multiplicity
  _atom_site_fract_x
  _atom_site_fract_y
  _atom_site_fract_z
  _atom_site_occupancy
  Al  Al1       1.0  0.66500  0.28100  0.03730  1.0000
  Al  Al2       1.0  0.28100  0.66500  0.03730  1.0000
  Al  Al3       1.0  0.03730  0.66500  0.28100  1.0000
  Al  Al4       1.0  0.66500  0.03730  0.28100  1.0000
  Al  Al5       1.0  0.55700  0.33600  0.33600  1.0000
  Al  Al6       1.0  0.33600  0.55700  0.33600  1.0000
  Al  Al7       1.0  0.73300  0.73300  0.38100  1.0000
  Al  Al8       1.0  0.33600  0.33600  0.55700  1.0000
  Al  Al9       1.0  0.64400  1.00000  0.64400  1.0000
  Al  Al10      1.0  0.00000  0.64400  0.64400  1.0000
  Al  Al11      1.0  0.03730  0.28100  0.66500  1.0000
  Al  Al12      1.0  0.28100  0.03730  0.66500  1.0000
  Al  Al13      1.0  0.69700  0.69700  0.69700  1.0000
  Al  Al14      1.0  0.38100  0.73300  0.73300  1.0000
  Al  Al15      1.0  0.73300  0.38100  0.73300  1.0000
  Al  Al16      1.0  0.64400  0.64400  0.00000  1.0000
  Cr  Cr1       1.0  0.36300  0.36300  0.01450  1.0000
  Cr  Cr2       1.0  0.01870  0.80100  0.01870  1.0000
  Cr  Cr3       1.0  0.80100  0.01870  0.01870  1.0000
  Cr  Cr4       1.0  0.14900  0.14900  0.14900  1.0000
  Cr  Cr5       1.0  0.98600  0.98600  0.33200  1.0000
  Cr  Cr6       1.0  0.01450  0.36300  0.36300  1.0000
  Cr  Cr7       1.0  0.36300  0.01450  0.36300  1.0000
  Cr  Cr8       1.0  0.01870  0.01870  0.80100  1.0000
  Cr  Cr9       1.0  0.98600  0.33200  0.98600  1.0000
  Cr  Cr10      1.0  0.33200  0.98600  0.98600  1.0000
