data_image0
_chemical_formula_structural       Al14Ca13
_chemical_formula_sum              "Al14 Ca13"
_cell_length_a       9.16212
_cell_length_b       9.16212
_cell_length_c       9.68257
_cell_angle_alpha    105.248
_cell_angle_beta     105.248
_cell_angle_gamma    64.8681

_space_group_name_H-M_alt    "P 1"
_space_group_IT_number       1

loop_
  _space_group_symop_operation_xyz
  'x, y, z'

loop_
  _atom_site_type_symbol
  _atom_site_label
  _atom_site_symmetry_multiplicity
  _atom_site_fract_x
  _atom_site_fract_y
  _atom_site_fract_z
  _atom_site_occupancy
  Al  Al1       1.0  0.77500  0.22500  0.00000  1.0000
  Al  Al2       1.0  0.22500  0.77500  0.00000  1.0000
  Al  Al3       1.0  0.79300  0.52300  0.08270  1.0000
  Al  Al4       1.0  0.52300  0.79300  0.08270  1.0000
  Al  Al5       1.0  0.00134  0.00134  0.15800  1.0000
  Al  Al6       1.0  0.74100  0.74100  0.34500  1.0000
  Al  Al7       1.0  0.34000  0.34000  0.43100  1.0000
  Al  Al8       1.0  0.64600  0.35400  0.50000  1.0000
  Al  Al9       1.0  0.35400  0.64600  0.50000  1.0000
  Al  Al10      1.0  0.66000  0.66000  0.56900  1.0000
  Al  Al11      1.0  0.25900  0.25900  0.65500  1.0000
  Al  Al12      1.0  0.99900  0.99900  0.84200  1.0000
  Al  Al13      1.0  0.47700  0.20700  0.91700  1.0000
  Al  Al14      1.0  0.20700  0.47700  0.91700  1.0000
  Ca  Ca1       1.0  0.19700  0.19700  0.08500  1.0000
  Ca  Ca2       1.0  0.50400  0.50400  0.20200  1.0000
  Ca  Ca3       1.0  0.64300  0.07970  0.22700  1.0000
  Ca  Ca4       1.0  0.07970  0.64300  0.22700  1.0000
  Ca  Ca5       1.0  0.94400  0.34900  0.36600  1.0000
  Ca  Ca6       1.0  0.34900  0.94400  0.36600  1.0000
  Ca  Ca7       1.0  0.00000  0.00000  0.50000  1.0000
  Ca  Ca8       1.0  0.65100  0.05650  0.63400  1.0000
  Ca  Ca9       1.0  0.05650  0.65100  0.63400  1.0000
  Ca  Ca10      1.0  0.92000  0.35700  0.77300  1.0000
  Ca  Ca11      1.0  0.35700  0.92000  0.77300  1.0000
  Ca  Ca12      1.0  0.49600  0.49600  0.79800  1.0000
  Ca  Ca13      1.0  0.80300  0.80300  0.91500  1.0000
