data_image0
_chemical_formula_structural       Cl18K2Zr7
_chemical_formula_sum              "Cl18 K2 Zr7"
_cell_length_a       9.53379
_cell_length_b       9.53379
_cell_length_c       10.2755
_cell_angle_alpha    90
_cell_angle_beta     62.3604
_cell_angle_gamma    120

_space_group_name_H-M_alt    "P 1"
_space_group_IT_number       1

loop_
  _space_group_symop_operation_xyz
  'x, y, z'

loop_
  _atom_site_type_symbol
  _atom_site_label
  _atom_site_symmetry_multiplicity
  _atom_site_fract_x
  _atom_site_fract_y
  _atom_site_fract_z
  _atom_site_occupancy
  Cl  Cl1       1.0  0.42300  0.13500  0.00718  1.0000
  Cl  Cl2       1.0  0.85800  0.28800  0.00718  1.0000
  Cl  Cl3       1.0  0.70500  0.57000  0.00718  1.0000
  Cl  Cl4       1.0  0.87900  0.36200  0.33300  1.0000
  Cl  Cl5       1.0  0.30400  0.51600  0.33300  1.0000
  Cl  Cl6       1.0  0.15000  0.78800  0.33300  1.0000
  Cl  Cl7       1.0  0.01290  0.07070  0.34000  1.0000
  Cl  Cl8       1.0  0.71800  0.64700  0.34000  1.0000
  Cl  Cl9       1.0  0.58900  0.94200  0.34000  1.0000
  Cl  Cl10      1.0  0.41100  0.05780  0.66000  1.0000
  Cl  Cl11      1.0  0.28200  0.35300  0.66000  1.0000
  Cl  Cl12      1.0  0.98700  0.92900  0.66000  1.0000
  Cl  Cl13      1.0  0.85000  0.21200  0.66700  1.0000
  Cl  Cl14      1.0  0.69600  0.48400  0.66700  1.0000
  Cl  Cl15      1.0  0.12100  0.63800  0.66700  1.0000
  Cl  Cl16      1.0  0.29500  0.43000  0.99300  1.0000
  Cl  Cl17      1.0  0.14200  0.71200  0.99300  1.0000
  Cl  Cl18      1.0  0.57700  0.86500  0.99300  1.0000
  K   K1        1.0  0.44800  0.22400  0.32800  1.0000
  K   K2        1.0  0.55200  0.77600  0.67200  1.0000
  Zr  Zr1       1.0  0.95100  0.16400  0.14800  1.0000
  Zr  Zr2       1.0  0.68800  0.78700  0.14800  1.0000
  Zr  Zr3       1.0  0.06500  0.90100  0.14800  1.0000
  Zr  Zr4       1.0  0.00000  0.50000  0.50000  1.0000
  Zr  Zr5       1.0  0.93500  0.09920  0.85200  1.0000
  Zr  Zr6       1.0  0.31200  0.21300  0.85200  1.0000
  Zr  Zr7       1.0  0.04860  0.83600  0.85200  1.0000
