data_image0
_chemical_formula_structural       C8Cl4Cs4N8Pt2
_chemical_formula_sum              "C8 Cl4 Cs4 N8 Pt2"
_cell_length_a       7.42209
_cell_length_b       9.64156
_cell_length_c       9.82547
_cell_angle_alpha    93.7152
_cell_angle_beta     112.191
_cell_angle_gamma    67.3624

_space_group_name_H-M_alt    "P 1"
_space_group_IT_number       1

loop_
  _space_group_symop_operation_xyz
  'x, y, z'

loop_
  _atom_site_type_symbol
  _atom_site_label
  _atom_site_symmetry_multiplicity
  _atom_site_fract_x
  _atom_site_fract_y
  _atom_site_fract_z
  _atom_site_occupancy
  C   C1        1.0  0.88700  0.22200  0.02490  1.0000
  C   C2        1.0  0.92500  0.95900  0.16500  1.0000
  C   C3        1.0  0.21800  0.54100  0.33500  1.0000
  C   C4        1.0  0.58400  0.27800  0.47500  1.0000
  C   C5        1.0  0.41600  0.72200  0.52500  1.0000
  C   C6        1.0  0.78200  0.45900  0.66500  1.0000
  C   C7        1.0  0.07520  0.04150  0.83500  1.0000
  C   C8        1.0  0.11300  0.77800  0.97500  1.0000
  Cl  Cl1       1.0  0.33900  0.97400  0.17200  1.0000
  Cl  Cl2       1.0  0.64200  0.52600  0.32800  1.0000
  Cl  Cl3       1.0  0.35800  0.47400  0.67200  1.0000
  Cl  Cl4       1.0  0.66100  0.02550  0.82800  1.0000
  Cs  Cs1       1.0  0.36400  0.30300  0.03860  1.0000
  Cs  Cs2       1.0  0.12800  0.19700  0.46100  1.0000
  Cs  Cs3       1.0  0.87200  0.80300  0.53900  1.0000
  Cs  Cs4       1.0  0.63600  0.69700  0.96100  1.0000
  N   N1        1.0  0.81900  0.35000  0.04140  1.0000
  N   N2        1.0  0.05380  0.56400  0.23900  1.0000
  N   N3        1.0  0.87900  0.93600  0.26100  1.0000
  N   N4        1.0  0.62800  0.15000  0.45900  1.0000
  N   N5        1.0  0.37200  0.85000  0.54100  1.0000
  N   N6        1.0  0.12100  0.06420  0.73900  1.0000
  N   N7        1.0  0.94600  0.43600  0.76100  1.0000
  N   N8        1.0  0.18100  0.65000  0.95900  1.0000
  Pt  Pt1       1.0  0.00000  0.00000  0.00000  1.0000
  Pt  Pt2       1.0  0.50000  0.50000  0.50000  1.0000
