data_image0
_chemical_formula_structural       Au2F19Sb3Xe2
_chemical_formula_sum              "Au2 F19 Sb3 Xe2"
_cell_length_a       6.26938
_cell_length_b       8.19803
_cell_length_c       8.86318
_cell_angle_alpha    73.4829
_cell_angle_beta     79.2662
_cell_angle_gamma    68.6064

_space_group_name_H-M_alt    "P 1"
_space_group_IT_number       1

loop_
  _space_group_symop_operation_xyz
  'x, y, z'

loop_
  _atom_site_type_symbol
  _atom_site_label
  _atom_site_symmetry_multiplicity
  _atom_site_fract_x
  _atom_site_fract_y
  _atom_site_fract_z
  _atom_site_occupancy
  Au  Au1       1.0  0.17900  0.27800  0.15900  1.0000
  Au  Au2       1.0  0.82100  0.72200  0.84100  1.0000
  F   F1        1.0  0.00000  0.50000  0.00000  1.0000
  F   F2        1.0  0.58900  0.75900  0.05290  1.0000
  F   F3        1.0  0.18000  0.00595  0.08080  1.0000
  F   F4        1.0  0.76100  0.23000  0.09240  1.0000
  F   F5        1.0  0.39800  0.49400  0.15800  1.0000
  F   F6        1.0  0.97600  0.74500  0.20400  1.0000
  F   F7        1.0  0.43900  0.03540  0.28300  1.0000
  F   F8        1.0  0.35900  0.72300  0.32500  1.0000
  F   F9        1.0  0.80200  0.00509  0.42800  1.0000
  F   F10       1.0  0.38600  0.25500  0.47300  1.0000
  F   F11       1.0  0.61400  0.74500  0.52700  1.0000
  F   F12       1.0  0.19800  0.99500  0.57200  1.0000
  F   F13       1.0  0.64100  0.27700  0.67500  1.0000
  F   F14       1.0  0.56100  0.96500  0.71700  1.0000
  F   F15       1.0  0.02430  0.25500  0.79600  1.0000
  F   F16       1.0  0.60200  0.50600  0.84200  1.0000
  F   F17       1.0  0.23900  0.77000  0.90800  1.0000
  F   F18       1.0  0.82000  0.99400  0.91900  1.0000
  F   F19       1.0  0.41100  0.24100  0.94700  1.0000
  Sb  Sb1       1.0  0.27500  0.75100  0.12100  1.0000
  Sb  Sb2       1.0  0.50000  0.00000  0.50000  1.0000
  Sb  Sb3       1.0  0.72500  0.24900  0.87900  1.0000
  Xe  Xe1       1.0  0.85300  0.39300  0.37600  1.0000
  Xe  Xe2       1.0  0.14700  0.60700  0.62400  1.0000
