data_image0
_chemical_formula_structural       Ba2Er2O14Zn8
_chemical_formula_sum              "Ba2 Er2 O14 Zn8"
_cell_length_a       6.31293
_cell_length_b       6.31043
_cell_length_c       10.3062
_cell_angle_alpha    90
_cell_angle_beta     90
_cell_angle_gamma    59.9869

_space_group_name_H-M_alt    "P 1"
_space_group_IT_number       1

loop_
  _space_group_symop_operation_xyz
  'x, y, z'

loop_
  _atom_site_type_symbol
  _atom_site_label
  _atom_site_symmetry_multiplicity
  _atom_site_fract_x
  _atom_site_fract_y
  _atom_site_fract_z
  _atom_site_occupancy
  Ba  Ba1       1.0  0.83400  0.33200  0.47900  1.0000
  Ba  Ba2       1.0  0.16600  0.66800  0.97900  1.0000
  Er  Er1       1.0  0.16600  0.66800  0.35600  1.0000
  Er  Er2       1.0  0.83400  0.33200  0.85600  1.0000
  O   O1        1.0  0.50000  0.00000  0.22900  1.0000
  O   O2        1.0  0.00069  0.50200  0.23300  1.0000
  O   O3        1.0  0.49700  0.50200  0.23300  1.0000
  O   O4        1.0  0.99900  0.00257  0.23600  1.0000
  O   O5        1.0  0.33200  0.33600  0.48000  1.0000
  O   O6        1.0  0.32900  0.83700  0.48100  1.0000
  O   O7        1.0  0.83400  0.83700  0.48100  1.0000
  O   O8        1.0  0.50000  0.00037  0.72900  1.0000
  O   O9        1.0  0.50300  0.49800  0.73300  1.0000
  O   O10       1.0  0.99900  0.49800  0.73300  1.0000
  O   O11       1.0  0.00129  0.99700  0.73600  1.0000
  O   O12       1.0  0.66800  0.66400  0.98000  1.0000
  O   O13       1.0  0.16600  0.16300  0.98100  1.0000
  O   O14       1.0  0.67100  0.16300  0.98100  1.0000
  Zn  Zn1       1.0  0.67000  0.66000  0.16700  1.0000
  Zn  Zn2       1.0  0.16000  0.17000  0.16800  1.0000
  Zn  Zn3       1.0  0.66900  0.17000  0.16800  1.0000
  Zn  Zn4       1.0  0.49900  0.00101  0.42000  1.0000
  Zn  Zn5       1.0  0.33000  0.34000  0.66700  1.0000
  Zn  Zn6       1.0  0.33100  0.83000  0.66800  1.0000
  Zn  Zn7       1.0  0.84000  0.83000  0.66800  1.0000
  Zn  Zn8       1.0  0.50100  0.99900  0.92000  1.0000
