data_image0
_chemical_formula_structural       Cl18Cs2Nb6Pb
_chemical_formula_sum              "Cl18 Cs2 Nb6 Pb1"
_cell_length_a       9.5604
_cell_length_b       9.56046
_cell_length_c       10.4059
_cell_angle_alpha    62.6533
_cell_angle_beta     117.347
_cell_angle_gamma    120.001

_space_group_name_H-M_alt    "P 1"
_space_group_IT_number       1

loop_
  _space_group_symop_operation_xyz
  'x, y, z'

loop_
  _atom_site_type_symbol
  _atom_site_label
  _atom_site_symmetry_multiplicity
  _atom_site_fract_x
  _atom_site_fract_y
  _atom_site_fract_z
  _atom_site_occupancy
  Cl  Cl1       1.0  0.57900  0.83400  0.17900  1.0000
  Cl  Cl2       1.0  0.16600  0.56600  0.17900  1.0000
  Cl  Cl3       1.0  0.43400  0.42100  0.17900  1.0000
  Cl  Cl4       1.0  0.32500  0.96400  0.19100  1.0000
  Cl  Cl5       1.0  0.83000  0.67500  0.19100  1.0000
  Cl  Cl6       1.0  0.03580  0.17000  0.19100  1.0000
  Cl  Cl7       1.0  0.35700  0.08920  0.49800  1.0000
  Cl  Cl8       1.0  0.23000  0.64300  0.49800  1.0000
  Cl  Cl9       1.0  0.91100  0.77000  0.49800  1.0000
  Cl  Cl10      1.0  0.08920  0.23000  0.50200  1.0000
  Cl  Cl11      1.0  0.77000  0.35700  0.50200  1.0000
  Cl  Cl12      1.0  0.64300  0.91100  0.50200  1.0000
  Cl  Cl13      1.0  0.96400  0.83000  0.80900  1.0000
  Cl  Cl14      1.0  0.17000  0.32500  0.80900  1.0000
  Cl  Cl15      1.0  0.67500  0.03580  0.80900  1.0000
  Cl  Cl16      1.0  0.56600  0.57900  0.82100  1.0000
  Cl  Cl17      1.0  0.83400  0.43400  0.82100  1.0000
  Cl  Cl18      1.0  0.42100  0.16600  0.82100  1.0000
  Cs  Cs1       1.0  0.72300  0.27700  0.16900  1.0000
  Cs  Cs2       1.0  0.27700  0.72300  0.83100  1.0000
  Nb  Nb1       1.0  0.29700  0.35300  0.36400  1.0000
  Nb  Nb2       1.0  0.64700  0.58000  0.36400  1.0000
  Nb  Nb3       1.0  0.42000  0.70300  0.36400  1.0000
  Nb  Nb4       1.0  0.58000  0.29700  0.63600  1.0000
  Nb  Nb5       1.0  0.35300  0.42000  0.63600  1.0000
  Nb  Nb6       1.0  0.70300  0.64700  0.63600  1.0000
  Pb  Pb1       1.0  0.00000  0.00000  0.00000  1.0000
