data_image0
_chemical_formula_structural       In8O16Sr4
_chemical_formula_sum              "In8 O16 Sr4"
_cell_length_a       9.84119
_cell_length_b       11.5372
_cell_length_c       3.28959
_cell_angle_alpha    90
_cell_angle_beta     90
_cell_angle_gamma    90

_space_group_name_H-M_alt    "P 1"
_space_group_IT_number       1

loop_
  _space_group_symop_operation_xyz
  'x, y, z'

loop_
  _atom_site_type_symbol
  _atom_site_label
  _atom_site_symmetry_multiplicity
  _atom_site_fract_x
  _atom_site_fract_y
  _atom_site_fract_z
  _atom_site_occupancy
  In  In1       1.0  0.41900  0.10600  0.25000  1.0000
  In  In2       1.0  0.91900  0.39400  0.25000  1.0000
  In  In3       1.0  0.43000  0.61100  0.25000  1.0000
  In  In4       1.0  0.93000  0.88900  0.25000  1.0000
  In  In5       1.0  0.07050  0.11100  0.75000  1.0000
  In  In6       1.0  0.57000  0.38900  0.75000  1.0000
  In  In7       1.0  0.08130  0.60600  0.75000  1.0000
  In  In8       1.0  0.58100  0.89400  0.75000  1.0000
  O   O1        1.0  0.62200  0.02150  0.25000  1.0000
  O   O2        1.0  0.91800  0.07520  0.25000  1.0000
  O   O3        1.0  0.20700  0.16900  0.25000  1.0000
  O   O4        1.0  0.70700  0.33100  0.25000  1.0000
  O   O5        1.0  0.41800  0.42500  0.25000  1.0000
  O   O6        1.0  0.12200  0.47900  0.25000  1.0000
  O   O7        1.0  0.02290  0.71800  0.25000  1.0000
  O   O8        1.0  0.52300  0.78200  0.25000  1.0000
  O   O9        1.0  0.47700  0.21800  0.75000  1.0000
  O   O10       1.0  0.97700  0.28200  0.75000  1.0000
  O   O11       1.0  0.87800  0.52100  0.75000  1.0000
  O   O12       1.0  0.58200  0.57500  0.75000  1.0000
  O   O13       1.0  0.29300  0.66900  0.75000  1.0000
  O   O14       1.0  0.79300  0.83100  0.75000  1.0000
  O   O15       1.0  0.08170  0.92500  0.75000  1.0000
  O   O16       1.0  0.37800  0.97900  0.75000  1.0000
  Sr  Sr1       1.0  0.75600  0.65300  0.25000  1.0000
  Sr  Sr2       1.0  0.25600  0.84700  0.25000  1.0000
  Sr  Sr3       1.0  0.74400  0.15300  0.75000  1.0000
  Sr  Sr4       1.0  0.24400  0.34700  0.75000  1.0000
