data_image0
_chemical_formula_structural       Al2H4Li2O14Si4
_chemical_formula_sum              "Al2 H4 Li2 O14 Si4"
_cell_length_a       8.52105
_cell_length_b       4.88484
_cell_length_c       7.60082
_cell_angle_alpha    89.7766
_cell_angle_beta     114.757
_cell_angle_gamma    89.9825

_space_group_name_H-M_alt    "P 1"
_space_group_IT_number       1

loop_
  _space_group_symop_operation_xyz
  'x, y, z'

loop_
  _atom_site_type_symbol
  _atom_site_label
  _atom_site_symmetry_multiplicity
  _atom_site_fract_x
  _atom_site_fract_y
  _atom_site_fract_z
  _atom_site_occupancy
  Al  Al1       1.0  0.90100  0.37100  0.90700  1.0000
  Al  Al2       1.0  0.37800  0.88300  0.93600  1.0000
  H   H1        1.0  0.31600  0.29800  0.49200  1.0000
  H   H2        1.0  0.48600  0.16500  0.50000  1.0000
  H   H3        1.0  0.51500  0.66000  0.52400  1.0000
  H   H4        1.0  0.68400  0.79300  0.52900  1.0000
  Li  Li1       1.0  0.32100  0.37200  0.16800  1.0000
  Li  Li2       1.0  0.69300  0.87500  0.85500  1.0000
  O   O1        1.0  0.44900  0.20700  0.03420  1.0000
  O   O2        1.0  0.09330  0.19800  0.05020  1.0000
  O   O3        1.0  0.26600  0.73700  0.06010  1.0000
  O   O4        1.0  0.73200  0.41200  0.29500  1.0000
  O   O5        1.0  0.15900  0.82300  0.32500  1.0000
  O   O6        1.0  0.92300  0.96800  0.45300  1.0000
  O   O7        1.0  0.41100  0.33000  0.45400  1.0000
  O   O8        1.0  0.06520  0.46700  0.51800  1.0000
  O   O9        1.0  0.58900  0.82600  0.56700  1.0000
  O   O10       1.0  0.83800  0.32200  0.66300  1.0000
  O   O11       1.0  0.25600  0.90900  0.69000  1.0000
  O   O12       1.0  0.73100  0.24200  0.95700  1.0000
  O   O13       1.0  0.92500  0.72100  0.96200  1.0000
  O   O14       1.0  0.56200  0.68900  0.97300  1.0000
  Si  Si1       1.0  0.62000  0.38400  0.06200  1.0000
  Si  Si2       1.0  0.10700  0.87100  0.09620  1.0000
  Si  Si3       1.0  0.89100  0.29100  0.48600  1.0000
  Si  Si4       1.0  0.10100  0.79400  0.50100  1.0000
