data_image0
_chemical_formula_structural       K4Ni4O16P4
_chemical_formula_sum              "K4 Ni4 O16 P4"
_cell_length_a       8.55025
_cell_length_b       9.19626
_cell_length_c       4.89529
_cell_angle_alpha    90
_cell_angle_beta     90
_cell_angle_gamma    90

_space_group_name_H-M_alt    "P 1"
_space_group_IT_number       1

loop_
  _space_group_symop_operation_xyz
  'x, y, z'

loop_
  _atom_site_type_symbol
  _atom_site_label
  _atom_site_symmetry_multiplicity
  _atom_site_fract_x
  _atom_site_fract_y
  _atom_site_fract_z
  _atom_site_occupancy
  K   K1        1.0  0.00000  0.68500  0.01200  1.0000
  K   K2        1.0  0.50000  0.81500  0.01200  1.0000
  K   K3        1.0  0.50000  0.18500  0.51200  1.0000
  K   K4        1.0  0.00035  0.31500  0.51200  1.0000
  Ni  Ni1       1.0  0.34400  0.54100  0.48400  1.0000
  Ni  Ni2       1.0  0.84400  0.95900  0.48400  1.0000
  Ni  Ni3       1.0  0.15600  0.04130  0.98400  1.0000
  Ni  Ni4       1.0  0.65600  0.45900  0.98400  1.0000
  O   O1        1.0  0.25700  0.21500  0.13700  1.0000
  O   O2        1.0  0.75700  0.28500  0.13700  1.0000
  O   O3        1.0  0.95400  0.08120  0.17400  1.0000
  O   O4        1.0  0.45400  0.41900  0.17400  1.0000
  O   O5        1.0  0.67900  0.01850  0.19700  1.0000
  O   O6        1.0  0.17900  0.48100  0.19700  1.0000
  O   O7        1.0  0.71400  0.61700  0.23800  1.0000
  O   O8        1.0  0.21400  0.88300  0.23800  1.0000
  O   O9        1.0  0.24300  0.71500  0.63700  1.0000
  O   O10       1.0  0.74300  0.78500  0.63700  1.0000
  O   O11       1.0  0.54600  0.58100  0.67400  1.0000
  O   O12       1.0  0.04610  0.91900  0.67400  1.0000
  O   O13       1.0  0.82100  0.51900  0.69700  1.0000
  O   O14       1.0  0.32100  0.98100  0.69700  1.0000
  O   O15       1.0  0.78600  0.11700  0.73800  1.0000
  O   O16       1.0  0.28600  0.38300  0.73800  1.0000
  P   P1        1.0  0.79000  0.12700  0.05090  1.0000
  P   P2        1.0  0.29000  0.37300  0.05090  1.0000
  P   P3        1.0  0.71000  0.62700  0.55100  1.0000
  P   P4        1.0  0.21000  0.87300  0.55100  1.0000
