data_image0
_chemical_formula_structural       Al2Ba6O15Rh4
_chemical_formula_sum              "Al2 Ba6 O15 Rh4"
_cell_length_a       5.76613
_cell_length_b       5.76614
_cell_length_c       14.0537
_cell_angle_alpha    90
_cell_angle_beta     90
_cell_angle_gamma    120

_space_group_name_H-M_alt    "P 1"
_space_group_IT_number       1

loop_
  _space_group_symop_operation_xyz
  'x, y, z'

loop_
  _atom_site_type_symbol
  _atom_site_label
  _atom_site_symmetry_multiplicity
  _atom_site_fract_x
  _atom_site_fract_y
  _atom_site_fract_z
  _atom_site_occupancy
  Al  Al1       1.0  0.33300  0.66700  0.39700  1.0000
  Al  Al2       1.0  0.33300  0.66700  0.60300  1.0000
  Ba  Ba1       1.0  0.00000  0.00000  0.00000  1.0000
  Ba  Ba2       1.0  0.33300  0.66700  0.15400  1.0000
  Ba  Ba3       1.0  0.66700  0.33300  0.32100  1.0000
  Ba  Ba4       1.0  0.00000  0.00000  0.50000  1.0000
  Ba  Ba5       1.0  0.66700  0.33300  0.67900  1.0000
  Ba  Ba6       1.0  0.33300  0.66700  0.84600  1.0000
  O   O1        1.0  0.51400  0.02860  0.00000  1.0000
  O   O2        1.0  0.51400  0.48600  0.00000  1.0000
  O   O3        1.0  0.97100  0.48600  0.00000  1.0000
  O   O4        1.0  0.32300  0.16200  0.17400  1.0000
  O   O5        1.0  0.83800  0.16200  0.17400  1.0000
  O   O6        1.0  0.83800  0.67700  0.17400  1.0000
  O   O7        1.0  0.16800  0.33500  0.35300  1.0000
  O   O8        1.0  0.16800  0.83200  0.35300  1.0000
  O   O9        1.0  0.66500  0.83200  0.35300  1.0000
  O   O10       1.0  0.16800  0.83200  0.64700  1.0000
  O   O11       1.0  0.66500  0.83200  0.64700  1.0000
  O   O12       1.0  0.16800  0.33500  0.64700  1.0000
  O   O13       1.0  0.83800  0.67700  0.82600  1.0000
  O   O14       1.0  0.32300  0.16200  0.82600  1.0000
  O   O15       1.0  0.83800  0.16200  0.82600  1.0000
  Rh  Rh1       1.0  0.66700  0.33300  0.09510  1.0000
  Rh  Rh2       1.0  0.00000  0.00000  0.26300  1.0000
  Rh  Rh3       1.0  0.00000  0.00000  0.73700  1.0000
  Rh  Rh4       1.0  0.66700  0.33300  0.90500  1.0000
