data_image0
_chemical_formula_structural       Al18Ni5U4
_chemical_formula_sum              "Al18 Ni5 U4"
_cell_length_a       4.02785
_cell_length_b       8.04649
_cell_length_c       14.394
_cell_angle_alpha    90.2015
_cell_angle_beta     98.0429
_cell_angle_gamma    75.5056

_space_group_name_H-M_alt    "P 1"
_space_group_IT_number       1

loop_
  _space_group_symop_operation_xyz
  'x, y, z'

loop_
  _atom_site_type_symbol
  _atom_site_label
  _atom_site_symmetry_multiplicity
  _atom_site_fract_x
  _atom_site_fract_y
  _atom_site_fract_z
  _atom_site_occupancy
  Al  Al1       1.0  0.82100  0.37900  0.02070  1.0000
  Al  Al2       1.0  0.48000  0.14900  0.11000  1.0000
  Al  Al3       1.0  0.91800  0.36900  0.20500  1.0000
  Al  Al4       1.0  0.11800  0.98500  0.22100  1.0000
  Al  Al5       1.0  0.32800  0.60100  0.25700  1.0000
  Al  Al6       1.0  0.75200  0.81800  0.32200  1.0000
  Al  Al7       1.0  0.24100  0.95700  0.43900  1.0000
  Al  Al8       1.0  0.42900  0.59500  0.45300  1.0000
  Al  Al9       1.0  0.08990  0.29900  0.47900  1.0000
  Al  Al10      1.0  0.75100  0.06210  0.56500  1.0000
  Al  Al11      1.0  0.02780  0.54500  0.60100  1.0000
  Al  Al12      1.0  0.23300  0.20100  0.66700  1.0000
  Al  Al13      1.0  0.67700  0.38600  0.74000  1.0000
  Al  Al14      1.0  0.88000  0.01440  0.77400  1.0000
  Al  Al15      1.0  0.08230  0.62200  0.78700  1.0000
  Al  Al16      1.0  0.51800  0.84600  0.88200  1.0000
  Al  Al17      1.0  0.17500  0.62100  0.97100  1.0000
  Al  Al18      1.0  0.00076  0.99600  0.99800  1.0000
  Ni  Ni1       1.0  0.33300  0.44800  0.11300  1.0000
  Ni  Ni2       1.0  0.91600  0.51700  0.35000  1.0000
  Ni  Ni3       1.0  0.84600  0.79600  0.48800  1.0000
  Ni  Ni4       1.0  0.60200  0.36900  0.57300  1.0000
  Ni  Ni5       1.0  0.66500  0.54700  0.87700  1.0000
  U   U1        1.0  0.67200  0.76600  0.10900  1.0000
  U   U2        1.0  0.56700  0.20100  0.33600  1.0000
  U   U3        1.0  0.42900  0.80200  0.66000  1.0000
  U   U4        1.0  0.33100  0.22600  0.88800  1.0000
