data_image0
_chemical_formula_structural       Ba2Ga2Nd2O14Zn6
_chemical_formula_sum              "Ba2 Ga2 Nd2 O14 Zn6"
_cell_length_a       6.44544
_cell_length_b       6.44543
_cell_length_c       10.485
_cell_angle_alpha    90
_cell_angle_beta     89.9999
_cell_angle_gamma    120

_space_group_name_H-M_alt    "P 1"
_space_group_IT_number       1

loop_
  _space_group_symop_operation_xyz
  'x, y, z'

loop_
  _atom_site_type_symbol
  _atom_site_label
  _atom_site_symmetry_multiplicity
  _atom_site_fract_x
  _atom_site_fract_y
  _atom_site_fract_z
  _atom_site_occupancy
  Ba  Ba1       1.0  0.66700  0.33300  0.48100  1.0000
  Ba  Ba2       1.0  0.33300  0.66700  0.98100  1.0000
  Ga  Ga1       1.0  0.00000  0.00000  0.39200  1.0000
  Ga  Ga2       1.0  0.00000  0.00000  0.89200  1.0000
  Nd  Nd1       1.0  0.33300  0.66700  0.32900  1.0000
  Nd  Nd2       1.0  0.66700  0.33300  0.82900  1.0000
  O   O1        1.0  0.49400  0.98800  0.18600  1.0000
  O   O2        1.0  0.49400  0.50600  0.18600  1.0000
  O   O3        1.0  0.01240  0.50600  0.18600  1.0000
  O   O4        1.0  0.00000  0.00000  0.21200  1.0000
  O   O5        1.0  0.68900  0.84400  0.45100  1.0000
  O   O6        1.0  0.15600  0.84500  0.45100  1.0000
  O   O7        1.0  0.15500  0.31100  0.45100  1.0000
  O   O8        1.0  0.50600  0.01250  0.68600  1.0000
  O   O9        1.0  0.98800  0.49400  0.68600  1.0000
  O   O10       1.0  0.50600  0.49400  0.68600  1.0000
  O   O11       1.0  0.00000  0.00000  0.71200  1.0000
  O   O12       1.0  0.84400  0.15500  0.95100  1.0000
  O   O13       1.0  0.31100  0.15600  0.95100  1.0000
  O   O14       1.0  0.84500  0.68900  0.95100  1.0000
  Zn  Zn1       1.0  0.83000  0.16900  0.14200  1.0000
  Zn  Zn2       1.0  0.33900  0.17000  0.14200  1.0000
  Zn  Zn3       1.0  0.83100  0.66100  0.14200  1.0000
  Zn  Zn4       1.0  0.17000  0.83100  0.64200  1.0000
  Zn  Zn5       1.0  0.66100  0.83000  0.64200  1.0000
  Zn  Zn6       1.0  0.16900  0.33900  0.64200  1.0000
