data_image0
_chemical_formula_structural       O18Te3Yb6
_chemical_formula_sum              "O18 Te3 Yb6"
_cell_length_a       9.02878
_cell_length_b       9.03282
_cell_length_c       5.12967
_cell_angle_alpha    90.0037
_cell_angle_beta     89.9319
_cell_angle_gamma    120.011

_space_group_name_H-M_alt    "P 1"
_space_group_IT_number       1

loop_
  _space_group_symop_operation_xyz
  'x, y, z'

loop_
  _atom_site_type_symbol
  _atom_site_label
  _atom_site_symmetry_multiplicity
  _atom_site_fract_x
  _atom_site_fract_y
  _atom_site_fract_z
  _atom_site_occupancy
  O   O1        1.0  0.94700  0.80800  0.22200  1.0000
  O   O2        1.0  0.19200  0.13900  0.22300  1.0000
  O   O3        1.0  0.86100  0.05340  0.22300  1.0000
  O   O4        1.0  0.53400  0.76000  0.25000  1.0000
  O   O5        1.0  0.24000  0.77400  0.25100  1.0000
  O   O6        1.0  0.22600  0.46600  0.25100  1.0000
  O   O7        1.0  0.86500  0.41000  0.31300  1.0000
  O   O8        1.0  0.54500  0.13500  0.31300  1.0000
  O   O9        1.0  0.59000  0.45500  0.31300  1.0000
  O   O10       1.0  0.41000  0.86500  0.68700  1.0000
  O   O11       1.0  0.45500  0.59000  0.68700  1.0000
  O   O12       1.0  0.13500  0.54500  0.68700  1.0000
  O   O13       1.0  0.77400  0.24000  0.74900  1.0000
  O   O14       1.0  0.76000  0.53400  0.74900  1.0000
  O   O15       1.0  0.46600  0.22600  0.75000  1.0000
  O   O16       1.0  0.13900  0.19300  0.77700  1.0000
  O   O17       1.0  0.80800  0.94700  0.77700  1.0000
  O   O18       1.0  0.05320  0.86100  0.77800  1.0000
  Te  Te1       1.0  0.00000  0.00000  0.00000  1.0000
  Te  Te2       1.0  0.33300  0.66700  0.46700  1.0000
  Te  Te3       1.0  0.66700  0.33400  0.53300  1.0000
  Yb  Yb1       1.0  0.00000  0.60900  0.00000  1.0000
  Yb  Yb2       1.0  0.39100  0.39100  0.00022  1.0000
  Yb  Yb3       1.0  0.27000  0.00000  0.50000  1.0000
  Yb  Yb4       1.0  0.00000  0.26900  0.50000  1.0000
  Yb  Yb5       1.0  0.73000  0.73100  0.50000  1.0000
  Yb  Yb6       1.0  0.60900  0.00000  0.00000  1.0000
