data_image0
_chemical_formula_structural       Fe8Ge4S16
_chemical_formula_sum              "Fe8 Ge4 S16"
_cell_length_a       11.6693
_cell_length_b       6.76377
_cell_length_c       5.59354
_cell_angle_alpha    90
_cell_angle_beta     90
_cell_angle_gamma    90

_space_group_name_H-M_alt    "P 1"
_space_group_IT_number       1

loop_
  _space_group_symop_operation_xyz
  'x, y, z'

loop_
  _atom_site_type_symbol
  _atom_site_label
  _atom_site_symmetry_multiplicity
  _atom_site_fract_x
  _atom_site_fract_y
  _atom_site_fract_z
  _atom_site_occupancy
  Fe  Fe1       1.0  0.00000  0.00000  0.00000  1.0000
  Fe  Fe2       1.0  0.00000  0.50000  0.00000  1.0000
  Fe  Fe3       1.0  0.26900  0.75000  0.00011  1.0000
  Fe  Fe4       1.0  0.76900  0.75000  0.50000  1.0000
  Fe  Fe5       1.0  0.50000  0.00000  0.50000  1.0000
  Fe  Fe6       1.0  0.50000  0.50000  0.50000  1.0000
  Fe  Fe7       1.0  0.23100  0.25000  0.50000  1.0000
  Fe  Fe8       1.0  0.73100  0.25000  0.00000  1.0000
  Ge  Ge1       1.0  0.40700  0.25000  0.05970  1.0000
  Ge  Ge2       1.0  0.90700  0.25000  0.44000  1.0000
  Ge  Ge3       1.0  0.09310  0.75000  0.56000  1.0000
  Ge  Ge4       1.0  0.59300  0.75000  0.94000  1.0000
  S   S1        1.0  0.09440  0.75000  0.15400  1.0000
  S   S2        1.0  0.83200  0.50900  0.24000  1.0000
  S   S3        1.0  0.83200  0.99100  0.24000  1.0000
  S   S4        1.0  0.07630  0.25000  0.24500  1.0000
  S   S5        1.0  0.57600  0.25000  0.25500  1.0000
  S   S6        1.0  0.33200  0.50900  0.26000  1.0000
  S   S7        1.0  0.33200  0.99100  0.26000  1.0000
  S   S8        1.0  0.59400  0.75000  0.34600  1.0000
  S   S9        1.0  0.40600  0.25000  0.65400  1.0000
  S   S10       1.0  0.66800  0.00931  0.74000  1.0000
  S   S11       1.0  0.66800  0.49100  0.74000  1.0000
  S   S12       1.0  0.42400  0.75000  0.74500  1.0000
  S   S13       1.0  0.92400  0.75000  0.75500  1.0000
  S   S14       1.0  0.16800  0.00931  0.76000  1.0000
  S   S15       1.0  0.16800  0.49100  0.76000  1.0000
  S   S16       1.0  0.90600  0.25000  0.84600  1.0000
