data_image0
_chemical_formula_structural       Bi4Cu12S12
_chemical_formula_sum              "Bi4 Cu12 S12"
_cell_length_a       7.7002
_cell_length_b       10.401
_cell_length_c       6.755
_cell_angle_alpha    90
_cell_angle_beta     90
_cell_angle_gamma    90

_space_group_name_H-M_alt    "P 1"
_space_group_IT_number       1

loop_
  _space_group_symop_operation_xyz
  'x, y, z'

loop_
  _atom_site_type_symbol
  _atom_site_label
  _atom_site_symmetry_multiplicity
  _atom_site_fract_x
  _atom_site_fract_y
  _atom_site_fract_z
  _atom_site_occupancy
  Bi  Bi1       1.0  0.19200  0.75600  0.13100  1.0000
  Bi  Bi2       1.0  0.80800  0.25600  0.36900  1.0000
  Bi  Bi3       1.0  0.30800  0.24400  0.63100  1.0000
  Bi  Bi4       1.0  0.69200  0.74400  0.86900  1.0000
  Cu  Cu1       1.0  0.55600  0.03560  0.02680  1.0000
  Cu  Cu2       1.0  0.19000  0.10300  0.07640  1.0000
  Cu  Cu3       1.0  0.35200  0.40400  0.13800  1.0000
  Cu  Cu4       1.0  0.64800  0.90400  0.36200  1.0000
  Cu  Cu5       1.0  0.81000  0.60300  0.42400  1.0000
  Cu  Cu6       1.0  0.44400  0.53600  0.47300  1.0000
  Cu  Cu7       1.0  0.94400  0.96400  0.52700  1.0000
  Cu  Cu8       1.0  0.31000  0.89700  0.57600  1.0000
  Cu  Cu9       1.0  0.14800  0.59600  0.63800  1.0000
  Cu  Cu10      1.0  0.85200  0.09580  0.86200  1.0000
  Cu  Cu11      1.0  0.69000  0.39700  0.92400  1.0000
  Cu  Cu12      1.0  0.05630  0.46400  0.97300  1.0000
  S   S1        1.0  0.81800  0.93000  0.08670  1.0000
  S   S2        1.0  0.82000  0.56300  0.09470  1.0000
  S   S3        1.0  0.55400  0.24800  0.10800  1.0000
  S   S4        1.0  0.44600  0.74800  0.39200  1.0000
  S   S5        1.0  0.18000  0.06340  0.40500  1.0000
  S   S6        1.0  0.18200  0.43000  0.41300  1.0000
  S   S7        1.0  0.68200  0.07000  0.58700  1.0000
  S   S8        1.0  0.68000  0.43700  0.59500  1.0000
  S   S9        1.0  0.94600  0.75200  0.60800  1.0000
  S   S10       1.0  0.05440  0.25200  0.89200  1.0000
  S   S11       1.0  0.32000  0.93700  0.90500  1.0000
  S   S12       1.0  0.31800  0.57000  0.91300  1.0000
