data_image0
_chemical_formula_structural       Br18Cs2EuNb6
_chemical_formula_sum              "Br18 Cs2 Eu1 Nb6"
_cell_length_a       10.8603
_cell_length_b       10.8603
_cell_length_c       10.8603
_cell_angle_alpha    54.794
_cell_angle_beta     54.794
_cell_angle_gamma    54.794

_space_group_name_H-M_alt    "P 1"
_space_group_IT_number       1

loop_
  _space_group_symop_operation_xyz
  'x, y, z'

loop_
  _atom_site_type_symbol
  _atom_site_label
  _atom_site_symmetry_multiplicity
  _atom_site_fract_x
  _atom_site_fract_y
  _atom_site_fract_z
  _atom_site_occupancy
  Br  Br1       1.0  0.83300  0.32300  0.03150  1.0000
  Br  Br2       1.0  0.77100  0.64500  0.08700  1.0000
  Br  Br3       1.0  0.43200  0.58100  0.16400  1.0000
  Br  Br4       1.0  0.67700  0.96900  0.16700  1.0000
  Br  Br5       1.0  0.35500  0.91300  0.22900  1.0000
  Br  Br6       1.0  0.03150  0.83300  0.32300  1.0000
  Br  Br7       1.0  0.91300  0.22900  0.35500  1.0000
  Br  Br8       1.0  0.83600  0.56800  0.41900  1.0000
  Br  Br9       1.0  0.58100  0.16400  0.43200  1.0000
  Br  Br10      1.0  0.41900  0.83600  0.56800  1.0000
  Br  Br11      1.0  0.16400  0.43200  0.58100  1.0000
  Br  Br12      1.0  0.08700  0.77100  0.64500  1.0000
  Br  Br13      1.0  0.96900  0.16700  0.67700  1.0000
  Br  Br14      1.0  0.64500  0.08700  0.77100  1.0000
  Br  Br15      1.0  0.32300  0.03150  0.83300  1.0000
  Br  Br16      1.0  0.56800  0.41900  0.83600  1.0000
  Br  Br17      1.0  0.22900  0.35500  0.91300  1.0000
  Br  Br18      1.0  0.16700  0.67700  0.96900  1.0000
  Cs  Cs1       1.0  0.27700  0.27700  0.27700  1.0000
  Cs  Cs2       1.0  0.72300  0.72300  0.72300  1.0000
  Eu  Eu1       1.0  0.00000  0.00000  0.00000  1.0000
  Nb  Nb1       1.0  0.64200  0.42400  0.30300  1.0000
  Nb  Nb2       1.0  0.57600  0.69700  0.35800  1.0000
  Nb  Nb3       1.0  0.30300  0.64200  0.42400  1.0000
  Nb  Nb4       1.0  0.69700  0.35800  0.57600  1.0000
  Nb  Nb5       1.0  0.42400  0.30300  0.64200  1.0000
  Nb  Nb6       1.0  0.35800  0.57600  0.69700  1.0000
