data_image0
_chemical_formula_structural       B6Ba3Ge2O16
_chemical_formula_sum              "B6 Ba3 Ge2 O16"
_cell_length_a       5.09553
_cell_length_b       7.57154
_cell_length_c       8.60719
_cell_angle_alpha    77.4285
_cell_angle_beta     77.3549
_cell_angle_gamma    88.343

_space_group_name_H-M_alt    "P 1"
_space_group_IT_number       1

loop_
  _space_group_symop_operation_xyz
  'x, y, z'

loop_
  _atom_site_type_symbol
  _atom_site_label
  _atom_site_symmetry_multiplicity
  _atom_site_fract_x
  _atom_site_fract_y
  _atom_site_fract_z
  _atom_site_occupancy
  B   B1        1.0  0.03960  0.19200  0.02800  1.0000
  B   B2        1.0  0.97000  0.59200  0.24500  1.0000
  B   B3        1.0  0.81100  0.25100  0.29600  1.0000
  B   B4        1.0  0.18900  0.74900  0.70400  1.0000
  B   B5        1.0  0.02950  0.40800  0.75500  1.0000
  B   B6        1.0  0.96000  0.80800  0.97200  1.0000
  Ba  Ba1       1.0  0.50000  0.50000  0.00000  1.0000
  Ba  Ba2       1.0  0.37900  0.92100  0.26000  1.0000
  Ba  Ba3       1.0  0.62100  0.07890  0.74000  1.0000
  Ge  Ge1       1.0  0.23000  0.32900  0.44300  1.0000
  Ge  Ge2       1.0  0.77000  0.67100  0.55700  1.0000
  O   O1        1.0  0.30800  0.17600  0.00440  1.0000
  O   O2        1.0  0.08990  0.72700  0.09600  1.0000
  O   O3        1.0  0.87100  0.12500  0.18200  1.0000
  O   O4        1.0  0.87100  0.43600  0.20100  1.0000
  O   O5        1.0  0.21100  0.54700  0.32200  1.0000
  O   O6        1.0  0.76300  0.67600  0.35300  1.0000
  O   O7        1.0  0.51900  0.21300  0.37300  1.0000
  O   O8        1.0  0.96100  0.19700  0.42800  1.0000
  O   O9        1.0  0.03880  0.80300  0.57200  1.0000
  O   O10       1.0  0.48100  0.78700  0.62700  1.0000
  O   O11       1.0  0.23700  0.32400  0.64700  1.0000
  O   O12       1.0  0.78900  0.45300  0.67800  1.0000
  O   O13       1.0  0.12900  0.56400  0.79900  1.0000
  O   O14       1.0  0.12900  0.87500  0.81800  1.0000
  O   O15       1.0  0.91000  0.27300  0.90400  1.0000
  O   O16       1.0  0.69200  0.82400  0.99600  1.0000
