data_image0
_chemical_formula_structural       P6S18Sn3
_chemical_formula_sum              "P6 S18 Sn3"
_cell_length_a       6.08751
_cell_length_b       6.08749
_cell_length_c       20.2526
_cell_angle_alpha    89.9996
_cell_angle_beta     90.0002
_cell_angle_gamma    120

_space_group_name_H-M_alt    "P 1"
_space_group_IT_number       1

loop_
  _space_group_symop_operation_xyz
  'x, y, z'

loop_
  _atom_site_type_symbol
  _atom_site_label
  _atom_site_symmetry_multiplicity
  _atom_site_fract_x
  _atom_site_fract_y
  _atom_site_fract_z
  _atom_site_occupancy
  P   P1        1.0  0.33300  0.66700  0.05550  1.0000
  P   P2        1.0  0.00000  0.00000  0.27800  1.0000
  P   P3        1.0  0.00000  0.00000  0.38900  1.0000
  P   P4        1.0  0.66700  0.33300  0.61200  1.0000
  P   P5        1.0  0.66700  0.33300  0.72200  1.0000
  P   P6        1.0  0.33300  0.66700  0.94500  1.0000
  S   S1        1.0  0.00446  0.65200  0.08290  1.0000
  S   S2        1.0  0.64800  0.99600  0.08290  1.0000
  S   S3        1.0  0.34800  0.35200  0.08290  1.0000
  S   S4        1.0  0.31600  0.98900  0.25100  1.0000
  S   S5        1.0  0.01120  0.32700  0.25100  1.0000
  S   S6        1.0  0.67300  0.68400  0.25100  1.0000
  S   S7        1.0  0.31400  0.32900  0.41600  1.0000
  S   S8        1.0  0.01450  0.68600  0.41600  1.0000
  S   S9        1.0  0.67100  0.98600  0.41600  1.0000
  S   S10       1.0  0.67800  0.66000  0.58400  1.0000
  S   S11       1.0  0.98200  0.32200  0.58400  1.0000
  S   S12       1.0  0.34000  0.01760  0.58400  1.0000
  S   S13       1.0  0.98100  0.66200  0.75000  1.0000
  S   S14       1.0  0.33800  0.31900  0.75000  1.0000
  S   S15       1.0  0.68100  0.01900  0.75000  1.0000
  S   S16       1.0  0.34500  0.99400  0.91700  1.0000
  S   S17       1.0  0.00640  0.35100  0.91700  1.0000
  S   S18       1.0  0.64900  0.65500  0.91700  1.0000
  Sn  Sn1       1.0  0.33300  0.66700  0.33300  1.0000
  Sn  Sn2       1.0  0.00000  0.00000  0.66600  1.0000
  Sn  Sn3       1.0  0.66700  0.33300  1.00000  1.0000
