data_image0
_chemical_formula_structural       As16S12
_chemical_formula_sum              "As16 S12"
_cell_length_a       11.767
_cell_length_b       10.4186
_cell_length_c       6.88808
_cell_angle_alpha    90
_cell_angle_beta     90
_cell_angle_gamma    90

_space_group_name_H-M_alt    "P 1"
_space_group_IT_number       1

loop_
  _space_group_symop_operation_xyz
  'x, y, z'

loop_
  _atom_site_type_symbol
  _atom_site_label
  _atom_site_symmetry_multiplicity
  _atom_site_fract_x
  _atom_site_fract_y
  _atom_site_fract_z
  _atom_site_occupancy
  As  As1       1.0  0.58000  0.75000  0.10100  1.0000
  As  As2       1.0  0.68300  0.25000  0.16800  1.0000
  As  As3       1.0  0.92800  0.62800  0.21800  1.0000
  As  As4       1.0  0.92800  0.87200  0.21800  1.0000
  As  As5       1.0  0.42800  0.62800  0.28200  1.0000
  As  As6       1.0  0.42800  0.87200  0.28200  1.0000
  As  As7       1.0  0.18300  0.25000  0.33200  1.0000
  As  As8       1.0  0.07990  0.75000  0.39900  1.0000
  As  As9       1.0  0.92000  0.25000  0.60100  1.0000
  As  As10      1.0  0.81700  0.75000  0.66800  1.0000
  As  As11      1.0  0.57200  0.12800  0.71800  1.0000
  As  As12      1.0  0.57200  0.37200  0.71800  1.0000
  As  As13      1.0  0.07180  0.12800  0.78200  1.0000
  As  As14      1.0  0.07180  0.37200  0.78200  1.0000
  As  As15      1.0  0.31700  0.75000  0.83200  1.0000
  As  As16      1.0  0.42000  0.25000  0.89900  1.0000
  S   S1        1.0  0.30300  0.58600  0.04700  1.0000
  S   S2        1.0  0.30300  0.91400  0.04700  1.0000
  S   S3        1.0  0.49100  0.25000  0.20100  1.0000
  S   S4        1.0  0.99100  0.25000  0.29900  1.0000
  S   S5        1.0  0.80300  0.58600  0.45300  1.0000
  S   S6        1.0  0.80300  0.91400  0.45300  1.0000
  S   S7        1.0  0.19700  0.08590  0.54700  1.0000
  S   S8        1.0  0.19700  0.41400  0.54700  1.0000
  S   S9        1.0  0.00912  0.75000  0.70100  1.0000
  S   S10       1.0  0.50900  0.75000  0.79900  1.0000
  S   S11       1.0  0.69700  0.08590  0.95300  1.0000
  S   S12       1.0  0.69700  0.41400  0.95300  1.0000
