data_image0
_chemical_formula_structural       Na9O15Os3
_chemical_formula_sum              "Na9 O15 Os3"
_cell_length_a       5.50489
_cell_length_b       5.50489
_cell_length_c       13.2998
_cell_angle_alpha    90
_cell_angle_beta     90
_cell_angle_gamma    120

_space_group_name_H-M_alt    "P 1"
_space_group_IT_number       1

loop_
  _space_group_symop_operation_xyz
  'x, y, z'

loop_
  _atom_site_type_symbol
  _atom_site_label
  _atom_site_symmetry_multiplicity
  _atom_site_fract_x
  _atom_site_fract_y
  _atom_site_fract_z
  _atom_site_occupancy
  Na  Na1       1.0  0.28600  0.90300  0.08470  1.0000
  Na  Na2       1.0  0.00000  0.27200  0.16700  1.0000
  Na  Na3       1.0  0.71400  0.61700  0.24900  1.0000
  Na  Na4       1.0  0.09680  0.38300  0.41800  1.0000
  Na  Na5       1.0  0.72800  0.72800  0.50000  1.0000
  Na  Na6       1.0  0.38300  0.09680  0.58200  1.0000
  Na  Na7       1.0  0.61700  0.71400  0.75100  1.0000
  Na  Na8       1.0  0.27200  0.00000  0.83300  1.0000
  Na  Na9       1.0  0.90300  0.28600  0.91500  1.0000
  O   O1        1.0  0.28700  0.28700  0.00000  1.0000
  O   O2        1.0  0.82300  0.47700  0.06610  1.0000
  O   O3        1.0  0.68200  0.84300  0.10800  1.0000
  O   O4        1.0  0.31800  0.16100  0.22600  1.0000
  O   O5        1.0  0.17700  0.65400  0.26700  1.0000
  O   O6        1.0  0.71300  0.00000  0.33300  1.0000
  O   O7        1.0  0.52300  0.34600  0.39900  1.0000
  O   O8        1.0  0.15700  0.83900  0.44100  1.0000
  O   O9        1.0  0.83900  0.15700  0.55900  1.0000
  O   O10       1.0  0.34600  0.52300  0.60100  1.0000
  O   O11       1.0  0.00000  0.71300  0.66700  1.0000
  O   O12       1.0  0.65400  0.17700  0.73300  1.0000
  O   O13       1.0  0.16100  0.31800  0.77400  1.0000
  O   O14       1.0  0.84300  0.68200  0.89200  1.0000
  O   O15       1.0  0.47700  0.82300  0.93400  1.0000
  Os  Os1       1.0  0.61100  0.61100  0.00000  1.0000
  Os  Os2       1.0  0.38900  0.00000  0.33300  1.0000
  Os  Os3       1.0  0.00000  0.38900  0.66700  1.0000
