data_image0
_chemical_formula_structural       Gd4Na4O16Si4
_chemical_formula_sum              "Gd4 Na4 O16 Si4"
_cell_length_a       5.32934
_cell_length_b       8.62932
_cell_length_c       8.62932
_cell_angle_alpha    95.4716
_cell_angle_beta     72.0135
_cell_angle_gamma    107.986

_space_group_name_H-M_alt    "P 1"
_space_group_IT_number       1

loop_
  _space_group_symop_operation_xyz
  'x, y, z'

loop_
  _atom_site_type_symbol
  _atom_site_label
  _atom_site_symmetry_multiplicity
  _atom_site_fract_x
  _atom_site_fract_y
  _atom_site_fract_z
  _atom_site_occupancy
  Gd  Gd1       1.0  0.80900  0.68700  0.06900  1.0000
  Gd  Gd2       1.0  0.87800  0.06900  0.31300  1.0000
  Gd  Gd3       1.0  0.12200  0.93100  0.68700  1.0000
  Gd  Gd4       1.0  0.19100  0.31300  0.93100  1.0000
  Na  Na1       1.0  0.08600  0.48000  0.30900  1.0000
  Na  Na2       1.0  0.60600  0.69100  0.48000  1.0000
  Na  Na3       1.0  0.39400  0.30900  0.52000  1.0000
  Na  Na4       1.0  0.91400  0.52000  0.69100  1.0000
  O   O1        1.0  0.26700  0.57400  0.04080  1.0000
  O   O2        1.0  0.28100  0.23000  0.15200  1.0000
  O   O3        1.0  0.79700  0.23000  0.15200  1.0000
  O   O4        1.0  0.05120  0.84800  0.23000  1.0000
  O   O5        1.0  0.56700  0.84800  0.23000  1.0000
  O   O6        1.0  0.60300  0.48200  0.27700  1.0000
  O   O7        1.0  0.30800  0.04080  0.42600  1.0000
  O   O8        1.0  0.12000  0.72300  0.48200  1.0000
  O   O9        1.0  0.88000  0.27700  0.51800  1.0000
  O   O10       1.0  0.69200  0.95900  0.57400  1.0000
  O   O11       1.0  0.39700  0.51800  0.72300  1.0000
  O   O12       1.0  0.43300  0.15200  0.77000  1.0000
  O   O13       1.0  0.94900  0.15200  0.77000  1.0000
  O   O14       1.0  0.20300  0.77000  0.84800  1.0000
  O   O15       1.0  0.71900  0.77000  0.84800  1.0000
  O   O16       1.0  0.73300  0.42600  0.95900  1.0000
  Si  Si1       1.0  0.59800  0.33400  0.13900  1.0000
  Si  Si2       1.0  0.26400  0.86100  0.33400  1.0000
  Si  Si3       1.0  0.73600  0.13900  0.66600  1.0000
  Si  Si4       1.0  0.40200  0.66600  0.86100  1.0000
