data_image0
_chemical_formula_structural       Fe4S16Sb8
_chemical_formula_sum              "Fe4 S16 Sb8"
_cell_length_a       11.4658
_cell_length_b       14.1679
_cell_length_c       3.75948
_cell_angle_alpha    90
_cell_angle_beta     90
_cell_angle_gamma    90

_space_group_name_H-M_alt    "P 1"
_space_group_IT_number       1

loop_
  _space_group_symop_operation_xyz
  'x, y, z'

loop_
  _atom_site_type_symbol
  _atom_site_label
  _atom_site_symmetry_multiplicity
  _atom_site_fract_x
  _atom_site_fract_y
  _atom_site_fract_z
  _atom_site_occupancy
  Fe  Fe1       1.0  0.81800  0.16700  0.25000  1.0000
  Fe  Fe2       1.0  0.31800  0.33300  0.25000  1.0000
  Fe  Fe3       1.0  0.68200  0.66700  0.75000  1.0000
  Fe  Fe4       1.0  0.18200  0.83300  0.75000  1.0000
  S   S1        1.0  0.72900  0.01110  0.25000  1.0000
  S   S2        1.0  0.42000  0.18900  0.25000  1.0000
  S   S3        1.0  0.92000  0.31100  0.25000  1.0000
  S   S4        1.0  0.22900  0.48900  0.25000  1.0000
  S   S5        1.0  0.54800  0.59700  0.25000  1.0000
  S   S6        1.0  0.80100  0.72800  0.25000  1.0000
  S   S7        1.0  0.30100  0.77200  0.25000  1.0000
  S   S8        1.0  0.04820  0.90300  0.25000  1.0000
  S   S9        1.0  0.95200  0.09730  0.75000  1.0000
  S   S10       1.0  0.69900  0.22800  0.75000  1.0000
  S   S11       1.0  0.19900  0.27200  0.75000  1.0000
  S   S12       1.0  0.45200  0.40300  0.75000  1.0000
  S   S13       1.0  0.77100  0.51100  0.75000  1.0000
  S   S14       1.0  0.07980  0.68900  0.75000  1.0000
  S   S15       1.0  0.58000  0.81100  0.75000  1.0000
  S   S16       1.0  0.27100  0.98900  0.75000  1.0000
  Sb  Sb1       1.0  0.14100  0.06500  0.25000  1.0000
  Sb  Sb2       1.0  0.64100  0.43500  0.25000  1.0000
  Sb  Sb3       1.0  0.96300  0.61300  0.25000  1.0000
  Sb  Sb4       1.0  0.46300  0.88700  0.25000  1.0000
  Sb  Sb5       1.0  0.53700  0.11300  0.75000  1.0000
  Sb  Sb6       1.0  0.03740  0.38700  0.75000  1.0000
  Sb  Sb7       1.0  0.35900  0.56500  0.75000  1.0000
  Sb  Sb8       1.0  0.85900  0.93500  0.75000  1.0000
