data_image0
_chemical_formula_structural       Cl18K2MnNb6
_chemical_formula_sum              "Cl18 K2 Mn1 Nb6"
_cell_length_a       9.21028
_cell_length_b       9.21038
_cell_length_c       9.99926
_cell_angle_alpha    62.5779
_cell_angle_beta     117.421
_cell_angle_gamma    120.002

_space_group_name_H-M_alt    "P 1"
_space_group_IT_number       1

loop_
  _space_group_symop_operation_xyz
  'x, y, z'

loop_
  _atom_site_type_symbol
  _atom_site_label
  _atom_site_symmetry_multiplicity
  _atom_site_fract_x
  _atom_site_fract_y
  _atom_site_fract_z
  _atom_site_occupancy
  Cl  Cl1       1.0  0.43800  0.42400  0.16600  1.0000
  Cl  Cl2       1.0  0.15200  0.56200  0.16600  1.0000
  Cl  Cl3       1.0  0.57600  0.84800  0.16600  1.0000
  Cl  Cl4       1.0  0.02570  0.15400  0.17500  1.0000
  Cl  Cl5       1.0  0.84600  0.69700  0.17500  1.0000
  Cl  Cl6       1.0  0.30300  0.97400  0.17500  1.0000
  Cl  Cl7       1.0  0.78300  0.35900  0.49800  1.0000
  Cl  Cl8       1.0  0.64100  0.92600  0.49800  1.0000
  Cl  Cl9       1.0  0.07400  0.21700  0.49800  1.0000
  Cl  Cl10      1.0  0.92600  0.78300  0.50200  1.0000
  Cl  Cl11      1.0  0.35900  0.07400  0.50200  1.0000
  Cl  Cl12      1.0  0.21700  0.64100  0.50200  1.0000
  Cl  Cl13      1.0  0.69700  0.02570  0.82500  1.0000
  Cl  Cl14      1.0  0.15400  0.30300  0.82500  1.0000
  Cl  Cl15      1.0  0.97400  0.84600  0.82500  1.0000
  Cl  Cl16      1.0  0.84800  0.43800  0.83400  1.0000
  Cl  Cl17      1.0  0.42400  0.15200  0.83400  1.0000
  Cl  Cl18      1.0  0.56200  0.57600  0.83400  1.0000
  K   K1        1.0  0.72200  0.27800  0.16700  1.0000
  K   K2        1.0  0.27800  0.72200  0.83300  1.0000
  Mn  Mn1       1.0  0.00000  0.00000  0.00000  1.0000
  Nb  Nb1       1.0  0.29300  0.34500  0.35900  1.0000
  Nb  Nb2       1.0  0.65500  0.58900  0.35900  1.0000
  Nb  Nb3       1.0  0.41100  0.70700  0.35900  1.0000
  Nb  Nb4       1.0  0.58900  0.29300  0.64100  1.0000
  Nb  Nb5       1.0  0.34500  0.41100  0.64100  1.0000
  Nb  Nb6       1.0  0.70700  0.65500  0.64100  1.0000
