data_image0
_chemical_formula_structural       Cd4Na4O16P4
_chemical_formula_sum              "Cd4 Na4 O16 P4"
_cell_length_a       10.7946
_cell_length_b       6.50767
_cell_length_c       5.04265
_cell_angle_alpha    90
_cell_angle_beta     90
_cell_angle_gamma    90

_space_group_name_H-M_alt    "P 1"
_space_group_IT_number       1

loop_
  _space_group_symop_operation_xyz
  'x, y, z'

loop_
  _atom_site_type_symbol
  _atom_site_label
  _atom_site_symmetry_multiplicity
  _atom_site_fract_x
  _atom_site_fract_y
  _atom_site_fract_z
  _atom_site_occupancy
  Cd  Cd1       1.0  0.21500  0.25000  0.02030  1.0000
  Cd  Cd2       1.0  0.71500  0.25000  0.48000  1.0000
  Cd  Cd3       1.0  0.28500  0.75000  0.52000  1.0000
  Cd  Cd4       1.0  0.78500  0.75000  0.98000  1.0000
  Na  Na1       1.0  0.49800  0.99500  0.00023  1.0000
  Na  Na2       1.0  0.99800  0.99500  0.50000  1.0000
  Na  Na3       1.0  0.00228  0.49500  0.50000  1.0000
  Na  Na4       1.0  0.50200  0.49500  0.00000  1.0000
  O   O1        1.0  0.96800  0.74600  0.18300  1.0000
  O   O2        1.0  0.17000  0.93800  0.19400  1.0000
  O   O3        1.0  0.17100  0.56000  0.19500  1.0000
  O   O4        1.0  0.89800  0.24700  0.23400  1.0000
  O   O5        1.0  0.39800  0.24700  0.26600  1.0000
  O   O6        1.0  0.67100  0.56000  0.30500  1.0000
  O   O7        1.0  0.67000  0.93800  0.30600  1.0000
  O   O8        1.0  0.46800  0.74600  0.31700  1.0000
  O   O9        1.0  0.53200  0.24600  0.68300  1.0000
  O   O10       1.0  0.33000  0.43800  0.69400  1.0000
  O   O11       1.0  0.32900  0.05960  0.69500  1.0000
  O   O12       1.0  0.60200  0.74700  0.73400  1.0000
  O   O13       1.0  0.10200  0.74700  0.76600  1.0000
  O   O14       1.0  0.82900  0.05960  0.80500  1.0000
  O   O15       1.0  0.83000  0.43800  0.80600  1.0000
  O   O16       1.0  0.03230  0.24600  0.81700  1.0000
  P   P1        1.0  0.10200  0.74800  0.07060  1.0000
  P   P2        1.0  0.60200  0.74800  0.42900  1.0000
  P   P3        1.0  0.39800  0.24800  0.57100  1.0000
  P   P4        1.0  0.89800  0.24800  0.92900  1.0000
