data_image0
_chemical_formula_structural       Cl18Rb2W6
_chemical_formula_sum              "Cl18 Rb2 W6"
_cell_length_a       9.42568
_cell_length_b       9.42585
_cell_length_c       8.43915
_cell_angle_alpha    90.0015
_cell_angle_beta     90.0014
_cell_angle_gamma    119.998

_space_group_name_H-M_alt    "P 1"
_space_group_IT_number       1

loop_
  _space_group_symop_operation_xyz
  'x, y, z'

loop_
  _atom_site_type_symbol
  _atom_site_label
  _atom_site_symmetry_multiplicity
  _atom_site_fract_x
  _atom_site_fract_y
  _atom_site_fract_z
  _atom_site_occupancy
  Cl  Cl1       1.0  0.58000  0.75300  0.00291  1.0000
  Cl  Cl2       1.0  0.24700  0.82700  0.00292  1.0000
  Cl  Cl3       1.0  0.17300  0.42000  0.00293  1.0000
  Cl  Cl4       1.0  0.37400  0.41400  0.30400  1.0000
  Cl  Cl5       1.0  0.58600  0.96100  0.30400  1.0000
  Cl  Cl6       1.0  0.03910  0.62500  0.30400  1.0000
  Cl  Cl7       1.0  0.21600  0.02180  0.31800  1.0000
  Cl  Cl8       1.0  0.97800  0.19400  0.31800  1.0000
  Cl  Cl9       1.0  0.80600  0.78400  0.31800  1.0000
  Cl  Cl10      1.0  0.19400  0.21600  0.68200  1.0000
  Cl  Cl11      1.0  0.02180  0.80600  0.68200  1.0000
  Cl  Cl12      1.0  0.78400  0.97800  0.68200  1.0000
  Cl  Cl13      1.0  0.96100  0.37500  0.69600  1.0000
  Cl  Cl14      1.0  0.41400  0.03910  0.69600  1.0000
  Cl  Cl15      1.0  0.62600  0.58600  0.69600  1.0000
  Cl  Cl16      1.0  0.82700  0.58000  0.99700  1.0000
  Cl  Cl17      1.0  0.75300  0.17300  0.99700  1.0000
  Cl  Cl18      1.0  0.42000  0.24700  0.99700  1.0000
  Rb  Rb1       1.0  0.66700  0.33300  0.43400  1.0000
  Rb  Rb2       1.0  0.33300  0.66700  0.56600  1.0000
  W   W1        1.0  0.17100  0.19100  0.13000  1.0000
  W   W2        1.0  0.80900  0.98100  0.13000  1.0000
  W   W3        1.0  0.01920  0.82900  0.13000  1.0000
  W   W4        1.0  0.19100  0.01920  0.87000  1.0000
  W   W5        1.0  0.98100  0.17100  0.87000  1.0000
  W   W6        1.0  0.82900  0.80900  0.87100  1.0000
