data_image0
_chemical_formula_structural       As12Nb16
_chemical_formula_sum              "As12 Nb16"
_cell_length_a       3.53797
_cell_length_b       7.611
_cell_length_c       18.9399
_cell_angle_alpha    90
_cell_angle_beta     90
_cell_angle_gamma    76.5601

_space_group_name_H-M_alt    "P 1"
_space_group_IT_number       1

loop_
  _space_group_symop_operation_xyz
  'x, y, z'

loop_
  _atom_site_type_symbol
  _atom_site_label
  _atom_site_symmetry_multiplicity
  _atom_site_fract_x
  _atom_site_fract_y
  _atom_site_fract_z
  _atom_site_occupancy
  As  As1       1.0  0.84200  0.31500  0.07760  1.0000
  As  As2       1.0  0.09830  0.80300  0.11800  1.0000
  As  As3       1.0  0.41300  0.17400  0.25000  1.0000
  As  As4       1.0  0.69200  0.61700  0.25000  1.0000
  As  As5       1.0  0.09830  0.80300  0.38200  1.0000
  As  As6       1.0  0.84200  0.31500  0.42200  1.0000
  As  As7       1.0  0.15800  0.68500  0.57800  1.0000
  As  As8       1.0  0.90200  0.19700  0.61800  1.0000
  As  As9       1.0  0.30800  0.38300  0.75000  1.0000
  As  As10      1.0  0.58700  0.82600  0.75000  1.0000
  As  As11      1.0  0.90200  0.19700  0.88200  1.0000
  As  As12      1.0  0.15800  0.68500  0.92200  1.0000
  Nb  Nb1       1.0  0.00000  0.00000  0.00000  1.0000
  Nb  Nb2       1.0  0.66900  0.66200  0.02850  1.0000
  Nb  Nb3       1.0  0.46600  0.06730  0.11900  1.0000
  Nb  Nb4       1.0  0.26200  0.47500  0.16200  1.0000
  Nb  Nb5       1.0  0.05320  0.89400  0.25000  1.0000
  Nb  Nb6       1.0  0.26200  0.47500  0.33800  1.0000
  Nb  Nb7       1.0  0.46600  0.06730  0.38100  1.0000
  Nb  Nb8       1.0  0.66900  0.66200  0.47100  1.0000
  Nb  Nb9       1.0  0.00000  0.00000  0.50000  1.0000
  Nb  Nb10      1.0  0.33100  0.33800  0.52900  1.0000
  Nb  Nb11      1.0  0.53400  0.93300  0.61900  1.0000
  Nb  Nb12      1.0  0.73800  0.52500  0.66200  1.0000
  Nb  Nb13      1.0  0.94700  0.10600  0.75000  1.0000
  Nb  Nb14      1.0  0.73800  0.52500  0.83800  1.0000
  Nb  Nb15      1.0  0.53400  0.93300  0.88100  1.0000
  Nb  Nb16      1.0  0.33100  0.33800  0.97100  1.0000
