data_image0
_chemical_formula_structural       CoH8O14P2V2
_chemical_formula_sum              "Co1 H8 O14 P2 V2"
_cell_length_a       6.2393
_cell_length_b       6.2393
_cell_length_c       7.90114
_cell_angle_alpha    113.256
_cell_angle_beta     113.256
_cell_angle_gamma    90

_space_group_name_H-M_alt    "P 1"
_space_group_IT_number       1

loop_
  _space_group_symop_operation_xyz
  'x, y, z'

loop_
  _atom_site_type_symbol
  _atom_site_label
  _atom_site_symmetry_multiplicity
  _atom_site_fract_x
  _atom_site_fract_y
  _atom_site_fract_z
  _atom_site_occupancy
  Co  Co1       1.0  0.00000  0.00000  0.00000  1.0000
  H   H1        1.0  0.41500  0.23900  0.12300  1.0000
  H   H2        1.0  0.23900  0.70800  0.12300  1.0000
  H   H3        1.0  0.88400  0.41500  0.12300  1.0000
  H   H4        1.0  0.70800  0.88400  0.12300  1.0000
  H   H5        1.0  0.29200  0.11600  0.87700  1.0000
  H   H6        1.0  0.11600  0.58500  0.87700  1.0000
  H   H7        1.0  0.76100  0.29200  0.87700  1.0000
  H   H8        1.0  0.58500  0.76100  0.87700  1.0000
  O   O1        1.0  0.26300  0.19500  0.00000  1.0000
  O   O2        1.0  0.19500  0.73700  0.00000  1.0000
  O   O3        1.0  0.80500  0.26300  0.00000  1.0000
  O   O4        1.0  0.73700  0.80500  0.00000  1.0000
  O   O5        1.0  0.15700  0.15700  0.31300  1.0000
  O   O6        1.0  0.64900  0.37300  0.35700  1.0000
  O   O7        1.0  0.37300  0.70800  0.35700  1.0000
  O   O8        1.0  0.98400  0.64900  0.35700  1.0000
  O   O9        1.0  0.70800  0.98400  0.35700  1.0000
  O   O10       1.0  0.29200  0.01610  0.64300  1.0000
  O   O11       1.0  0.01610  0.35100  0.64300  1.0000
  O   O12       1.0  0.62700  0.29200  0.64300  1.0000
  O   O13       1.0  0.35100  0.62700  0.64300  1.0000
  O   O14       1.0  0.84300  0.84300  0.68700  1.0000
  P   P1        1.0  0.75000  0.25000  0.50000  1.0000
  P   P2        1.0  0.25000  0.75000  0.50000  1.0000
  V   V1        1.0  0.71900  0.71900  0.43700  1.0000
  V   V2        1.0  0.28100  0.28100  0.56300  1.0000
