data_image0
_chemical_formula_structural       F18Li3Mn3Ti3
_chemical_formula_sum              "F18 Li3 Mn3 Ti3"
_cell_length_a       8.53928
_cell_length_b       8.53762
_cell_length_c       4.6047
_cell_angle_alpha    90
_cell_angle_beta     90.0388
_cell_angle_gamma    119.994

_space_group_name_H-M_alt    "P 1"
_space_group_IT_number       1

loop_
  _space_group_symop_operation_xyz
  'x, y, z'

loop_
  _atom_site_type_symbol
  _atom_site_label
  _atom_site_symmetry_multiplicity
  _atom_site_fract_x
  _atom_site_fract_y
  _atom_site_fract_z
  _atom_site_occupancy
  F   F1        1.0  0.88400  0.10200  0.24100  1.0000
  F   F2        1.0  0.89800  0.78200  0.24100  1.0000
  F   F3        1.0  0.21800  0.11600  0.24200  1.0000
  F   F4        1.0  0.55500  0.77200  0.24700  1.0000
  F   F5        1.0  0.22800  0.78300  0.24800  1.0000
  F   F6        1.0  0.21700  0.44500  0.24800  1.0000
  F   F7        1.0  0.88200  0.42300  0.27700  1.0000
  F   F8        1.0  0.57700  0.45900  0.27800  1.0000
  F   F9        1.0  0.54000  0.11700  0.27800  1.0000
  F   F10       1.0  0.46000  0.57700  0.72200  1.0000
  F   F11       1.0  0.42300  0.88300  0.72200  1.0000
  F   F12       1.0  0.11800  0.54100  0.72300  1.0000
  F   F13       1.0  0.78300  0.22800  0.75200  1.0000
  F   F14       1.0  0.77200  0.55500  0.75200  1.0000
  F   F15       1.0  0.44500  0.21700  0.75300  1.0000
  F   F16       1.0  0.78200  0.89800  0.75800  1.0000
  F   F17       1.0  0.10200  0.88400  0.75900  1.0000
  F   F18       1.0  0.11600  0.21800  0.75900  1.0000
  Li  Li1       1.0  0.00000  0.00012  0.00000  1.0000
  Li  Li2       1.0  0.33300  0.66600  0.47600  1.0000
  Li  Li3       1.0  0.66700  0.33300  0.52400  1.0000
  Mn  Mn1       1.0  0.00000  0.63900  0.00000  1.0000
  Mn  Mn2       1.0  0.63900  0.00011  0.00014  1.0000
  Mn  Mn3       1.0  0.36100  0.36100  0.00000  1.0000
  Ti  Ti1       1.0  0.69000  0.69000  0.50000  1.0000
  Ti  Ti2       1.0  0.00000  0.31000  0.50000  1.0000
  Ti  Ti3       1.0  0.31000  0.00000  0.50000  1.0000
