data_image0
_chemical_formula_structural       As4Pb9S15
_chemical_formula_sum              "As4 Pb9 S15"
_cell_length_a       7.82957
_cell_length_b       10.759
_cell_length_c       10.759
_cell_angle_alpha    114.314
_cell_angle_beta     104.039
_cell_angle_gamma    104.039

_space_group_name_H-M_alt    "P 1"
_space_group_IT_number       1

loop_
  _space_group_symop_operation_xyz
  'x, y, z'

loop_
  _atom_site_type_symbol
  _atom_site_label
  _atom_site_symmetry_multiplicity
  _atom_site_fract_x
  _atom_site_fract_y
  _atom_site_fract_z
  _atom_site_occupancy
  As  As1       1.0  0.05540  0.00000  0.00000  1.0000
  As  As2       1.0  0.40600  0.56500  0.00000  1.0000
  As  As3       1.0  0.84100  0.43500  0.43500  1.0000
  As  As4       1.0  0.40600  0.00000  0.56500  1.0000
  Pb  Pb1       1.0  0.59700  0.26300  0.00000  1.0000
  Pb  Pb2       1.0  0.97800  0.73500  0.20400  1.0000
  Pb  Pb3       1.0  0.59700  0.00000  0.26300  1.0000
  Pb  Pb4       1.0  0.24300  0.46900  0.26500  1.0000
  Pb  Pb5       1.0  0.24300  0.26500  0.46900  1.0000
  Pb  Pb6       1.0  0.77400  0.79600  0.53100  1.0000
  Pb  Pb7       1.0  0.97800  0.20400  0.73500  1.0000
  Pb  Pb8       1.0  0.33400  0.73700  0.73700  1.0000
  Pb  Pb9       1.0  0.77400  0.53100  0.79600  1.0000
  S   S1        1.0  0.92400  0.44600  0.00000  1.0000
  S   S2        1.0  0.63100  0.74400  0.00000  1.0000
  S   S3        1.0  0.13000  0.80600  0.00000  1.0000
  S   S4        1.0  0.58700  0.54700  0.19200  1.0000
  S   S5        1.0  0.32400  0.19400  0.19400  1.0000
  S   S6        1.0  0.88700  0.25600  0.25600  1.0000
  S   S7        1.0  0.39500  0.80800  0.35500  1.0000
  S   S8        1.0  0.92400  0.00000  0.44600  1.0000
  S   S9        1.0  0.03970  0.64500  0.45300  1.0000
  S   S10       1.0  0.58700  0.19200  0.54700  1.0000
  S   S11       1.0  0.47800  0.55400  0.55400  1.0000
  S   S12       1.0  0.03970  0.45300  0.64500  1.0000
  S   S13       1.0  0.63100  0.00000  0.74400  1.0000
  S   S14       1.0  0.13000  0.00000  0.80600  1.0000
  S   S15       1.0  0.39500  0.35500  0.80800  1.0000
