data_image0
_chemical_formula_structural       Ho10Si17
_chemical_formula_sum              "Ho10 Si17"
_cell_length_a       6.65925
_cell_length_b       8.2511
_cell_length_c       10.9301
_cell_angle_alpha    112.176
_cell_angle_beta     107.736
_cell_angle_gamma    90

_space_group_name_H-M_alt    "P 1"
_space_group_IT_number       1

loop_
  _space_group_symop_operation_xyz
  'x, y, z'

loop_
  _atom_site_type_symbol
  _atom_site_label
  _atom_site_symmetry_multiplicity
  _atom_site_fract_x
  _atom_site_fract_y
  _atom_site_fract_z
  _atom_site_occupancy
  Ho  Ho1       1.0  0.23900  0.24400  0.00000  1.0000
  Ho  Ho2       1.0  0.23900  0.75600  0.00000  1.0000
  Ho  Ho3       1.0  0.83200  0.35300  0.20100  1.0000
  Ho  Ho4       1.0  0.83200  0.84800  0.20100  1.0000
  Ho  Ho5       1.0  0.43600  0.45200  0.39900  1.0000
  Ho  Ho6       1.0  0.43600  0.94800  0.39900  1.0000
  Ho  Ho7       1.0  0.03640  0.05230  0.60100  1.0000
  Ho  Ho8       1.0  0.03640  0.54800  0.60100  1.0000
  Ho  Ho9       1.0  0.63100  0.15200  0.79900  1.0000
  Ho  Ho10      1.0  0.63100  0.64700  0.79900  1.0000
  Si  Si1       1.0  0.56900  0.00000  0.00000  1.0000
  Si  Si2       1.0  0.92000  0.00000  0.00000  1.0000
  Si  Si3       1.0  0.61300  0.50000  0.00000  1.0000
  Si  Si4       1.0  0.12300  0.58100  0.16300  1.0000
  Si  Si5       1.0  0.49800  0.60000  0.20100  1.0000
  Si  Si6       1.0  0.49400  0.10500  0.20900  1.0000
  Si  Si7       1.0  0.15400  0.12200  0.24400  1.0000
  Si  Si8       1.0  0.82400  0.19900  0.39800  1.0000
  Si  Si9       1.0  0.10200  0.70000  0.39900  1.0000
  Si  Si10      1.0  0.75800  0.71600  0.43200  1.0000
  Si  Si11      1.0  0.32600  0.28400  0.56800  1.0000
  Si  Si12      1.0  0.70300  0.30000  0.60100  1.0000
  Si  Si13      1.0  0.42600  0.80100  0.60200  1.0000
  Si  Si14      1.0  0.91000  0.87800  0.75600  1.0000
  Si  Si15      1.0  0.28500  0.89500  0.79100  1.0000
  Si  Si16      1.0  0.29800  0.40000  0.79900  1.0000
  Si  Si17      1.0  0.96000  0.41900  0.83700  1.0000
