data_image0
_chemical_formula_structural       Bi10I2O14
_chemical_formula_sum              "Bi10 I2 O14"
_cell_length_a       4.23844
_cell_length_b       9.36001
_cell_length_c       13.1809
_cell_angle_alpha    106.97
_cell_angle_beta     90
_cell_angle_gamma    103.086

_space_group_name_H-M_alt    "P 1"
_space_group_IT_number       1

loop_
  _space_group_symop_operation_xyz
  'x, y, z'

loop_
  _atom_site_type_symbol
  _atom_site_label
  _atom_site_symmetry_multiplicity
  _atom_site_fract_x
  _atom_site_fract_y
  _atom_site_fract_z
  _atom_site_occupancy
  Bi  Bi1       1.0  0.59900  0.19800  0.11900  1.0000
  Bi  Bi2       1.0  0.26100  0.52300  0.12800  1.0000
  Bi  Bi3       1.0  0.52500  0.04950  0.35800  1.0000
  Bi  Bi4       1.0  0.20300  0.40600  0.36600  1.0000
  Bi  Bi5       1.0  0.87900  0.75800  0.41000  1.0000
  Bi  Bi6       1.0  0.12100  0.24200  0.59000  1.0000
  Bi  Bi7       1.0  0.79700  0.59400  0.63400  1.0000
  Bi  Bi8       1.0  0.47500  0.95000  0.64200  1.0000
  Bi  Bi9       1.0  0.73900  0.47700  0.87200  1.0000
  Bi  Bi10      1.0  0.40100  0.80200  0.88100  1.0000
  I   I1        1.0  0.92700  0.85500  0.12500  1.0000
  I   I2        1.0  0.07260  0.14500  0.87500  1.0000
  O   O1        1.0  0.71400  0.42800  0.10600  1.0000
  O   O2        1.0  0.14700  0.29400  0.16200  1.0000
  O   O3        1.0  0.62200  0.24400  0.29100  1.0000
  O   O4        1.0  0.30400  0.60700  0.29400  1.0000
  O   O5        1.0  0.06480  0.13000  0.40800  1.0000
  O   O6        1.0  0.77100  0.54200  0.43800  1.0000
  O   O7        1.0  0.41300  0.82600  0.47600  1.0000
  O   O8        1.0  0.58700  0.17400  0.52400  1.0000
  O   O9        1.0  0.22900  0.45800  0.56200  1.0000
  O   O10       1.0  0.93500  0.87000  0.59200  1.0000
  O   O11       1.0  0.69600  0.39300  0.70600  1.0000
  O   O12       1.0  0.37800  0.75600  0.70900  1.0000
  O   O13       1.0  0.85300  0.70600  0.83800  1.0000
  O   O14       1.0  0.28600  0.57200  0.89400  1.0000
