data_image0
_chemical_formula_structural       O18Sc6Te3
_chemical_formula_sum              "O18 Sc6 Te3"
_cell_length_a       8.75755
_cell_length_b       8.75759
_cell_length_c       4.79669
_cell_angle_alpha    90
_cell_angle_beta     90
_cell_angle_gamma    120

_space_group_name_H-M_alt    "P 1"
_space_group_IT_number       1

loop_
  _space_group_symop_operation_xyz
  'x, y, z'

loop_
  _atom_site_type_symbol
  _atom_site_label
  _atom_site_symmetry_multiplicity
  _atom_site_fract_x
  _atom_site_fract_y
  _atom_site_fract_z
  _atom_site_occupancy
  O   O1        1.0  0.87800  0.08870  0.22200  1.0000
  O   O2        1.0  0.21100  0.12200  0.22200  1.0000
  O   O3        1.0  0.91100  0.78900  0.22200  1.0000
  O   O4        1.0  0.58200  0.45900  0.27100  1.0000
  O   O5        1.0  0.54100  0.12300  0.27100  1.0000
  O   O6        1.0  0.87700  0.41800  0.27100  1.0000
  O   O7        1.0  0.22300  0.76800  0.27600  1.0000
  O   O8        1.0  0.54500  0.77700  0.27600  1.0000
  O   O9        1.0  0.23200  0.45500  0.27600  1.0000
  O   O10       1.0  0.76800  0.22300  0.72400  1.0000
  O   O11       1.0  0.77700  0.54500  0.72400  1.0000
  O   O12       1.0  0.45500  0.23200  0.72400  1.0000
  O   O13       1.0  0.41800  0.87700  0.72900  1.0000
  O   O14       1.0  0.12300  0.54100  0.72900  1.0000
  O   O15       1.0  0.45900  0.58200  0.72900  1.0000
  O   O16       1.0  0.08870  0.87800  0.77800  1.0000
  O   O17       1.0  0.78900  0.91100  0.77800  1.0000
  O   O18       1.0  0.12200  0.21100  0.77800  1.0000
  Sc  Sc1       1.0  0.62800  0.00000  0.00000  1.0000
  Sc  Sc2       1.0  0.37200  0.37200  0.00000  1.0000
  Sc  Sc3       1.0  1.00000  0.62800  0.00000  1.0000
  Sc  Sc4       1.0  0.29200  0.00000  0.50000  1.0000
  Sc  Sc5       1.0  0.00000  0.29200  0.50000  1.0000
  Sc  Sc6       1.0  0.70800  0.70800  0.50000  1.0000
  Te  Te1       1.0  0.00000  0.00000  0.00000  1.0000
  Te  Te2       1.0  0.66700  0.33300  0.49800  1.0000
  Te  Te3       1.0  0.33300  0.66700  0.50200  1.0000
