data_image0
_chemical_formula_structural       Ag6Cl18Re3
_chemical_formula_sum              "Ag6 Cl18 Re3"
_cell_length_a       6.61566
_cell_length_b       6.61588
_cell_length_c       17.0396
_cell_angle_alpha    90.0039
_cell_angle_beta     89.9981
_cell_angle_gamma    119.995

_space_group_name_H-M_alt    "P 1"
_space_group_IT_number       1

loop_
  _space_group_symop_operation_xyz
  'x, y, z'

loop_
  _atom_site_type_symbol
  _atom_site_label
  _atom_site_symmetry_multiplicity
  _atom_site_fract_x
  _atom_site_fract_y
  _atom_site_fract_z
  _atom_site_occupancy
  Ag  Ag1       1.0  0.66700  0.33300  0.09840  1.0000
  Ag  Ag2       1.0  0.00000  0.00000  0.23500  1.0000
  Ag  Ag3       1.0  0.33300  0.66700  0.43200  1.0000
  Ag  Ag4       1.0  0.66700  0.33300  0.56800  1.0000
  Ag  Ag5       1.0  0.00000  0.00000  0.76500  1.0000
  Ag  Ag6       1.0  0.33300  0.66700  0.90200  1.0000
  Cl  Cl1       1.0  0.06270  0.70800  0.08620  1.0000
  Cl  Cl2       1.0  0.29200  0.35500  0.08630  1.0000
  Cl  Cl3       1.0  0.64500  0.93700  0.08630  1.0000
  Cl  Cl4       1.0  0.60400  0.62600  0.24700  1.0000
  Cl  Cl5       1.0  0.37400  0.97800  0.24700  1.0000
  Cl  Cl6       1.0  0.02190  0.39600  0.24700  1.0000
  Cl  Cl7       1.0  0.31200  0.27100  0.42000  1.0000
  Cl  Cl8       1.0  0.72900  0.04100  0.42000  1.0000
  Cl  Cl9       1.0  0.95900  0.68800  0.42000  1.0000
  Cl  Cl10      1.0  0.04100  0.31100  0.58000  1.0000
  Cl  Cl11      1.0  0.27000  0.95900  0.58000  1.0000
  Cl  Cl12      1.0  0.68900  0.73000  0.58000  1.0000
  Cl  Cl13      1.0  0.97800  0.60400  0.75300  1.0000
  Cl  Cl14      1.0  0.62600  0.02200  0.75300  1.0000
  Cl  Cl15      1.0  0.39600  0.37400  0.75300  1.0000
  Cl  Cl16      1.0  0.35500  0.06290  0.91400  1.0000
  Cl  Cl17      1.0  0.70800  0.64500  0.91400  1.0000
  Cl  Cl18      1.0  0.93700  0.29200  0.91400  1.0000
  Re  Re1       1.0  0.33400  0.66700  0.16700  1.0000
  Re  Re2       1.0  0.00000  0.00000  0.50000  1.0000
  Re  Re3       1.0  0.66600  0.33300  0.83300  1.0000
