data_image0
_chemical_formula_structural       CaH8O14P2V2
_chemical_formula_sum              "Ca1 H8 O14 P2 V2"
_cell_length_a       6.32714
_cell_length_b       6.32917
_cell_length_c       6.48007
_cell_angle_alpha    108.152
_cell_angle_beta     93.1886
_cell_angle_gamma    89.815

_space_group_name_H-M_alt    "P 1"
_space_group_IT_number       1

loop_
  _space_group_symop_operation_xyz
  'x, y, z'

loop_
  _atom_site_type_symbol
  _atom_site_label
  _atom_site_symmetry_multiplicity
  _atom_site_fract_x
  _atom_site_fract_y
  _atom_site_fract_z
  _atom_site_occupancy
  Ca  Ca1       1.0  0.64600  0.90800  0.49100  1.0000
  H   H1        1.0  0.50300  0.30300  0.38700  1.0000
  H   H2        1.0  0.02100  0.09770  0.40400  1.0000
  H   H3        1.0  0.26700  0.62700  0.43400  1.0000
  H   H4        1.0  0.75400  0.45400  0.53300  1.0000
  H   H5        1.0  0.20700  0.87800  0.54100  1.0000
  H   H6        1.0  0.94800  0.62700  0.61700  1.0000
  H   H7        1.0  0.47000  0.37100  0.64800  1.0000
  H   H8        1.0  0.02750  0.16400  0.66500  1.0000
  O   O1        1.0  0.81200  0.74500  0.16400  1.0000
  O   O2        1.0  0.88500  0.12500  0.17200  1.0000
  O   O3        1.0  0.54800  0.41400  0.17800  1.0000
  O   O4        1.0  0.16900  0.46700  0.18800  1.0000
  O   O5        1.0  0.38300  0.91600  0.19400  1.0000
  O   O6        1.0  0.84800  0.55800  0.48900  1.0000
  O   O7        1.0  0.55500  0.27900  0.52500  1.0000
  O   O8        1.0  0.02220  0.03770  0.52900  1.0000
  O   O9        1.0  0.31500  0.76200  0.55700  1.0000
  O   O10       1.0  0.65000  0.87100  0.85300  1.0000
  O   O11       1.0  0.85600  0.33300  0.85500  1.0000
  O   O12       1.0  0.35900  0.51600  0.86200  1.0000
  O   O13       1.0  0.03170  0.80200  0.86800  1.0000
  O   O14       1.0  0.31000  0.14200  0.88300  1.0000
  P   P1        1.0  0.84500  0.88700  0.01280  1.0000
  P   P2        1.0  0.34500  0.38300  0.02580  1.0000
  V   V1        1.0  0.85700  0.42000  0.12100  1.0000
  V   V2        1.0  0.34400  0.84800  0.92700  1.0000
