data_image0
_chemical_formula_structural       Au21Ga6
_chemical_formula_sum              "Au21 Ga6"
_cell_length_a       7.83437
_cell_length_b       7.83437
_cell_length_c       9.01589
_cell_angle_alpha    90
_cell_angle_beta     90
_cell_angle_gamma    120

_space_group_name_H-M_alt    "P 1"
_space_group_IT_number       1

loop_
  _space_group_symop_operation_xyz
  'x, y, z'

loop_
  _atom_site_type_symbol
  _atom_site_label
  _atom_site_symmetry_multiplicity
  _atom_site_fract_x
  _atom_site_fract_y
  _atom_site_fract_z
  _atom_site_occupancy
  Au  Au1       1.0  0.00000  0.00000  0.00000  1.0000
  Au  Au2       1.0  0.36900  0.00000  0.00000  1.0000
  Au  Au3       1.0  0.00000  0.36900  0.00000  1.0000
  Au  Au4       1.0  0.63100  0.63100  0.00000  1.0000
  Au  Au5       1.0  0.68500  0.00000  0.16900  1.0000
  Au  Au6       1.0  0.00000  0.68500  0.16900  1.0000
  Au  Au7       1.0  0.31500  0.31500  0.16900  1.0000
  Au  Au8       1.0  0.64100  0.64100  0.33100  1.0000
  Au  Au9       1.0  0.35900  0.00000  0.33100  1.0000
  Au  Au10      1.0  0.00000  0.35900  0.33100  1.0000
  Au  Au11      1.0  0.72300  0.00000  0.50000  1.0000
  Au  Au12      1.0  0.27700  0.27700  0.50000  1.0000
  Au  Au13      1.0  0.66700  0.33300  0.50000  1.0000
  Au  Au14      1.0  0.33300  0.66700  0.50000  1.0000
  Au  Au15      1.0  1.00000  0.72300  0.50000  1.0000
  Au  Au16      1.0  0.35900  0.00000  0.66900  1.0000
  Au  Au17      1.0  0.00000  0.35900  0.66900  1.0000
  Au  Au18      1.0  0.64100  0.64100  0.66900  1.0000
  Au  Au19      1.0  0.31500  0.31500  0.83100  1.0000
  Au  Au20      1.0  0.68500  0.00000  0.83100  1.0000
  Au  Au21      1.0  0.00000  0.68500  0.83100  1.0000
  Ga  Ga1       1.0  0.66700  0.33300  0.18200  1.0000
  Ga  Ga2       1.0  0.33300  0.66700  0.18200  1.0000
  Ga  Ga3       1.0  0.00000  0.00000  0.30900  1.0000
  Ga  Ga4       1.0  0.00000  0.00000  0.69100  1.0000
  Ga  Ga5       1.0  0.66700  0.33300  0.81800  1.0000
  Ga  Ga6       1.0  0.33300  0.66700  0.81800  1.0000
