data_image0
_chemical_formula_structural       Ag2I6O18Ti
_chemical_formula_sum              "Ag2 I6 O18 Ti1"
_cell_length_a       7.21896
_cell_length_b       7.21893
_cell_length_c       7.21898
_cell_angle_alpha    96.3626
_cell_angle_beta     96.3626
_cell_angle_gamma    96.3614

_space_group_name_H-M_alt    "P 1"
_space_group_IT_number       1

loop_
  _space_group_symop_operation_xyz
  'x, y, z'

loop_
  _atom_site_type_symbol
  _atom_site_label
  _atom_site_symmetry_multiplicity
  _atom_site_fract_x
  _atom_site_fract_y
  _atom_site_fract_z
  _atom_site_occupancy
  Ag  Ag1       1.0  0.32100  0.32100  0.32100  1.0000
  Ag  Ag2       1.0  0.67900  0.67900  0.67900  1.0000
  I   I1        1.0  0.38300  0.78000  0.16100  1.0000
  I   I2        1.0  0.83900  0.61700  0.22000  1.0000
  I   I3        1.0  0.78000  0.16100  0.38300  1.0000
  I   I4        1.0  0.22000  0.83900  0.61700  1.0000
  I   I5        1.0  0.16100  0.38300  0.78000  1.0000
  I   I6        1.0  0.61700  0.22000  0.83900  1.0000
  O   O1        1.0  0.80800  0.81100  0.06360  1.0000
  O   O2        1.0  0.21000  0.56700  0.12600  1.0000
  O   O3        1.0  0.93600  0.19200  0.18900  1.0000
  O   O4        1.0  0.58100  0.55100  0.19100  1.0000
  O   O5        1.0  0.18900  0.93600  0.19200  1.0000
  O   O6        1.0  0.56700  0.12600  0.21000  1.0000
  O   O7        1.0  0.44900  0.80900  0.41900  1.0000
  O   O8        1.0  0.87400  0.79000  0.43300  1.0000
  O   O9        1.0  0.80900  0.41900  0.44900  1.0000
  O   O10       1.0  0.19100  0.58100  0.55100  1.0000
  O   O11       1.0  0.12600  0.21000  0.56700  1.0000
  O   O12       1.0  0.55100  0.19100  0.58100  1.0000
  O   O13       1.0  0.43300  0.87400  0.79000  1.0000
  O   O14       1.0  0.81100  0.06360  0.80800  1.0000
  O   O15       1.0  0.41900  0.44900  0.80900  1.0000
  O   O16       1.0  0.06360  0.80800  0.81100  1.0000
  O   O17       1.0  0.79000  0.43300  0.87400  1.0000
  O   O18       1.0  0.19200  0.18900  0.93600  1.0000
  Ti  Ti1       1.0  0.00000  0.00000  0.00000  1.0000
