data_image0
_chemical_formula_structural       Fe4Mo8S16
_chemical_formula_sum              "Fe4 Mo8 S16"
_cell_length_a       6.38163
_cell_length_b       6.74716
_cell_length_c       11.8046
_cell_angle_alpha    100.344
_cell_angle_beta     105.682
_cell_angle_gamma    61.7765

_space_group_name_H-M_alt    "P 1"
_space_group_IT_number       1

loop_
  _space_group_symop_operation_xyz
  'x, y, z'

loop_
  _atom_site_type_symbol
  _atom_site_label
  _atom_site_symmetry_multiplicity
  _atom_site_fract_x
  _atom_site_fract_y
  _atom_site_fract_z
  _atom_site_occupancy
  Fe  Fe1       1.0  0.05380  0.22400  0.05030  1.0000
  Fe  Fe2       1.0  0.52200  0.22600  0.05050  1.0000
  Fe  Fe3       1.0  0.77300  0.72400  0.55000  1.0000
  Fe  Fe4       1.0  0.30200  0.72600  0.55100  1.0000
  Mo  Mo1       1.0  0.12800  0.78200  0.28900  1.0000
  Mo  Mo2       1.0  0.63100  0.77800  0.29000  1.0000
  Mo  Mo3       1.0  0.20000  0.17000  0.31100  1.0000
  Mo  Mo4       1.0  0.69100  0.16900  0.31100  1.0000
  Mo  Mo5       1.0  0.37800  0.28200  0.78900  1.0000
  Mo  Mo6       1.0  0.88100  0.27800  0.79000  1.0000
  Mo  Mo7       1.0  0.94100  0.67000  0.81100  1.0000
  Mo  Mo8       1.0  0.45100  0.66900  0.81100  1.0000
  S   S1        1.0  0.25400  0.89500  0.14900  1.0000
  S   S2        1.0  0.74900  0.89600  0.14900  1.0000
  S   S3        1.0  0.77500  0.38200  0.18300  1.0000
  S   S4        1.0  0.27500  0.38600  0.18500  1.0000
  S   S5        1.0  0.54800  0.56500  0.41500  1.0000
  S   S6        1.0  0.05200  0.56700  0.41900  1.0000
  S   S7        1.0  0.07320  0.05630  0.45100  1.0000
  S   S8        1.0  0.57400  0.05220  0.45300  1.0000
  S   S9        1.0  0.00000  0.39500  0.64900  1.0000
  S   S10       1.0  0.50400  0.39600  0.64900  1.0000
  S   S11       1.0  0.02570  0.88200  0.68300  1.0000
  S   S12       1.0  0.52500  0.88600  0.68500  1.0000
  S   S13       1.0  0.30100  0.06540  0.91500  1.0000
  S   S14       1.0  0.80000  0.06690  0.91900  1.0000
  S   S15       1.0  0.32100  0.55600  0.95100  1.0000
  S   S16       1.0  0.82700  0.55200  0.95300  1.0000
