data_image0
_chemical_formula_structural       Ga9O2S13Tl3
_chemical_formula_sum              "Ga9 O2 S13 Tl3"
_cell_length_a       9.70594
_cell_length_b       9.70606
_cell_length_c       7.48688
_cell_angle_alpha    90
_cell_angle_beta     90
_cell_angle_gamma    120

_space_group_name_H-M_alt    "P 1"
_space_group_IT_number       1

loop_
  _space_group_symop_operation_xyz
  'x, y, z'

loop_
  _atom_site_type_symbol
  _atom_site_label
  _atom_site_symmetry_multiplicity
  _atom_site_fract_x
  _atom_site_fract_y
  _atom_site_fract_z
  _atom_site_occupancy
  Ga  Ga1       1.0  0.07140  0.45500  0.00000  1.0000
  Ga  Ga2       1.0  0.54500  0.61700  0.00000  1.0000
  Ga  Ga3       1.0  0.38300  0.92900  0.00000  1.0000
  Ga  Ga4       1.0  0.75300  0.19500  0.26500  1.0000
  Ga  Ga5       1.0  0.80500  0.55900  0.26500  1.0000
  Ga  Ga6       1.0  0.44100  0.24700  0.26500  1.0000
  Ga  Ga7       1.0  0.44100  0.24700  0.73500  1.0000
  Ga  Ga8       1.0  0.75300  0.19500  0.73500  1.0000
  Ga  Ga9       1.0  0.80500  0.55900  0.73500  1.0000
  O   O1        1.0  0.66700  0.33300  0.26200  1.0000
  O   O2        1.0  0.66700  0.33300  0.73800  1.0000
  S   S1        1.0  0.66000  0.04260  0.00000  1.0000
  S   S2        1.0  0.38200  0.34000  0.00000  1.0000
  S   S3        1.0  0.95700  0.61800  0.00000  1.0000
  S   S4        1.0  0.33300  0.66700  0.00000  1.0000
  S   S5        1.0  0.02180  0.31600  0.25600  1.0000
  S   S6        1.0  0.29400  0.97800  0.25600  1.0000
  S   S7        1.0  0.68400  0.70600  0.25600  1.0000
  S   S8        1.0  0.66600  0.02590  0.50000  1.0000
  S   S9        1.0  0.36000  0.33400  0.50000  1.0000
  S   S10       1.0  0.97400  0.64000  0.50000  1.0000
  S   S11       1.0  0.68400  0.70600  0.74400  1.0000
  S   S12       1.0  0.29400  0.97800  0.74400  1.0000
  S   S13       1.0  0.02180  0.31600  0.74400  1.0000
  Tl  Tl1       1.0  0.00000  0.00000  0.00000  1.0000
  Tl  Tl2       1.0  0.00000  0.00000  0.50000  1.0000
  Tl  Tl3       1.0  0.33300  0.66700  0.50000  1.0000
