data_image0
_chemical_formula_structural       Ba3Nb2O18P4
_chemical_formula_sum              "Ba3 Nb2 O18 P4"
_cell_length_a       4.87346
_cell_length_b       9.03356
_cell_length_c       9.48047
_cell_angle_alpha    88.912
_cell_angle_beta     78.4459
_cell_angle_gamma    78.6034

_space_group_name_H-M_alt    "P 1"
_space_group_IT_number       1

loop_
  _space_group_symop_operation_xyz
  'x, y, z'

loop_
  _atom_site_type_symbol
  _atom_site_label
  _atom_site_symmetry_multiplicity
  _atom_site_fract_x
  _atom_site_fract_y
  _atom_site_fract_z
  _atom_site_occupancy
  Ba  Ba1       1.0  0.05080  0.71700  0.08630  1.0000
  Ba  Ba2       1.0  0.50000  0.50000  0.50000  1.0000
  Ba  Ba3       1.0  0.94900  0.28300  0.91400  1.0000
  Nb  Nb1       1.0  0.74300  0.10700  0.26900  1.0000
  Nb  Nb2       1.0  0.25700  0.89300  0.73100  1.0000
  O   O1        1.0  0.28500  0.41600  0.06020  1.0000
  O   O2        1.0  0.73000  0.05930  0.08930  1.0000
  O   O3        1.0  0.04450  0.23200  0.20600  1.0000
  O   O4        1.0  0.49700  0.74000  0.25600  1.0000
  O   O5        1.0  0.46100  0.30900  0.28400  1.0000
  O   O6        1.0  0.02420  0.91800  0.30200  1.0000
  O   O7        1.0  0.00840  0.49800  0.31400  1.0000
  O   O8        1.0  0.43300  0.00725  0.36600  1.0000
  O   O9        1.0  0.76500  0.19600  0.48700  1.0000
  O   O10       1.0  0.23500  0.80400  0.51300  1.0000
  O   O11       1.0  0.56700  0.99300  0.63400  1.0000
  O   O12       1.0  0.99200  0.50200  0.68600  1.0000
  O   O13       1.0  0.97600  0.08180  0.69800  1.0000
  O   O14       1.0  0.53900  0.69100  0.71600  1.0000
  O   O15       1.0  0.50300  0.26000  0.74400  1.0000
  O   O16       1.0  0.95600  0.76800  0.79400  1.0000
  O   O17       1.0  0.27000  0.94100  0.91100  1.0000
  O   O18       1.0  0.71500  0.58400  0.94000  1.0000
  P   P1        1.0  0.19400  0.36900  0.21600  1.0000
  P   P2        1.0  0.30800  0.86300  0.36000  1.0000
  P   P3        1.0  0.69200  0.13700  0.64000  1.0000
  P   P4        1.0  0.80600  0.63100  0.78400  1.0000
