data_image0
_chemical_formula_structural       I3S24Sb
_chemical_formula_sum              "I3 S24 Sb1"
_cell_length_a       4.56614
_cell_length_b       14.7386
_cell_length_c       14.7386
_cell_angle_alpha    118.947
_cell_angle_beta     95.9275
_cell_angle_gamma    95.9275

_space_group_name_H-M_alt    "P 1"
_space_group_IT_number       1

loop_
  _space_group_symop_operation_xyz
  'x, y, z'

loop_
  _atom_site_type_symbol
  _atom_site_label
  _atom_site_symmetry_multiplicity
  _atom_site_fract_x
  _atom_site_fract_y
  _atom_site_fract_z
  _atom_site_occupancy
  I   I1        1.0  0.05420  0.16400  0.00000  1.0000
  I   I2        1.0  0.05420  0.00000  0.16400  1.0000
  I   I3        1.0  0.89100  0.83600  0.83600  1.0000
  S   S1        1.0  0.40300  0.40100  0.00000  1.0000
  S   S2        1.0  0.54400  0.72500  0.00000  1.0000
  S   S3        1.0  0.27400  0.51700  0.13200  1.0000
  S   S4        1.0  0.37600  0.74600  0.13300  1.0000
  S   S5        1.0  0.56500  0.65600  0.18700  1.0000
  S   S6        1.0  0.63000  0.38700  0.25400  1.0000
  S   S7        1.0  0.82000  0.27500  0.27500  1.0000
  S   S8        1.0  0.90900  0.53100  0.34400  1.0000
  S   S9        1.0  0.14200  0.86800  0.38500  1.0000
  S   S10       1.0  0.63000  0.25400  0.38700  1.0000
  S   S11       1.0  0.40300  0.00000  0.40100  1.0000
  S   S12       1.0  0.37800  0.81300  0.46900  1.0000
  S   S13       1.0  0.75700  0.61500  0.48300  1.0000
  S   S14       1.0  0.27400  0.13200  0.51700  1.0000
  S   S15       1.0  0.90900  0.34400  0.53100  1.0000
  S   S16       1.0  0.00181  0.59900  0.59900  1.0000
  S   S17       1.0  0.24400  0.86700  0.61300  1.0000
  S   S18       1.0  0.75700  0.48300  0.61500  1.0000
  S   S19       1.0  0.56500  0.18700  0.65600  1.0000
  S   S20       1.0  0.54400  1.00000  0.72500  1.0000
  S   S21       1.0  0.37600  0.13300  0.74600  1.0000
  S   S22       1.0  0.37800  0.46900  0.81300  1.0000
  S   S23       1.0  0.24400  0.61300  0.86700  1.0000
  S   S24       1.0  0.14200  0.38500  0.86800  1.0000
  Sb  Sb1       1.0  0.68700  0.00000  0.00000  1.0000
