data_image0
_chemical_formula_structural       Ba2O18Ru7
_chemical_formula_sum              "Ba2 O18 Ru7"
_cell_length_a       6.75745
_cell_length_b       7.16096
_cell_length_c       7.51621
_cell_angle_alpha    93.0631
_cell_angle_beta     95.1672
_cell_angle_gamma    115.42

_space_group_name_H-M_alt    "P 1"
_space_group_IT_number       1

loop_
  _space_group_symop_operation_xyz
  'x, y, z'

loop_
  _atom_site_type_symbol
  _atom_site_label
  _atom_site_symmetry_multiplicity
  _atom_site_fract_x
  _atom_site_fract_y
  _atom_site_fract_z
  _atom_site_occupancy
  Ba  Ba1       1.0  0.68200  0.31300  0.37600  1.0000
  Ba  Ba2       1.0  0.31800  0.68700  0.62400  1.0000
  O   O1        1.0  0.68000  0.48700  0.01750  1.0000
  O   O2        1.0  0.91300  0.23000  0.05280  1.0000
  O   O3        1.0  0.29000  0.17100  0.11800  1.0000
  O   O4        1.0  0.49400  0.91300  0.16700  1.0000
  O   O5        1.0  0.90700  0.87300  0.24700  1.0000
  O   O6        1.0  0.09270  0.60000  0.27100  1.0000
  O   O7        1.0  0.47900  0.55900  0.31000  1.0000
  O   O8        1.0  0.08600  0.27300  0.42400  1.0000
  O   O9        1.0  0.27900  0.99900  0.43400  1.0000
  O   O10       1.0  0.72100  0.00108  0.56600  1.0000
  O   O11       1.0  0.91400  0.72700  0.57600  1.0000
  O   O12       1.0  0.52100  0.44100  0.69000  1.0000
  O   O13       1.0  0.90700  0.40000  0.72900  1.0000
  O   O14       1.0  0.09320  0.12700  0.75300  1.0000
  O   O15       1.0  0.50600  0.08660  0.83300  1.0000
  O   O16       1.0  0.71000  0.82900  0.88200  1.0000
  O   O17       1.0  0.08730  0.77000  0.94700  1.0000
  O   O18       1.0  0.32000  0.51300  0.98200  1.0000
  Ru  Ru1       1.0  0.61300  0.72500  0.11500  1.0000
  Ru  Ru2       1.0  0.20000  0.87700  0.18500  1.0000
  Ru  Ru3       1.0  0.17600  0.38300  0.20100  1.0000
  Ru  Ru4       1.0  0.00000  0.00000  0.50000  1.0000
  Ru  Ru5       1.0  0.82400  0.61700  0.79900  1.0000
  Ru  Ru6       1.0  0.80000  0.12300  0.81500  1.0000
  Ru  Ru7       1.0  0.38600  0.27500  0.88500  1.0000
