data_image0
_chemical_formula_structural       Ba2O18Si6Ti2
_chemical_formula_sum              "Ba2 O18 Si6 Ti2"
_cell_length_a       6.63231
_cell_length_b       6.63233
_cell_length_c       9.80217
_cell_angle_alpha    90
_cell_angle_beta     90
_cell_angle_gamma    120

_space_group_name_H-M_alt    "P 1"
_space_group_IT_number       1

loop_
  _space_group_symop_operation_xyz
  'x, y, z'

loop_
  _atom_site_type_symbol
  _atom_site_label
  _atom_site_symmetry_multiplicity
  _atom_site_fract_x
  _atom_site_fract_y
  _atom_site_fract_z
  _atom_site_occupancy
  Ba  Ba1       1.0  0.66700  0.33300  0.00000  1.0000
  Ba  Ba2       1.0  0.66700  0.33300  0.50000  1.0000
  O   O1        1.0  0.08360  0.43000  0.11200  1.0000
  O   O2        1.0  0.57000  0.65400  0.11200  1.0000
  O   O3        1.0  0.34600  0.91600  0.11200  1.0000
  O   O4        1.0  0.80300  0.06030  0.25000  1.0000
  O   O5        1.0  0.25800  0.19700  0.25000  1.0000
  O   O6        1.0  0.94000  0.74200  0.25000  1.0000
  O   O7        1.0  0.34600  0.91600  0.38800  1.0000
  O   O8        1.0  0.57000  0.65400  0.38800  1.0000
  O   O9        1.0  0.08360  0.43000  0.38800  1.0000
  O   O10       1.0  0.34600  0.43000  0.61200  1.0000
  O   O11       1.0  0.08360  0.65400  0.61200  1.0000
  O   O12       1.0  0.57000  0.91600  0.61200  1.0000
  O   O13       1.0  0.25800  0.06030  0.75000  1.0000
  O   O14       1.0  0.94000  0.19700  0.75000  1.0000
  O   O15       1.0  0.80300  0.74200  0.75000  1.0000
  O   O16       1.0  0.34600  0.43000  0.88800  1.0000
  O   O17       1.0  0.08360  0.65400  0.88800  1.0000
  O   O18       1.0  0.57000  0.91600  0.88800  1.0000
  Si  Si1       1.0  0.06880  0.28900  0.25000  1.0000
  Si  Si2       1.0  0.71100  0.78000  0.25000  1.0000
  Si  Si3       1.0  0.22000  0.93100  0.25000  1.0000
  Si  Si4       1.0  0.22000  0.28900  0.75000  1.0000
  Si  Si5       1.0  0.06880  0.78000  0.75000  1.0000
  Si  Si6       1.0  0.71100  0.93100  0.75000  1.0000
  Ti  Ti1       1.0  0.33300  0.66700  0.00000  1.0000
  Ti  Ti2       1.0  0.33300  0.66700  0.50000  1.0000
