data_image0
_chemical_formula_structural       Be4F16Na8
_chemical_formula_sum              "Be4 F16 Na8"
_cell_length_a       4.77935
_cell_length_b       10.484
_cell_length_c       6.35459
_cell_angle_alpha    90
_cell_angle_beta     90
_cell_angle_gamma    90

_space_group_name_H-M_alt    "P 1"
_space_group_IT_number       1

loop_
  _space_group_symop_operation_xyz
  'x, y, z'

loop_
  _atom_site_type_symbol
  _atom_site_label
  _atom_site_symmetry_multiplicity
  _atom_site_fract_x
  _atom_site_fract_y
  _atom_site_fract_z
  _atom_site_occupancy
  Be  Be1       1.0  0.42800  0.09710  0.25000  1.0000
  Be  Be2       1.0  0.07150  0.59700  0.25000  1.0000
  Be  Be3       1.0  0.92800  0.40300  0.75000  1.0000
  Be  Be4       1.0  0.57200  0.90300  0.75000  1.0000
  F   F1        1.0  0.30200  0.16500  0.05340  1.0000
  F   F2        1.0  0.19800  0.66500  0.05340  1.0000
  F   F3        1.0  0.74900  0.09330  0.25000  1.0000
  F   F4        1.0  0.19600  0.45900  0.25000  1.0000
  F   F5        1.0  0.75100  0.59300  0.25000  1.0000
  F   F6        1.0  0.30400  0.95900  0.25000  1.0000
  F   F7        1.0  0.30200  0.16500  0.44700  1.0000
  F   F8        1.0  0.19800  0.66500  0.44700  1.0000
  F   F9        1.0  0.80200  0.33500  0.55300  1.0000
  F   F10       1.0  0.69800  0.83500  0.55300  1.0000
  F   F11       1.0  0.69600  0.04150  0.75000  1.0000
  F   F12       1.0  0.24900  0.40700  0.75000  1.0000
  F   F13       1.0  0.80400  0.54100  0.75000  1.0000
  F   F14       1.0  0.25100  0.90700  0.75000  1.0000
  F   F15       1.0  0.80200  0.33500  0.94700  1.0000
  F   F16       1.0  0.69800  0.83500  0.94700  1.0000
  Na  Na1       1.0  0.00000  0.00000  0.00000  1.0000
  Na  Na2       1.0  0.50000  0.50000  0.00000  1.0000
  Na  Na3       1.0  0.98300  0.27800  0.25000  1.0000
  Na  Na4       1.0  0.51700  0.77800  0.25000  1.0000
  Na  Na5       1.0  0.00000  0.00000  0.50000  1.0000
  Na  Na6       1.0  0.50000  0.50000  0.50000  1.0000
  Na  Na7       1.0  0.48300  0.22200  0.75000  1.0000
  Na  Na8       1.0  0.01690  0.72200  0.75000  1.0000
