data_image0
_chemical_formula_structural       B6Eu9N12
_chemical_formula_sum              "B6 Eu9 N12"
_cell_length_a       7.40514
_cell_length_b       7.40514
_cell_length_c       7.40514
_cell_angle_alpha    90
_cell_angle_beta     90
_cell_angle_gamma    90

_space_group_name_H-M_alt    "P 1"
_space_group_IT_number       1

loop_
  _space_group_symop_operation_xyz
  'x, y, z'

loop_
  _atom_site_type_symbol
  _atom_site_label
  _atom_site_symmetry_multiplicity
  _atom_site_fract_x
  _atom_site_fract_y
  _atom_site_fract_z
  _atom_site_occupancy
  B   B1        1.0  0.50000  0.00000  0.00000  1.0000
  B   B2        1.0  0.00000  0.50000  0.00000  1.0000
  B   B3        1.0  0.50000  0.50000  0.00000  1.0000
  B   B4        1.0  0.00000  0.00000  0.50000  1.0000
  B   B5        1.0  0.50000  0.00000  0.50000  1.0000
  B   B6        1.0  0.00000  0.50000  0.50000  1.0000
  Eu  Eu1       1.0  0.00000  0.00000  0.00000  1.0000
  Eu  Eu2       1.0  0.26200  0.26200  0.26200  1.0000
  Eu  Eu3       1.0  0.73800  0.26200  0.26200  1.0000
  Eu  Eu4       1.0  0.26200  0.73800  0.26200  1.0000
  Eu  Eu5       1.0  0.73800  0.73800  0.26200  1.0000
  Eu  Eu6       1.0  0.26200  0.26200  0.73800  1.0000
  Eu  Eu7       1.0  0.73800  0.26200  0.73800  1.0000
  Eu  Eu8       1.0  0.26200  0.73800  0.73800  1.0000
  Eu  Eu9       1.0  0.73800  0.73800  0.73800  1.0000
  N   N1        1.0  0.32000  0.00000  0.00000  1.0000
  N   N2        1.0  0.68000  0.00000  0.00000  1.0000
  N   N3        1.0  0.00000  0.32000  0.00000  1.0000
  N   N4        1.0  0.00000  0.68000  0.00000  1.0000
  N   N5        1.0  0.50000  0.50000  0.18100  1.0000
  N   N6        1.0  0.00000  0.00000  0.32000  1.0000
  N   N7        1.0  0.50000  0.18100  0.50000  1.0000
  N   N8        1.0  0.18100  0.50000  0.50000  1.0000
  N   N9        1.0  0.81900  0.50000  0.50000  1.0000
  N   N10       1.0  0.50000  0.81900  0.50000  1.0000
  N   N11       1.0  0.00000  0.00000  0.68000  1.0000
  N   N12       1.0  0.50000  0.50000  0.81900  1.0000
