data_image0
_chemical_formula_structural       K2Mn2O15Si4Zn4
_chemical_formula_sum              "K2 Mn2 O15 Si4 Zn4"
_cell_length_a       5.18791
_cell_length_b       9.09926
_cell_length_c       9.45134
_cell_angle_alpha    118.775
_cell_angle_beta     105.929
_cell_angle_gamma    90

_space_group_name_H-M_alt    "P 1"
_space_group_IT_number       1

loop_
  _space_group_symop_operation_xyz
  'x, y, z'

loop_
  _atom_site_type_symbol
  _atom_site_label
  _atom_site_symmetry_multiplicity
  _atom_site_fract_x
  _atom_site_fract_y
  _atom_site_fract_z
  _atom_site_occupancy
  K   K1        1.0  0.67100  0.61900  0.23700  1.0000
  K   K2        1.0  0.43400  0.38100  0.76300  1.0000
  Mn  Mn1       1.0  0.60900  0.15900  0.00000  1.0000
  Mn  Mn2       1.0  0.60900  0.84100  0.00000  1.0000
  O   O1        1.0  0.36300  0.32800  0.00000  1.0000
  O   O2        1.0  0.94800  0.50000  0.00000  1.0000
  O   O3        1.0  0.36300  0.67200  0.00000  1.0000
  O   O4        1.0  0.99300  0.33200  0.16200  1.0000
  O   O5        1.0  0.99300  0.83000  0.16200  1.0000
  O   O6        1.0  0.63400  0.09360  0.18700  1.0000
  O   O7        1.0  0.39700  0.21700  0.43400  1.0000
  O   O8        1.0  0.86800  0.09220  0.47900  1.0000
  O   O9        1.0  0.86800  0.38600  0.47900  1.0000
  O   O10       1.0  0.38900  0.61400  0.52100  1.0000
  O   O11       1.0  0.38900  0.90800  0.52100  1.0000
  O   O12       1.0  0.96300  0.78300  0.56600  1.0000
  O   O13       1.0  0.44700  0.90600  0.81300  1.0000
  O   O14       1.0  0.83100  0.17000  0.83800  1.0000
  O   O15       1.0  0.83100  0.66800  0.83800  1.0000
  Si  Si1       1.0  0.05510  0.32900  0.00000  1.0000
  Si  Si2       1.0  0.05510  0.67100  0.00000  1.0000
  Si  Si3       1.0  0.68900  0.19500  0.39100  1.0000
  Si  Si4       1.0  0.29900  0.80500  0.60900  1.0000
  Zn  Zn1       1.0  0.17700  0.00585  0.38700  1.0000
  Zn  Zn2       1.0  0.17700  0.38100  0.38700  1.0000
  Zn  Zn3       1.0  0.79000  0.61900  0.61300  1.0000
  Zn  Zn4       1.0  0.79000  0.99400  0.61300  1.0000
