data_image0
_chemical_formula_structural       Bi4Cu2O8
_chemical_formula_sum              "Bi4 Cu2 O8"
_cell_length_a       5.51573
_cell_length_b       6.71614
_cell_length_c       6.71614
_cell_angle_alpha    99.7075
_cell_angle_beta     65.7554
_cell_angle_gamma    114.245

_space_group_name_H-M_alt    "P 1"
_space_group_IT_number       1

loop_
  _space_group_symop_operation_xyz
  'x, y, z'

loop_
  _atom_site_type_symbol
  _atom_site_label
  _atom_site_symmetry_multiplicity
  _atom_site_fract_x
  _atom_site_fract_y
  _atom_site_fract_z
  _atom_site_occupancy
  Bi  Bi1       1.0  0.67200  0.50000  0.16800  1.0000
  Bi  Bi2       1.0  0.17300  0.83200  0.50000  1.0000
  Bi  Bi3       1.0  0.84000  0.16800  0.50000  1.0000
  Bi  Bi4       1.0  0.34100  0.50000  0.83200  1.0000
  Cu  Cu1       1.0  0.32300  0.00000  0.00000  1.0000
  Cu  Cu2       1.0  0.82000  0.00000  0.00000  1.0000
  O   O1        1.0  0.93800  0.29600  0.09860  1.0000
  O   O2        1.0  0.14200  0.70400  0.10100  1.0000
  O   O3        1.0  0.64200  0.90100  0.29600  1.0000
  O   O4        1.0  0.24400  0.10100  0.29600  1.0000
  O   O5        1.0  0.43900  0.89900  0.70400  1.0000
  O   O6        1.0  0.03680  0.09860  0.70400  1.0000
  O   O7        1.0  0.54000  0.29600  0.89900  1.0000
  O   O8        1.0  0.74100  0.70400  0.90100  1.0000
