data_image0
_chemical_formula_structural       Ta3Te6
_chemical_formula_sum              "Ta3 Te6"
_cell_length_a       3.65769
_cell_length_b       7.76655
_cell_length_c       9.52306
_cell_angle_alpha    111.065
_cell_angle_beta     90
_cell_angle_gamma    103.62

_space_group_name_H-M_alt    "P 1"
_space_group_IT_number       1

loop_
  _space_group_symop_operation_xyz
  'x, y, z'

loop_
  _atom_site_type_symbol
  _atom_site_label
  _atom_site_symmetry_multiplicity
  _atom_site_fract_x
  _atom_site_fract_y
  _atom_site_fract_z
  _atom_site_occupancy
  Ta  Ta1       1.0  0.00000  0.00000  0.00000  1.0000
  Ta  Ta2       1.0  0.63800  0.27700  0.28800  1.0000
  Ta  Ta3       1.0  0.36200  0.72300  0.71200  1.0000
  Te  Te1       1.0  0.64700  0.29300  0.01150  1.0000
  Te  Te2       1.0  0.00627  0.01250  0.30700  1.0000
  Te  Te3       1.0  0.29400  0.58900  0.38200  1.0000
  Te  Te4       1.0  0.70600  0.41100  0.61800  1.0000
  Te  Te5       1.0  0.99400  0.98700  0.69300  1.0000
  Te  Te6       1.0  0.35300  0.70700  0.98800  1.0000
