data_image0
_chemical_formula_structural       Mn8O16Ti4
_chemical_formula_sum              "Mn8 O16 Ti4"
_cell_length_a       6.17683
_cell_length_b       6.17683
_cell_length_c       8.58933
_cell_angle_alpha    90
_cell_angle_beta     90
_cell_angle_gamma    90

_space_group_name_H-M_alt    "P 1"
_space_group_IT_number       1

loop_
  _space_group_symop_operation_xyz
  'x, y, z'

loop_
  _atom_site_type_symbol
  _atom_site_label
  _atom_site_symmetry_multiplicity
  _atom_site_fract_x
  _atom_site_fract_y
  _atom_site_fract_z
  _atom_site_occupancy
  Mn  Mn1       1.0  0.00000  0.25600  0.00000  1.0000
  Mn  Mn2       1.0  0.75000  0.75000  0.12500  1.0000
  Mn  Mn3       1.0  0.25600  0.00000  0.25000  1.0000
  Mn  Mn4       1.0  0.75000  0.25000  0.37500  1.0000
  Mn  Mn5       1.0  0.00000  0.74400  0.50000  1.0000
  Mn  Mn6       1.0  0.25000  0.25000  0.62500  1.0000
  Mn  Mn7       1.0  0.74400  0.00000  0.75000  1.0000
  Mn  Mn8       1.0  0.25000  0.75000  0.87500  1.0000
  O   O1        1.0  0.73000  0.03630  0.00375  1.0000
  O   O2        1.0  0.27000  0.48600  0.02000  1.0000
  O   O3        1.0  0.48600  0.27000  0.23000  1.0000
  O   O4        1.0  0.03630  0.73000  0.24600  1.0000
  O   O5        1.0  0.03630  0.27000  0.25400  1.0000
  O   O6        1.0  0.48600  0.73000  0.27000  1.0000
  O   O7        1.0  0.27000  0.51400  0.48000  1.0000
  O   O8        1.0  0.73000  0.96400  0.49600  1.0000
  O   O9        1.0  0.27000  0.96400  0.50400  1.0000
  O   O10       1.0  0.73000  0.51400  0.52000  1.0000
  O   O11       1.0  0.51400  0.73000  0.73000  1.0000
  O   O12       1.0  0.96400  0.27000  0.74600  1.0000
  O   O13       1.0  0.96400  0.73000  0.75400  1.0000
  O   O14       1.0  0.51400  0.27000  0.77000  1.0000
  O   O15       1.0  0.73000  0.48600  0.98000  1.0000
  O   O16       1.0  0.27000  0.03630  0.99600  1.0000
  Ti  Ti1       1.0  0.50000  0.24700  0.00000  1.0000
  Ti  Ti2       1.0  0.24700  0.50000  0.25000  1.0000
  Ti  Ti3       1.0  0.50000  0.75300  0.50000  1.0000
  Ti  Ti4       1.0  0.75300  0.50000  0.75000  1.0000
