data_image0
_chemical_formula_structural       O16Ta4Zn6
_chemical_formula_sum              "O16 Ta4 Zn6"
_cell_length_a       6.19787
_cell_length_b       6.19787
_cell_length_c       9.24991
_cell_angle_alpha    109.22
_cell_angle_beta     70.7795
_cell_angle_gamma    94.1734

_space_group_name_H-M_alt    "P 1"
_space_group_IT_number       1

loop_
  _space_group_symop_operation_xyz
  'x, y, z'

loop_
  _atom_site_type_symbol
  _atom_site_label
  _atom_site_symmetry_multiplicity
  _atom_site_fract_x
  _atom_site_fract_y
  _atom_site_fract_z
  _atom_site_occupancy
  O   O1        1.0  0.30700  0.42500  0.09160  1.0000
  O   O2        1.0  0.85400  0.94600  0.11000  1.0000
  O   O3        1.0  0.28700  0.99200  0.13800  1.0000
  O   O4        1.0  0.82000  0.42400  0.14700  1.0000
  O   O5        1.0  0.42400  0.82000  0.35300  1.0000
  O   O6        1.0  0.99200  0.28700  0.36200  1.0000
  O   O7        1.0  0.94600  0.85400  0.39000  1.0000
  O   O8        1.0  0.42500  0.30700  0.40800  1.0000
  O   O9        1.0  0.57500  0.69300  0.59200  1.0000
  O   O10       1.0  0.05430  0.14600  0.61000  1.0000
  O   O11       1.0  0.00778  0.71300  0.63800  1.0000
  O   O12       1.0  0.57600  0.18000  0.64700  1.0000
  O   O13       1.0  0.18000  0.57600  0.85300  1.0000
  O   O14       1.0  0.71300  0.00778  0.86200  1.0000
  O   O15       1.0  0.14600  0.05430  0.89000  1.0000
  O   O16       1.0  0.69300  0.57500  0.90800  1.0000
  Ta  Ta1       1.0  0.05930  0.22800  0.12800  1.0000
  Ta  Ta2       1.0  0.22800  0.05930  0.37200  1.0000
  Ta  Ta3       1.0  0.77200  0.94100  0.62800  1.0000
  Ta  Ta4       1.0  0.94100  0.77200  0.87200  1.0000
  Zn  Zn1       1.0  0.62700  0.31500  0.00768  1.0000
  Zn  Zn2       1.0  0.75700  0.75700  0.25000  1.0000
  Zn  Zn3       1.0  0.31500  0.62700  0.49200  1.0000
  Zn  Zn4       1.0  0.68500  0.37300  0.50800  1.0000
  Zn  Zn5       1.0  0.24300  0.24300  0.75000  1.0000
  Zn  Zn6       1.0  0.37300  0.68500  0.99200  1.0000
