data_image0
_chemical_formula_structural       Na12O12Sb4
_chemical_formula_sum              "Na12 O12 Sb4"
_cell_length_a       8.19529
_cell_length_b       8.19529
_cell_length_c       8.19529
_cell_angle_alpha    109.471
_cell_angle_beta     109.471
_cell_angle_gamma    109.471

_space_group_name_H-M_alt    "P 1"
_space_group_IT_number       1

loop_
  _space_group_symop_operation_xyz
  'x, y, z'

loop_
  _atom_site_type_symbol
  _atom_site_label
  _atom_site_symmetry_multiplicity
  _atom_site_fract_x
  _atom_site_fract_y
  _atom_site_fract_z
  _atom_site_occupancy
  Na  Na1       1.0  0.72500  0.48200  0.00000  1.0000
  Na  Na2       1.0  0.48200  0.72500  0.00000  1.0000
  Na  Na3       1.0  0.51800  0.51800  0.24300  1.0000
  Na  Na4       1.0  0.75700  0.27500  0.27500  1.0000
  Na  Na5       1.0  0.27500  0.75700  0.27500  1.0000
  Na  Na6       1.0  0.72500  0.00000  0.48200  1.0000
  Na  Na7       1.0  0.00000  0.72500  0.48200  1.0000
  Na  Na8       1.0  0.51800  0.24300  0.51800  1.0000
  Na  Na9       1.0  0.24300  0.51800  0.51800  1.0000
  Na  Na10      1.0  0.48200  0.00000  0.72500  1.0000
  Na  Na11      1.0  0.00000  0.48200  0.72500  1.0000
  Na  Na12      1.0  0.27500  0.27500  0.75700  1.0000
  O   O1        1.0  0.48000  0.22200  0.00000  1.0000
  O   O2        1.0  0.22200  0.48000  0.00000  1.0000
  O   O3        1.0  0.48000  0.00000  0.22200  1.0000
  O   O4        1.0  0.00000  0.48000  0.22200  1.0000
  O   O5        1.0  0.77800  0.77800  0.25800  1.0000
  O   O6        1.0  0.22200  0.00000  0.48000  1.0000
  O   O7        1.0  0.00000  0.22200  0.48000  1.0000
  O   O8        1.0  0.74200  0.52000  0.52000  1.0000
  O   O9        1.0  0.52000  0.74200  0.52000  1.0000
  O   O10       1.0  0.52000  0.52000  0.74200  1.0000
  O   O11       1.0  0.77800  0.25800  0.77800  1.0000
  O   O12       1.0  0.25800  0.77800  0.77800  1.0000
  Sb  Sb1       1.0  0.28600  0.00000  0.00000  1.0000
  Sb  Sb2       1.0  0.00000  0.28600  0.00000  1.0000
  Sb  Sb3       1.0  0.00000  0.00000  0.28600  1.0000
  Sb  Sb4       1.0  0.71400  0.71400  0.71400  1.0000
