data_image0
_chemical_formula_structural       Na4O16Si4Y4
_chemical_formula_sum              "Na4 O16 Si4 Y4"
_cell_length_a       5.12346
_cell_length_b       6.39226
_cell_length_c       11.1457
_cell_angle_alpha    90
_cell_angle_beta     90
_cell_angle_gamma    90

_space_group_name_H-M_alt    "P 1"
_space_group_IT_number       1

loop_
  _space_group_symop_operation_xyz
  'x, y, z'

loop_
  _atom_site_type_symbol
  _atom_site_label
  _atom_site_symmetry_multiplicity
  _atom_site_fract_x
  _atom_site_fract_y
  _atom_site_fract_z
  _atom_site_occupancy
  Na  Na1       1.0  0.50000  0.25500  0.00120  1.0000
  Na  Na2       1.0  0.00000  0.75500  0.49900  1.0000
  Na  Na3       1.0  0.00041  0.25500  0.50100  1.0000
  Na  Na4       1.0  0.50000  0.75500  0.99900  1.0000
  O   O1        1.0  0.82600  0.00617  0.03910  1.0000
  O   O2        1.0  0.74900  0.50600  0.11000  1.0000
  O   O3        1.0  0.20400  0.70700  0.17000  1.0000
  O   O4        1.0  0.20500  0.30700  0.17100  1.0000
  O   O5        1.0  0.70500  0.80700  0.32900  1.0000
  O   O6        1.0  0.70400  0.20700  0.33000  1.0000
  O   O7        1.0  0.24900  0.00589  0.39000  1.0000
  O   O8        1.0  0.32600  0.50600  0.46100  1.0000
  O   O9        1.0  0.67400  0.00617  0.53900  1.0000
  O   O10       1.0  0.75100  0.50600  0.61000  1.0000
  O   O11       1.0  0.29600  0.70700  0.67000  1.0000
  O   O12       1.0  0.29500  0.30700  0.67100  1.0000
  O   O13       1.0  0.79500  0.80700  0.82900  1.0000
  O   O14       1.0  0.79600  0.20700  0.83000  1.0000
  O   O15       1.0  0.25100  0.00589  0.89000  1.0000
  O   O16       1.0  0.17400  0.50600  0.96100  1.0000
  Si  Si1       1.0  0.06360  0.50700  0.09830  1.0000
  Si  Si2       1.0  0.56400  0.00651  0.40200  1.0000
  Si  Si3       1.0  0.43600  0.50700  0.59800  1.0000
  Si  Si4       1.0  0.93600  0.00651  0.90200  1.0000
  Y   Y1        1.0  0.00114  0.00693  0.22000  1.0000
  Y   Y2        1.0  0.50100  0.50700  0.28000  1.0000
  Y   Y3        1.0  0.49900  0.00693  0.72000  1.0000
  Y   Y4        1.0  0.99900  0.50700  0.78000  1.0000
