data_image0
_chemical_formula_structural       Na12Si4Te12
_chemical_formula_sum              "Na12 Si4 Te12"
_cell_length_a       8.74753
_cell_length_b       12.7184
_cell_length_c       8.8585
_cell_angle_alpha    90
_cell_angle_beta     119.655
_cell_angle_gamma    90

_space_group_name_H-M_alt    "P 1"
_space_group_IT_number       1

loop_
  _space_group_symop_operation_xyz
  'x, y, z'

loop_
  _atom_site_type_symbol
  _atom_site_label
  _atom_site_symmetry_multiplicity
  _atom_site_fract_x
  _atom_site_fract_y
  _atom_site_fract_z
  _atom_site_occupancy
  Na  Na1       1.0  0.49600  0.65100  0.01520  1.0000
  Na  Na2       1.0  0.72600  0.06220  0.20000  1.0000
  Na  Na3       1.0  0.03620  0.27600  0.23400  1.0000
  Na  Na4       1.0  0.96400  0.77600  0.26600  1.0000
  Na  Na5       1.0  0.27400  0.56200  0.30000  1.0000
  Na  Na6       1.0  0.50400  0.15100  0.48500  1.0000
  Na  Na7       1.0  0.49600  0.84900  0.51500  1.0000
  Na  Na8       1.0  0.72600  0.43800  0.70000  1.0000
  Na  Na9       1.0  0.03620  0.22400  0.73400  1.0000
  Na  Na10      1.0  0.96400  0.72400  0.76600  1.0000
  Na  Na11      1.0  0.27400  0.93800  0.80000  1.0000
  Na  Na12      1.0  0.50400  0.34900  0.98500  1.0000
  Si  Si1       1.0  0.14700  0.99100  0.11500  1.0000
  Si  Si2       1.0  0.85300  0.49100  0.38500  1.0000
  Si  Si3       1.0  0.14700  0.50900  0.61500  1.0000
  Si  Si4       1.0  0.85300  0.00868  0.88500  1.0000
  Te  Te1       1.0  0.33400  0.12700  0.07270  1.0000
  Te  Te2       1.0  0.85200  0.52700  0.10400  1.0000
  Te  Te3       1.0  0.25400  0.80700  0.11700  1.0000
  Te  Te4       1.0  0.74600  0.30700  0.38300  1.0000
  Te  Te5       1.0  0.14800  0.02670  0.39600  1.0000
  Te  Te6       1.0  0.66600  0.62700  0.42700  1.0000
  Te  Te7       1.0  0.33400  0.37300  0.57300  1.0000
  Te  Te8       1.0  0.85200  0.97300  0.60400  1.0000
  Te  Te9       1.0  0.25400  0.69300  0.61700  1.0000
  Te  Te10      1.0  0.74600  0.19300  0.88300  1.0000
  Te  Te11      1.0  0.14800  0.47300  0.89600  1.0000
  Te  Te12      1.0  0.66600  0.87300  0.92700  1.0000
