data_image0
_chemical_formula_structural       Be6F18Rb2Zn2
_chemical_formula_sum              "Be6 F18 Rb2 Zn2"
_cell_length_a       6.52514
_cell_length_b       6.5251
_cell_length_c       9.41741
_cell_angle_alpha    90
_cell_angle_beta     90
_cell_angle_gamma    120

_space_group_name_H-M_alt    "P 1"
_space_group_IT_number       1

loop_
  _space_group_symop_operation_xyz
  'x, y, z'

loop_
  _atom_site_type_symbol
  _atom_site_label
  _atom_site_symmetry_multiplicity
  _atom_site_fract_x
  _atom_site_fract_y
  _atom_site_fract_z
  _atom_site_occupancy
  Be  Be1       1.0  0.05900  0.27600  0.25000  1.0000
  Be  Be2       1.0  0.72400  0.78300  0.25000  1.0000
  Be  Be3       1.0  0.21700  0.94100  0.25000  1.0000
  Be  Be4       1.0  0.21700  0.27600  0.75000  1.0000
  Be  Be5       1.0  0.05900  0.78300  0.75000  1.0000
  Be  Be6       1.0  0.72400  0.94100  0.75000  1.0000
  F   F1        1.0  0.07480  0.41300  0.11600  1.0000
  F   F2        1.0  0.58700  0.66200  0.11600  1.0000
  F   F3        1.0  0.33800  0.92500  0.11600  1.0000
  F   F4        1.0  0.80300  0.05150  0.25000  1.0000
  F   F5        1.0  0.24800  0.19700  0.25000  1.0000
  F   F6        1.0  0.94800  0.75200  0.25000  1.0000
  F   F7        1.0  0.33800  0.92500  0.38400  1.0000
  F   F8        1.0  0.07480  0.41300  0.38400  1.0000
  F   F9        1.0  0.58700  0.66200  0.38400  1.0000
  F   F10       1.0  0.33800  0.41300  0.61600  1.0000
  F   F11       1.0  0.07480  0.66200  0.61600  1.0000
  F   F12       1.0  0.58700  0.92500  0.61600  1.0000
  F   F13       1.0  0.24800  0.05150  0.75000  1.0000
  F   F14       1.0  0.94800  0.19700  0.75000  1.0000
  F   F15       1.0  0.80300  0.75200  0.75000  1.0000
  F   F16       1.0  0.33800  0.41300  0.88400  1.0000
  F   F17       1.0  0.07480  0.66200  0.88400  1.0000
  F   F18       1.0  0.58700  0.92500  0.88400  1.0000
  Rb  Rb1       1.0  0.66700  0.33300  0.00000  1.0000
  Rb  Rb2       1.0  0.66700  0.33300  0.50000  1.0000
  Zn  Zn1       1.0  0.33300  0.66700  0.00000  1.0000
  Zn  Zn2       1.0  0.33300  0.66700  0.50000  1.0000
