data_image0
_chemical_formula_structural       As4Cd12Cl12
_chemical_formula_sum              "As4 Cd12 Cl12"
_cell_length_a       13.2895
_cell_length_b       8.18345
_cell_length_c       7.13717
_cell_angle_alpha    90
_cell_angle_beta     90
_cell_angle_gamma    90

_space_group_name_H-M_alt    "P 1"
_space_group_IT_number       1

loop_
  _space_group_symop_operation_xyz
  'x, y, z'

loop_
  _atom_site_type_symbol
  _atom_site_label
  _atom_site_symmetry_multiplicity
  _atom_site_fract_x
  _atom_site_fract_y
  _atom_site_fract_z
  _atom_site_occupancy
  As  As1       1.0  0.08330  0.25000  0.14500  1.0000
  As  As2       1.0  0.58300  0.25000  0.35500  1.0000
  As  As3       1.0  0.41700  0.75000  0.64500  1.0000
  As  As4       1.0  0.91700  0.75000  0.85500  1.0000
  Cd  Cd1       1.0  0.00000  0.00000  0.00000  1.0000
  Cd  Cd2       1.0  0.00000  0.50000  0.00000  1.0000
  Cd  Cd3       1.0  0.41100  0.75000  0.00123  1.0000
  Cd  Cd4       1.0  0.26100  0.25000  0.00176  1.0000
  Cd  Cd5       1.0  0.76100  0.25000  0.49800  1.0000
  Cd  Cd6       1.0  0.91100  0.75000  0.49900  1.0000
  Cd  Cd7       1.0  0.50000  0.00000  0.50000  1.0000
  Cd  Cd8       1.0  0.50000  0.50000  0.50000  1.0000
  Cd  Cd9       1.0  0.08870  0.25000  0.50100  1.0000
  Cd  Cd10      1.0  0.23900  0.75000  0.50200  1.0000
  Cd  Cd11      1.0  0.73900  0.75000  0.99800  1.0000
  Cd  Cd12      1.0  0.58900  0.25000  0.99900  1.0000
  Cl  Cl1       1.0  0.58200  0.75000  0.19700  1.0000
  Cl  Cl2       1.0  0.33100  0.52000  0.19800  1.0000
  Cl  Cl3       1.0  0.33100  0.98000  0.19800  1.0000
  Cl  Cl4       1.0  0.83100  0.52000  0.30200  1.0000
  Cl  Cl5       1.0  0.83100  0.98000  0.30200  1.0000
  Cl  Cl6       1.0  0.08160  0.75000  0.30300  1.0000
  Cl  Cl7       1.0  0.91800  0.25000  0.69700  1.0000
  Cl  Cl8       1.0  0.16900  0.02000  0.69800  1.0000
  Cl  Cl9       1.0  0.16900  0.48000  0.69800  1.0000
  Cl  Cl10      1.0  0.66900  0.02000  0.80200  1.0000
  Cl  Cl11      1.0  0.66900  0.48000  0.80200  1.0000
  Cl  Cl12      1.0  0.41800  0.25000  0.80300  1.0000
