data_image0
_chemical_formula_structural       Pb8Se16Si4
_chemical_formula_sum              "Pb8 Se16 Si4"
_cell_length_a       8.73458
_cell_length_b       7.29853
_cell_length_c       13.9096
_cell_angle_alpha    90
_cell_angle_beta     108.099
_cell_angle_gamma    90

_space_group_name_H-M_alt    "P 1"
_space_group_IT_number       1

loop_
  _space_group_symop_operation_xyz
  'x, y, z'

loop_
  _atom_site_type_symbol
  _atom_site_label
  _atom_site_symmetry_multiplicity
  _atom_site_fract_x
  _atom_site_fract_y
  _atom_site_fract_z
  _atom_site_occupancy
  Pb  Pb1       1.0  0.94500  0.64700  0.12600  1.0000
  Pb  Pb2       1.0  0.44300  0.64000  0.13700  1.0000
  Pb  Pb3       1.0  0.55700  0.14000  0.36300  1.0000
  Pb  Pb4       1.0  0.05460  0.14700  0.37400  1.0000
  Pb  Pb5       1.0  0.94500  0.85300  0.62600  1.0000
  Pb  Pb6       1.0  0.44300  0.86000  0.63700  1.0000
  Pb  Pb7       1.0  0.55700  0.36000  0.86300  1.0000
  Pb  Pb8       1.0  0.05460  0.35300  0.87400  1.0000
  Se  Se1       1.0  0.36500  0.27300  0.04220  1.0000
  Se  Se2       1.0  0.93400  0.26400  0.05550  1.0000
  Se  Se3       1.0  0.25400  0.97900  0.23600  1.0000
  Se  Se4       1.0  0.72900  0.97700  0.23700  1.0000
  Se  Se5       1.0  0.27100  0.47700  0.26300  1.0000
  Se  Se6       1.0  0.74600  0.47900  0.26400  1.0000
  Se  Se7       1.0  0.06590  0.76400  0.44400  1.0000
  Se  Se8       1.0  0.63500  0.77300  0.45800  1.0000
  Se  Se9       1.0  0.36500  0.22700  0.54200  1.0000
  Se  Se10      1.0  0.93400  0.23600  0.55600  1.0000
  Se  Se11      1.0  0.25400  0.52100  0.73600  1.0000
  Se  Se12      1.0  0.72900  0.52300  0.73700  1.0000
  Se  Se13      1.0  0.27100  0.02300  0.76300  1.0000
  Se  Se14      1.0  0.74600  0.02150  0.76400  1.0000
  Se  Se15      1.0  0.06590  0.73600  0.94400  1.0000
  Se  Se16      1.0  0.63500  0.72700  0.95800  1.0000
  Si  Si1       1.0  0.20300  0.24600  0.14500  1.0000
  Si  Si2       1.0  0.79700  0.74600  0.35500  1.0000
  Si  Si3       1.0  0.20300  0.25400  0.64500  1.0000
  Si  Si4       1.0  0.79700  0.75400  0.85500  1.0000
