data_image0
_chemical_formula_structural       As8Cu4O16
_chemical_formula_sum              "As8 Cu4 O16"
_cell_length_a       8.50979
_cell_length_b       8.50979
_cell_length_c       5.59936
_cell_angle_alpha    90
_cell_angle_beta     90
_cell_angle_gamma    90

_space_group_name_H-M_alt    "P 1"
_space_group_IT_number       1

loop_
  _space_group_symop_operation_xyz
  'x, y, z'

loop_
  _atom_site_type_symbol
  _atom_site_label
  _atom_site_symmetry_multiplicity
  _atom_site_fract_x
  _atom_site_fract_y
  _atom_site_fract_z
  _atom_site_occupancy
  As  As1       1.0  0.19500  0.16000  0.00000  1.0000
  As  As2       1.0  0.69500  0.34000  0.00000  1.0000
  As  As3       1.0  0.30500  0.66000  0.00000  1.0000
  As  As4       1.0  0.80500  0.84000  0.00000  1.0000
  As  As5       1.0  0.84000  0.19500  0.50000  1.0000
  As  As6       1.0  0.34000  0.30500  0.50000  1.0000
  As  As7       1.0  0.66000  0.69500  0.50000  1.0000
  As  As8       1.0  0.16000  0.80500  0.50000  1.0000
  Cu  Cu1       1.0  0.50000  0.00000  0.25000  1.0000
  Cu  Cu2       1.0  0.00000  0.50000  0.25000  1.0000
  Cu  Cu3       1.0  0.50000  0.00000  0.75000  1.0000
  Cu  Cu4       1.0  0.00000  0.50000  0.75000  1.0000
  O   O1        1.0  0.40300  0.12300  0.00000  1.0000
  O   O2        1.0  0.90300  0.37700  0.00000  1.0000
  O   O3        1.0  0.09730  0.62300  0.00000  1.0000
  O   O4        1.0  0.59700  0.87700  0.00000  1.0000
  O   O5        1.0  0.69800  0.19800  0.25000  1.0000
  O   O6        1.0  0.19800  0.30200  0.25000  1.0000
  O   O7        1.0  0.80200  0.69800  0.25000  1.0000
  O   O8        1.0  0.30200  0.80200  0.25000  1.0000
  O   O9        1.0  0.37700  0.09730  0.50000  1.0000
  O   O10       1.0  0.87700  0.40300  0.50000  1.0000
  O   O11       1.0  0.12300  0.59700  0.50000  1.0000
  O   O12       1.0  0.62300  0.90300  0.50000  1.0000
  O   O13       1.0  0.69800  0.19800  0.75000  1.0000
  O   O14       1.0  0.19800  0.30200  0.75000  1.0000
  O   O15       1.0  0.80200  0.69800  0.75000  1.0000
  O   O16       1.0  0.30200  0.80200  0.75000  1.0000
