data_image0
_chemical_formula_structural       Eu12O16
_chemical_formula_sum              "Eu12 O16"
_cell_length_a       9.48105
_cell_length_b       11.9619
_cell_length_c       3.53245
_cell_angle_alpha    90
_cell_angle_beta     90
_cell_angle_gamma    90

_space_group_name_H-M_alt    "P 1"
_space_group_IT_number       1

loop_
  _space_group_symop_operation_xyz
  'x, y, z'

loop_
  _atom_site_type_symbol
  _atom_site_label
  _atom_site_symmetry_multiplicity
  _atom_site_fract_x
  _atom_site_fract_y
  _atom_site_fract_z
  _atom_site_occupancy
  Eu  Eu1       1.0  0.39300  0.09930  0.25000  1.0000
  Eu  Eu2       1.0  0.73800  0.15600  0.25000  1.0000
  Eu  Eu3       1.0  0.23800  0.34400  0.25000  1.0000
  Eu  Eu4       1.0  0.89300  0.40100  0.25000  1.0000
  Eu  Eu5       1.0  0.43600  0.61400  0.25000  1.0000
  Eu  Eu6       1.0  0.93600  0.88600  0.25000  1.0000
  Eu  Eu7       1.0  0.06360  0.11400  0.75000  1.0000
  Eu  Eu8       1.0  0.56400  0.38600  0.75000  1.0000
  Eu  Eu9       1.0  0.10700  0.59900  0.75000  1.0000
  Eu  Eu10      1.0  0.76200  0.65600  0.75000  1.0000
  Eu  Eu11      1.0  0.26200  0.84400  0.75000  1.0000
  Eu  Eu12      1.0  0.60700  0.90100  0.75000  1.0000
  O   O1        1.0  0.99600  0.22300  0.25000  1.0000
  O   O2        1.0  0.49600  0.27700  0.25000  1.0000
  O   O3        1.0  0.65800  0.51600  0.25000  1.0000
  O   O4        1.0  0.92700  0.59400  0.25000  1.0000
  O   O5        1.0  0.22300  0.70200  0.25000  1.0000
  O   O6        1.0  0.72300  0.79800  0.25000  1.0000
  O   O7        1.0  0.42700  0.90600  0.25000  1.0000
  O   O8        1.0  0.15800  0.98400  0.25000  1.0000
  O   O9        1.0  0.84200  0.01610  0.75000  1.0000
  O   O10       1.0  0.57300  0.09390  0.75000  1.0000
  O   O11       1.0  0.27700  0.20200  0.75000  1.0000
  O   O12       1.0  0.77700  0.29800  0.75000  1.0000
  O   O13       1.0  0.07260  0.40600  0.75000  1.0000
  O   O14       1.0  0.34200  0.48400  0.75000  1.0000
  O   O15       1.0  0.50400  0.72300  0.75000  1.0000
  O   O16       1.0  0.00416  0.77700  0.75000  1.0000
