data_image0
_chemical_formula_structural       Na8O12S8
_chemical_formula_sum              "Na8 O12 S8"
_cell_length_a       6.37622
_cell_length_b       8.04001
_cell_length_c       8.41876
_cell_angle_alpha    90
_cell_angle_beta     96.3152
_cell_angle_gamma    90

_space_group_name_H-M_alt    "P 1"
_space_group_IT_number       1

loop_
  _space_group_symop_operation_xyz
  'x, y, z'

loop_
  _atom_site_type_symbol
  _atom_site_label
  _atom_site_symmetry_multiplicity
  _atom_site_fract_x
  _atom_site_fract_y
  _atom_site_fract_z
  _atom_site_occupancy
  Na  Na1       1.0  0.29500  0.62400  0.08590  1.0000
  Na  Na2       1.0  0.79500  0.87600  0.08590  1.0000
  Na  Na3       1.0  0.37400  0.30300  0.45200  1.0000
  Na  Na4       1.0  0.87400  0.19700  0.45200  1.0000
  Na  Na5       1.0  0.12600  0.80300  0.54800  1.0000
  Na  Na6       1.0  0.62600  0.69700  0.54800  1.0000
  Na  Na7       1.0  0.70500  0.37600  0.91400  1.0000
  Na  Na8       1.0  0.20500  0.12400  0.91400  1.0000
  O   O1        1.0  0.66200  0.58600  0.11400  1.0000
  O   O2        1.0  0.16200  0.91400  0.11400  1.0000
  O   O3        1.0  0.88800  0.70400  0.33500  1.0000
  O   O4        1.0  0.38800  0.79600  0.33500  1.0000
  O   O5        1.0  0.67600  0.46100  0.38200  1.0000
  O   O6        1.0  0.17600  0.03890  0.38200  1.0000
  O   O7        1.0  0.82400  0.96100  0.61800  1.0000
  O   O8        1.0  0.32400  0.53900  0.61800  1.0000
  O   O9        1.0  0.61200  0.20400  0.66500  1.0000
  O   O10       1.0  0.11200  0.29600  0.66500  1.0000
  O   O11       1.0  0.83800  0.08610  0.88600  1.0000
  O   O12       1.0  0.33800  0.41400  0.88600  1.0000
  S   S1        1.0  0.02510  0.39000  0.20700  1.0000
  S   S2        1.0  0.52500  0.11000  0.20700  1.0000
  S   S3        1.0  0.79800  0.54600  0.26500  1.0000
  S   S4        1.0  0.29800  0.95400  0.26500  1.0000
  S   S5        1.0  0.20200  0.45400  0.73500  1.0000
  S   S6        1.0  0.70200  0.04640  0.73500  1.0000
  S   S7        1.0  0.47500  0.89000  0.79300  1.0000
  S   S8        1.0  0.97500  0.61000  0.79300  1.0000
