data_image0
_chemical_formula_structural       CoF6H12O6Sn2
_chemical_formula_sum              "Co1 F6 H12 O6 Sn2"
_cell_length_a       6.356
_cell_length_b       6.67727
_cell_length_c       6.60998
_cell_angle_alpha    76.6648
_cell_angle_beta     110.838
_cell_angle_gamma    101.667

_space_group_name_H-M_alt    "P 1"
_space_group_IT_number       1

loop_
  _space_group_symop_operation_xyz
  'x, y, z'

loop_
  _atom_site_type_symbol
  _atom_site_label
  _atom_site_symmetry_multiplicity
  _atom_site_fract_x
  _atom_site_fract_y
  _atom_site_fract_z
  _atom_site_occupancy
  Co  Co1       1.0  0.00000  0.00000  0.00000  1.0000
  F   F1        1.0  0.57300  0.32600  0.01880  1.0000
  F   F2        1.0  0.97700  0.41900  0.31100  1.0000
  F   F3        1.0  0.68400  0.07080  0.41000  1.0000
  F   F4        1.0  0.31600  0.92900  0.59000  1.0000
  F   F5        1.0  0.02320  0.58100  0.68900  1.0000
  F   F6        1.0  0.42700  0.67400  0.98100  1.0000
  H   H1        1.0  0.64600  0.80900  0.08900  1.0000
  H   H2        1.0  0.27500  0.72400  0.09080  1.0000
  H   H3        1.0  0.08240  0.62900  0.20400  1.0000
  H   H4        1.0  0.75300  0.96100  0.26600  1.0000
  H   H5        1.0  0.11700  0.27200  0.26800  1.0000
  H   H6        1.0  0.25500  0.07700  0.37400  1.0000
  H   H7        1.0  0.74500  0.92300  0.62600  1.0000
  H   H8        1.0  0.88300  0.72800  0.73200  1.0000
  H   H9        1.0  0.24700  0.03930  0.73400  1.0000
  H   H10       1.0  0.91800  0.37100  0.79600  1.0000
  H   H11       1.0  0.72500  0.27600  0.90900  1.0000
  H   H12       1.0  0.35400  0.19100  0.91100  1.0000
  O   O1        1.0  0.18500  0.75800  0.17300  1.0000
  O   O2        1.0  0.79200  0.87400  0.18400  1.0000
  O   O3        1.0  0.21400  0.18700  0.23900  1.0000
  O   O4        1.0  0.78600  0.81300  0.76100  1.0000
  O   O5        1.0  0.20800  0.12600  0.81600  1.0000
  O   O6        1.0  0.81500  0.24200  0.82700  1.0000
  Sn  Sn1       1.0  0.64300  0.38900  0.34500  1.0000
  Sn  Sn2       1.0  0.35700  0.61100  0.65500  1.0000
