data_image0
_chemical_formula_structural       Ga2Na2O16Si6
_chemical_formula_sum              "Ga2 Na2 O16 Si6"
_cell_length_a       7.18029
_cell_length_b       7.41612
_cell_length_c       7.72609
_cell_angle_alpha    115.735
_cell_angle_beta     107.188
_cell_angle_gamma    100.621

_space_group_name_H-M_alt    "P 1"
_space_group_IT_number       1

loop_
  _space_group_symop_operation_xyz
  'x, y, z'

loop_
  _atom_site_type_symbol
  _atom_site_label
  _atom_site_symmetry_multiplicity
  _atom_site_fract_x
  _atom_site_fract_y
  _atom_site_fract_z
  _atom_site_occupancy
  Ga  Ga1       1.0  0.20400  0.84000  0.17800  1.0000
  Ga  Ga2       1.0  0.79600  0.16000  0.82200  1.0000
  Na  Na1       1.0  0.14500  0.27100  0.24600  1.0000
  Na  Na2       1.0  0.85500  0.72900  0.75400  1.0000
  O   O1        1.0  0.44600  0.31200  0.04710  1.0000
  O   O2        1.0  0.82600  0.29400  0.09740  1.0000
  O   O3        1.0  0.95700  0.89200  0.13400  1.0000
  O   O4        1.0  0.78300  0.67700  0.28500  1.0000
  O   O5        1.0  0.26700  0.68100  0.29500  1.0000
  O   O6        1.0  0.38700  0.11900  0.33100  1.0000
  O   O7        1.0  0.73700  0.03700  0.34600  1.0000
  O   O8        1.0  0.72400  0.42100  0.42300  1.0000
  O   O9        1.0  0.27600  0.57900  0.57700  1.0000
  O   O10       1.0  0.26300  0.96300  0.65400  1.0000
  O   O11       1.0  0.61300  0.88100  0.66900  1.0000
  O   O12       1.0  0.73300  0.31900  0.70500  1.0000
  O   O13       1.0  0.21700  0.32300  0.71500  1.0000
  O   O14       1.0  0.04250  0.10800  0.86600  1.0000
  O   O15       1.0  0.17400  0.70600  0.90300  1.0000
  O   O16       1.0  0.55400  0.68800  0.95300  1.0000
  Si  Si1       1.0  0.75900  0.82400  0.18000  1.0000
  Si  Si2       1.0  0.69500  0.42300  0.20500  1.0000
  Si  Si3       1.0  0.64000  0.21600  0.45000  1.0000
  Si  Si4       1.0  0.36000  0.78400  0.55000  1.0000
  Si  Si5       1.0  0.30500  0.57700  0.79500  1.0000
  Si  Si6       1.0  0.24100  0.17600  0.82000  1.0000
