data_image0
_chemical_formula_structural       Ba2Cu6Nd4O14
_chemical_formula_sum              "Ba2 Cu6 Nd4 O14"
_cell_length_a       12.1219
_cell_length_b       7.80367
_cell_length_c       3.80737
_cell_angle_alpha    90
_cell_angle_beta     90
_cell_angle_gamma    108.777

_space_group_name_H-M_alt    "P 1"
_space_group_IT_number       1

loop_
  _space_group_symop_operation_xyz
  'x, y, z'

loop_
  _atom_site_type_symbol
  _atom_site_label
  _atom_site_symmetry_multiplicity
  _atom_site_fract_x
  _atom_site_fract_y
  _atom_site_fract_z
  _atom_site_occupancy
  Ba  Ba1       1.0  0.83100  0.42400  0.50000  1.0000
  Ba  Ba2       1.0  0.16900  0.59200  0.50000  1.0000
  Cu  Cu1       1.0  0.65000  0.07390  0.00000  1.0000
  Cu  Cu2       1.0  0.00000  0.23500  0.00000  1.0000
  Cu  Cu3       1.0  0.35000  0.42400  0.00000  1.0000
  Cu  Cu4       1.0  0.64700  0.57300  0.00000  1.0000
  Cu  Cu5       1.0  0.00000  0.81000  0.00000  1.0000
  Cu  Cu6       1.0  0.35300  0.92600  0.00000  1.0000
  Nd  Nd1       1.0  0.20200  0.09300  0.50000  1.0000
  Nd  Nd2       1.0  0.50800  0.25400  0.50000  1.0000
  Nd  Nd3       1.0  0.49200  0.74600  0.50000  1.0000
  Nd  Nd4       1.0  0.79800  0.89100  0.50000  1.0000
  O   O1        1.0  0.84400  0.11200  0.00000  1.0000
  O   O2        1.0  0.36900  0.18400  0.00000  1.0000
  O   O3        1.0  0.15600  0.26800  0.00000  1.0000
  O   O4        1.0  0.63800  0.31800  0.00000  1.0000
  O   O5        1.0  0.00000  0.48000  0.00000  1.0000
  O   O6        1.0  0.36200  0.68000  0.00000  1.0000
  O   O7        1.0  0.83600  0.71200  0.00000  1.0000
  O   O8        1.0  0.63100  0.81500  0.00000  1.0000
  O   O9        1.0  0.16400  0.87600  0.00000  1.0000
  O   O10       1.0  0.63400  0.05860  0.50000  1.0000
  O   O11       1.0  0.36600  0.42500  0.50000  1.0000
  O   O12       1.0  0.63600  0.57700  0.50000  1.0000
  O   O13       1.0  0.00000  0.88800  0.50000  1.0000
  O   O14       1.0  0.36400  0.94100  0.50000  1.0000
