data_image0
_chemical_formula_structural       F18Na6Ti3
_chemical_formula_sum              "F18 Na6 Ti3"
_cell_length_a       9.14892
_cell_length_b       9.14891
_cell_length_c       4.54812
_cell_angle_alpha    90
_cell_angle_beta     89.9998
_cell_angle_gamma    120

_space_group_name_H-M_alt    "P 1"
_space_group_IT_number       1

loop_
  _space_group_symop_operation_xyz
  'x, y, z'

loop_
  _atom_site_type_symbol
  _atom_site_label
  _atom_site_symmetry_multiplicity
  _atom_site_fract_x
  _atom_site_fract_y
  _atom_site_fract_z
  _atom_site_occupancy
  F   F1        1.0  0.09850  0.90100  0.23300  1.0000
  F   F2        1.0  0.09850  0.19700  0.23300  1.0000
  F   F3        1.0  0.80300  0.90100  0.23300  1.0000
  F   F4        1.0  0.76500  0.53000  0.26300  1.0000
  F   F5        1.0  0.76500  0.23500  0.26300  1.0000
  F   F6        1.0  0.47000  0.23500  0.26300  1.0000
  F   F7        1.0  0.13700  0.56900  0.27200  1.0000
  F   F8        1.0  0.43100  0.86300  0.27200  1.0000
  F   F9        1.0  0.43100  0.56900  0.27200  1.0000
  F   F10       1.0  0.56900  0.43100  0.72800  1.0000
  F   F11       1.0  0.56900  0.13700  0.72800  1.0000
  F   F12       1.0  0.86300  0.43100  0.72800  1.0000
  F   F13       1.0  0.53000  0.76500  0.73700  1.0000
  F   F14       1.0  0.23500  0.76500  0.73700  1.0000
  F   F15       1.0  0.23500  0.47000  0.73700  1.0000
  F   F16       1.0  0.19700  0.09850  0.76700  1.0000
  F   F17       1.0  0.90100  0.80300  0.76700  1.0000
  F   F18       1.0  0.90100  0.09850  0.76700  1.0000
  Na  Na1       1.0  0.34300  0.00000  0.00000  1.0000
  Na  Na2       1.0  0.65700  0.00000  0.00000  1.0000
  Na  Na3       1.0  0.34300  0.34300  0.00000  1.0000
  Na  Na4       1.0  0.00000  0.34300  0.00000  1.0000
  Na  Na5       1.0  0.00000  0.65700  0.00000  1.0000
  Na  Na6       1.0  0.65700  0.65700  0.00000  1.0000
  Ti  Ti1       1.0  0.00000  0.00000  0.00000  1.0000
  Ti  Ti2       1.0  0.66700  0.33300  0.49400  1.0000
  Ti  Ti3       1.0  0.33300  0.66700  0.50600  1.0000
