data_image0
_chemical_formula_structural       F4K8O12P4
_chemical_formula_sum              "F4 K8 O12 P4"
_cell_length_a       7.47347
_cell_length_b       9.9721
_cell_length_c       5.86418
_cell_angle_alpha    90
_cell_angle_beta     90
_cell_angle_gamma    90

_space_group_name_H-M_alt    "P 1"
_space_group_IT_number       1

loop_
  _space_group_symop_operation_xyz
  'x, y, z'

loop_
  _atom_site_type_symbol
  _atom_site_label
  _atom_site_symmetry_multiplicity
  _atom_site_fract_x
  _atom_site_fract_y
  _atom_site_fract_z
  _atom_site_occupancy
  F   F1        1.0  0.52100  0.06330  0.25000  1.0000
  F   F2        1.0  0.02120  0.43700  0.25000  1.0000
  F   F3        1.0  0.97900  0.56300  0.75000  1.0000
  F   F4        1.0  0.47900  0.93700  0.75000  1.0000
  K   K1        1.0  0.17000  0.07510  0.25000  1.0000
  K   K2        1.0  0.67000  0.42500  0.25000  1.0000
  K   K3        1.0  0.00458  0.71400  0.25000  1.0000
  K   K4        1.0  0.50500  0.78600  0.25000  1.0000
  K   K5        1.0  0.49500  0.21400  0.75000  1.0000
  K   K6        1.0  0.99500  0.28600  0.75000  1.0000
  K   K7        1.0  0.33000  0.57500  0.75000  1.0000
  K   K8        1.0  0.83000  0.92500  0.75000  1.0000
  O   O1        1.0  0.77200  0.16700  0.03200  1.0000
  O   O2        1.0  0.27200  0.33300  0.03200  1.0000
  O   O3        1.0  0.31900  0.55200  0.25000  1.0000
  O   O4        1.0  0.81900  0.94800  0.25000  1.0000
  O   O5        1.0  0.77200  0.16700  0.46800  1.0000
  O   O6        1.0  0.27200  0.33300  0.46800  1.0000
  O   O7        1.0  0.72800  0.66700  0.53200  1.0000
  O   O8        1.0  0.22800  0.83300  0.53200  1.0000
  O   O9        1.0  0.18100  0.05240  0.75000  1.0000
  O   O10       1.0  0.68100  0.44800  0.75000  1.0000
  O   O11       1.0  0.72800  0.66700  0.96800  1.0000
  O   O12       1.0  0.22800  0.83300  0.96800  1.0000
  P   P1        1.0  0.74200  0.08860  0.25000  1.0000
  P   P2        1.0  0.24200  0.41100  0.25000  1.0000
  P   P3        1.0  0.75800  0.58900  0.75000  1.0000
  P   P4        1.0  0.25800  0.91100  0.75000  1.0000
