data_image0
_chemical_formula_structural       C12Mn2O12Pt
_chemical_formula_sum              "C12 Mn2 O12 Pt1"
_cell_length_a       6.12208
_cell_length_b       7.00144
_cell_length_c       9.5093
_cell_angle_alpha    70.5818
_cell_angle_beta     85.8993
_cell_angle_gamma    87.4643

_space_group_name_H-M_alt    "P 1"
_space_group_IT_number       1

loop_
  _space_group_symop_operation_xyz
  'x, y, z'

loop_
  _atom_site_type_symbol
  _atom_site_label
  _atom_site_symmetry_multiplicity
  _atom_site_fract_x
  _atom_site_fract_y
  _atom_site_fract_z
  _atom_site_occupancy
  C   C1        1.0  0.11300  0.73200  0.03700  1.0000
  C   C2        1.0  0.55900  0.04590  0.18500  1.0000
  C   C3        1.0  0.69100  0.67700  0.21700  1.0000
  C   C4        1.0  0.91000  0.10500  0.30100  1.0000
  C   C5        1.0  0.04000  0.73600  0.34000  1.0000
  C   C6        1.0  0.64300  0.80400  0.45500  1.0000
  C   C7        1.0  0.35700  0.19600  0.54500  1.0000
  C   C8        1.0  0.96000  0.26400  0.66000  1.0000
  C   C9        1.0  0.09010  0.89500  0.69900  1.0000
  C   C10       1.0  0.30900  0.32300  0.78300  1.0000
  C   C11       1.0  0.44100  0.95400  0.81500  1.0000
  C   C12       1.0  0.88700  0.26800  0.96300  1.0000
  Mn  Mn1       1.0  0.78800  0.88300  0.27600  1.0000
  Mn  Mn2       1.0  0.21200  0.11700  0.72400  1.0000
  O   O1        1.0  0.18300  0.56900  0.06140  1.0000
  O   O2        1.0  0.41200  0.14600  0.13100  1.0000
  O   O3        1.0  0.62900  0.54900  0.18000  1.0000
  O   O4        1.0  0.98500  0.24200  0.32100  1.0000
  O   O5        1.0  0.19900  0.64600  0.38300  1.0000
  O   O6        1.0  0.45400  0.24300  0.42900  1.0000
  O   O7        1.0  0.54600  0.75700  0.57100  1.0000
  O   O8        1.0  0.80100  0.35400  0.61700  1.0000
  O   O9        1.0  0.01480  0.75800  0.67900  1.0000
  O   O10       1.0  0.37100  0.45100  0.82000  1.0000
  O   O11       1.0  0.58800  0.85400  0.86900  1.0000
  O   O12       1.0  0.81700  0.43100  0.93900  1.0000
  Pt  Pt1       1.0  0.00000  0.00000  0.00000  1.0000
