data_image0
_chemical_formula_structural       Bi4Na12O12
_chemical_formula_sum              "Bi4 Na12 O12"
_cell_length_a       8.30865
_cell_length_b       8.30865
_cell_length_c       8.30865
_cell_angle_alpha    109.471
_cell_angle_beta     109.471
_cell_angle_gamma    109.471

_space_group_name_H-M_alt    "P 1"
_space_group_IT_number       1

loop_
  _space_group_symop_operation_xyz
  'x, y, z'

loop_
  _atom_site_type_symbol
  _atom_site_label
  _atom_site_symmetry_multiplicity
  _atom_site_fract_x
  _atom_site_fract_y
  _atom_site_fract_z
  _atom_site_occupancy
  Bi  Bi1       1.0  0.28100  0.00000  0.00000  1.0000
  Bi  Bi2       1.0  0.00000  0.28100  0.00000  1.0000
  Bi  Bi3       1.0  0.00000  0.00000  0.28100  1.0000
  Bi  Bi4       1.0  0.71900  0.71900  0.71900  1.0000
  Na  Na1       1.0  0.72200  0.47600  0.00000  1.0000
  Na  Na2       1.0  0.47600  0.72200  0.00000  1.0000
  Na  Na3       1.0  0.52400  0.52400  0.24600  1.0000
  Na  Na4       1.0  0.75400  0.27800  0.27800  1.0000
  Na  Na5       1.0  0.27800  0.75400  0.27800  1.0000
  Na  Na6       1.0  0.72200  0.00000  0.47600  1.0000
  Na  Na7       1.0  0.00000  0.72200  0.47600  1.0000
  Na  Na8       1.0  0.52400  0.24600  0.52400  1.0000
  Na  Na9       1.0  0.24600  0.52400  0.52400  1.0000
  Na  Na10      1.0  0.47600  0.00000  0.72200  1.0000
  Na  Na11      1.0  0.00000  0.47600  0.72200  1.0000
  Na  Na12      1.0  0.27800  0.27800  0.75400  1.0000
  O   O1        1.0  0.48400  0.22900  0.00000  1.0000
  O   O2        1.0  0.22900  0.48400  0.00000  1.0000
  O   O3        1.0  0.48400  0.00000  0.22900  1.0000
  O   O4        1.0  0.00000  0.48400  0.22900  1.0000
  O   O5        1.0  0.77100  0.77100  0.25500  1.0000
  O   O6        1.0  0.22900  0.00000  0.48400  1.0000
  O   O7        1.0  0.00000  0.22900  0.48400  1.0000
  O   O8        1.0  0.74500  0.51600  0.51600  1.0000
  O   O9        1.0  0.51600  0.74500  0.51600  1.0000
  O   O10       1.0  0.51600  0.51600  0.74500  1.0000
  O   O11       1.0  0.77100  0.25500  0.77100  1.0000
  O   O12       1.0  0.25500  0.77100  0.77100  1.0000
