data_image0
_chemical_formula_structural       Ba6Hf5S16
_chemical_formula_sum              "Ba6 Hf5 S16"
_cell_length_a       4.9931
_cell_length_b       4.9931
_cell_length_c       28.05
_cell_angle_alpha    95.1029
_cell_angle_beta     95.1029
_cell_angle_gamma    90.0381

_space_group_name_H-M_alt    "P 1"
_space_group_IT_number       1

loop_
  _space_group_symop_operation_xyz
  'x, y, z'

loop_
  _atom_site_type_symbol
  _atom_site_label
  _atom_site_symmetry_multiplicity
  _atom_site_fract_x
  _atom_site_fract_y
  _atom_site_fract_z
  _atom_site_occupancy
  Ba  Ba1       1.0  0.54500  0.54500  0.08950  1.0000
  Ba  Ba2       1.0  0.63300  0.63300  0.26600  1.0000
  Ba  Ba3       1.0  0.71800  0.71800  0.43600  1.0000
  Ba  Ba4       1.0  0.28200  0.28200  0.56400  1.0000
  Ba  Ba5       1.0  0.36700  0.36700  0.73400  1.0000
  Ba  Ba6       1.0  0.45500  0.45500  0.91000  1.0000
  Hf  Hf1       1.0  0.00000  0.00000  0.00000  1.0000
  Hf  Hf2       1.0  0.09040  0.09040  0.18100  1.0000
  Hf  Hf3       1.0  0.18100  0.18100  0.36300  1.0000
  Hf  Hf4       1.0  0.81900  0.81900  0.63700  1.0000
  Hf  Hf5       1.0  0.91000  0.91000  0.81900  1.0000
  S   S1        1.0  0.50000  0.00000  0.00000  1.0000
  S   S2        1.0  0.00000  0.50000  0.00000  1.0000
  S   S3        1.0  0.04500  0.04500  0.09010  1.0000
  S   S4        1.0  0.59000  0.08990  0.18000  1.0000
  S   S5        1.0  0.08990  0.59000  0.18000  1.0000
  S   S6        1.0  0.13500  0.13500  0.27000  1.0000
  S   S7        1.0  0.67900  0.17900  0.35800  1.0000
  S   S8        1.0  0.17900  0.67900  0.35800  1.0000
  S   S9        1.0  0.22600  0.22600  0.45200  1.0000
  S   S10       1.0  0.77400  0.77400  0.54800  1.0000
  S   S11       1.0  0.82100  0.32100  0.64200  1.0000
  S   S12       1.0  0.32100  0.82100  0.64200  1.0000
  S   S13       1.0  0.86500  0.86500  0.73000  1.0000
  S   S14       1.0  0.91000  0.41000  0.82000  1.0000
  S   S15       1.0  0.41000  0.91000  0.82000  1.0000
  S   S16       1.0  0.95500  0.95500  0.91000  1.0000
