data_image0
_chemical_formula_structural       O18Pb3Re6
_chemical_formula_sum              "O18 Pb3 Re6"
_cell_length_a       7.0704
_cell_length_b       7.0704
_cell_length_c       7.0704
_cell_angle_alpha    94.8908
_cell_angle_beta     94.8908
_cell_angle_gamma    94.8908

_space_group_name_H-M_alt    "P 1"
_space_group_IT_number       1

loop_
  _space_group_symop_operation_xyz
  'x, y, z'

loop_
  _atom_site_type_symbol
  _atom_site_label
  _atom_site_symmetry_multiplicity
  _atom_site_fract_x
  _atom_site_fract_y
  _atom_site_fract_z
  _atom_site_occupancy
  O   O1        1.0  0.71100  0.28900  0.00000  1.0000
  O   O2        1.0  0.28900  0.71100  0.00000  1.0000
  O   O3        1.0  0.09620  0.38100  0.09620  1.0000
  O   O4        1.0  0.38100  0.09620  0.09620  1.0000
  O   O5        1.0  0.62600  0.62600  0.16700  1.0000
  O   O6        1.0  0.71100  0.00000  0.28900  1.0000
  O   O7        1.0  0.00000  0.71100  0.28900  1.0000
  O   O8        1.0  0.83300  0.37400  0.37400  1.0000
  O   O9        1.0  0.37400  0.83300  0.37400  1.0000
  O   O10       1.0  0.09620  0.09620  0.38100  1.0000
  O   O11       1.0  0.90400  0.90400  0.61900  1.0000
  O   O12       1.0  0.16700  0.62600  0.62600  1.0000
  O   O13       1.0  0.62600  0.16700  0.62600  1.0000
  O   O14       1.0  0.28900  0.00000  0.71100  1.0000
  O   O15       1.0  1.00000  0.28900  0.71100  1.0000
  O   O16       1.0  0.37400  0.37400  0.83300  1.0000
  O   O17       1.0  0.61900  0.90400  0.90400  1.0000
  O   O18       1.0  0.90400  0.61900  0.90400  1.0000
  Pb  Pb1       1.0  0.00000  0.00000  0.00000  1.0000
  Pb  Pb2       1.0  0.33100  0.33100  0.33100  1.0000
  Pb  Pb3       1.0  0.66900  0.66900  0.66900  1.0000
  Re  Re1       1.0  0.50000  0.85000  0.15000  1.0000
  Re  Re2       1.0  0.85000  0.50000  0.15000  1.0000
  Re  Re3       1.0  0.85000  0.15000  0.50000  1.0000
  Re  Re4       1.0  0.15000  0.85000  0.50000  1.0000
  Re  Re5       1.0  0.15000  0.50000  0.85000  1.0000
  Re  Re6       1.0  0.50000  0.15000  0.85000  1.0000
