data_image0
_chemical_formula_structural       In16Te12
_chemical_formula_sum              "In16 Te12"
_cell_length_a       15.7906
_cell_length_b       12.8913
_cell_length_c       4.49301
_cell_angle_alpha    90
_cell_angle_beta     90
_cell_angle_gamma    90

_space_group_name_H-M_alt    "P 1"
_space_group_IT_number       1

loop_
  _space_group_symop_operation_xyz
  'x, y, z'

loop_
  _atom_site_type_symbol
  _atom_site_label
  _atom_site_symmetry_multiplicity
  _atom_site_fract_x
  _atom_site_fract_y
  _atom_site_fract_z
  _atom_site_occupancy
  In  In1       1.0  0.71400  0.34400  0.00000  1.0000
  In  In2       1.0  0.03480  0.35300  0.00000  1.0000
  In  In3       1.0  0.42800  0.39600  0.00000  1.0000
  In  In4       1.0  0.18300  0.47500  0.00000  1.0000
  In  In5       1.0  0.81700  0.52500  0.00000  1.0000
  In  In6       1.0  0.57200  0.60400  0.00000  1.0000
  In  In7       1.0  0.96500  0.64700  0.00000  1.0000
  In  In8       1.0  0.28600  0.65600  0.00000  1.0000
  In  In9       1.0  0.68300  0.02520  0.50000  1.0000
  In  In10      1.0  0.92800  0.10400  0.50000  1.0000
  In  In11      1.0  0.53500  0.14700  0.50000  1.0000
  In  In12      1.0  0.21400  0.15600  0.50000  1.0000
  In  In13      1.0  0.78600  0.84400  0.50000  1.0000
  In  In14      1.0  0.46500  0.85300  0.50000  1.0000
  In  In15      1.0  0.07210  0.89600  0.50000  1.0000
  In  In16      1.0  0.31700  0.97500  0.50000  1.0000
  Te  Te1       1.0  0.77600  0.13500  0.00000  1.0000
  Te  Te2       1.0  0.09460  0.13800  0.00000  1.0000
  Te  Te3       1.0  0.42100  0.14800  0.00000  1.0000
  Te  Te4       1.0  0.57900  0.85200  0.00000  1.0000
  Te  Te5       1.0  0.90500  0.86200  0.00000  1.0000
  Te  Te6       1.0  0.22400  0.86500  0.00000  1.0000
  Te  Te7       1.0  0.92100  0.35200  0.50000  1.0000
  Te  Te8       1.0  0.59500  0.36200  0.50000  1.0000
  Te  Te9       1.0  0.27600  0.36500  0.50000  1.0000
  Te  Te10      1.0  0.72400  0.63500  0.50000  1.0000
  Te  Te11      1.0  0.40500  0.63800  0.50000  1.0000
  Te  Te12      1.0  0.07920  0.64800  0.50000  1.0000
