data_image0
_chemical_formula_structural       Ca2O18V8
_chemical_formula_sum              "Ca2 O18 V8"
_cell_length_a       8.33565
_cell_length_b       8.33565
_cell_length_c       4.901
_cell_angle_alpha    90
_cell_angle_beta     90
_cell_angle_gamma    90

_space_group_name_H-M_alt    "P 1"
_space_group_IT_number       1

loop_
  _space_group_symop_operation_xyz
  'x, y, z'

loop_
  _atom_site_type_symbol
  _atom_site_label
  _atom_site_symmetry_multiplicity
  _atom_site_fract_x
  _atom_site_fract_y
  _atom_site_fract_z
  _atom_site_occupancy
  Ca  Ca1       1.0  0.25000  0.25000  0.17100  1.0000
  Ca  Ca2       1.0  0.75000  0.75000  0.82900  1.0000
  O   O1        1.0  0.67700  0.00298  0.02910  1.0000
  O   O2        1.0  0.82300  0.49700  0.02910  1.0000
  O   O3        1.0  0.49700  0.67700  0.02910  1.0000
  O   O4        1.0  0.00298  0.82300  0.02910  1.0000
  O   O5        1.0  0.14400  0.04390  0.47500  1.0000
  O   O6        1.0  0.45600  0.14400  0.47500  1.0000
  O   O7        1.0  0.04390  0.35600  0.47500  1.0000
  O   O8        1.0  0.35600  0.45600  0.47500  1.0000
  O   O9        1.0  0.75000  0.25000  0.50000  1.0000
  O   O10       1.0  0.25000  0.75000  0.50000  1.0000
  O   O11       1.0  0.64400  0.54400  0.52500  1.0000
  O   O12       1.0  0.95600  0.64400  0.52500  1.0000
  O   O13       1.0  0.54400  0.85600  0.52500  1.0000
  O   O14       1.0  0.85600  0.95600  0.52500  1.0000
  O   O15       1.0  0.99700  0.17700  0.97100  1.0000
  O   O16       1.0  0.50300  0.32300  0.97100  1.0000
  O   O17       1.0  0.17700  0.50300  0.97100  1.0000
  O   O18       1.0  0.32300  0.99700  0.97100  1.0000
  V   V1        1.0  0.65700  0.03860  0.35900  1.0000
  V   V2        1.0  0.84300  0.46100  0.35900  1.0000
  V   V3        1.0  0.46100  0.65700  0.35900  1.0000
  V   V4        1.0  0.03860  0.84300  0.35900  1.0000
  V   V5        1.0  0.96100  0.15700  0.64100  1.0000
  V   V6        1.0  0.53900  0.34300  0.64100  1.0000
  V   V7        1.0  0.15700  0.53900  0.64100  1.0000
  V   V8        1.0  0.34300  0.96100  0.64100  1.0000
