data_image0
_chemical_formula_structural       Dy10Si17
_chemical_formula_sum              "Dy10 Si17"
_cell_length_a       6.6803
_cell_length_b       8.28736
_cell_length_c       10.9683
_cell_angle_alpha    112.197
_cell_angle_beta     107.73
_cell_angle_gamma    90

_space_group_name_H-M_alt    "P 1"
_space_group_IT_number       1

loop_
  _space_group_symop_operation_xyz
  'x, y, z'

loop_
  _atom_site_type_symbol
  _atom_site_label
  _atom_site_symmetry_multiplicity
  _atom_site_fract_x
  _atom_site_fract_y
  _atom_site_fract_z
  _atom_site_occupancy
  Dy  Dy1       1.0  0.24000  0.24400  0.00000  1.0000
  Dy  Dy2       1.0  0.24000  0.75600  0.00000  1.0000
  Dy  Dy3       1.0  0.83300  0.35300  0.20100  1.0000
  Dy  Dy4       1.0  0.83300  0.84800  0.20100  1.0000
  Dy  Dy5       1.0  0.43700  0.45200  0.39900  1.0000
  Dy  Dy6       1.0  0.43700  0.94800  0.39900  1.0000
  Dy  Dy7       1.0  0.03740  0.05230  0.60100  1.0000
  Dy  Dy8       1.0  0.03740  0.54800  0.60100  1.0000
  Dy  Dy9       1.0  0.63200  0.15200  0.79900  1.0000
  Dy  Dy10      1.0  0.63200  0.64700  0.79900  1.0000
  Si  Si1       1.0  0.56900  0.00000  0.00000  1.0000
  Si  Si2       1.0  0.92000  0.00000  0.00000  1.0000
  Si  Si3       1.0  0.61200  0.50000  0.00000  1.0000
  Si  Si4       1.0  0.12600  0.58200  0.16400  1.0000
  Si  Si5       1.0  0.49900  0.60000  0.20100  1.0000
  Si  Si6       1.0  0.49600  0.10500  0.20900  1.0000
  Si  Si7       1.0  0.15600  0.12100  0.24200  1.0000
  Si  Si8       1.0  0.82300  0.19900  0.39800  1.0000
  Si  Si9       1.0  0.10300  0.70000  0.39900  1.0000
  Si  Si10      1.0  0.75900  0.71500  0.43100  1.0000
  Si  Si11      1.0  0.32800  0.28500  0.56900  1.0000
  Si  Si12      1.0  0.70400  0.30000  0.60100  1.0000
  Si  Si13      1.0  0.42500  0.80100  0.60200  1.0000
  Si  Si14      1.0  0.91400  0.87900  0.75800  1.0000
  Si  Si15      1.0  0.28700  0.89500  0.79100  1.0000
  Si  Si16      1.0  0.29900  0.40000  0.79900  1.0000
  Si  Si17      1.0  0.96200  0.41800  0.83600  1.0000
