data_image0
_chemical_formula_structural       Cl18Cu6Zr3
_chemical_formula_sum              "Cl18 Cu6 Zr3"
_cell_length_a       11.0035
_cell_length_b       11.0036
_cell_length_c       6.05257
_cell_angle_alpha    90
_cell_angle_beta     89.9988
_cell_angle_gamma    120

_space_group_name_H-M_alt    "P 1"
_space_group_IT_number       1

loop_
  _space_group_symop_operation_xyz
  'x, y, z'

loop_
  _atom_site_type_symbol
  _atom_site_label
  _atom_site_symmetry_multiplicity
  _atom_site_fract_x
  _atom_site_fract_y
  _atom_site_fract_z
  _atom_site_occupancy
  Cl  Cl1       1.0  0.77500  0.22500  0.21300  1.0000
  Cl  Cl2       1.0  0.77500  0.55000  0.21300  1.0000
  Cl  Cl3       1.0  0.45000  0.22500  0.21300  1.0000
  Cl  Cl4       1.0  0.11300  0.55700  0.25600  1.0000
  Cl  Cl5       1.0  0.44300  0.55700  0.25600  1.0000
  Cl  Cl6       1.0  0.44300  0.88700  0.25600  1.0000
  Cl  Cl7       1.0  0.10700  0.21500  0.26400  1.0000
  Cl  Cl8       1.0  0.10700  0.89300  0.26400  1.0000
  Cl  Cl9       1.0  0.78500  0.89300  0.26400  1.0000
  Cl  Cl10      1.0  0.21500  0.10700  0.73600  1.0000
  Cl  Cl11      1.0  0.89300  0.10700  0.73600  1.0000
  Cl  Cl12      1.0  0.89300  0.78500  0.73600  1.0000
  Cl  Cl13      1.0  0.55700  0.11300  0.74400  1.0000
  Cl  Cl14      1.0  0.55700  0.44300  0.74400  1.0000
  Cl  Cl15      1.0  0.88700  0.44300  0.74400  1.0000
  Cl  Cl16      1.0  0.55000  0.77500  0.78700  1.0000
  Cl  Cl17      1.0  0.22500  0.45000  0.78700  1.0000
  Cl  Cl18      1.0  0.22500  0.77500  0.78700  1.0000
  Cu  Cu1       1.0  0.56300  0.78200  0.41000  1.0000
  Cu  Cu2       1.0  0.21800  0.43700  0.41000  1.0000
  Cu  Cu3       1.0  0.21800  0.78200  0.41000  1.0000
  Cu  Cu4       1.0  0.78200  0.21800  0.59000  1.0000
  Cu  Cu5       1.0  0.78200  0.56300  0.59000  1.0000
  Cu  Cu6       1.0  0.43700  0.21800  0.59000  1.0000
  Zr  Zr1       1.0  0.33300  0.66700  0.00929  1.0000
  Zr  Zr2       1.0  0.00000  0.00000  0.50000  1.0000
  Zr  Zr3       1.0  0.66700  0.33300  0.99100  1.0000
