data_image0
_chemical_formula_structural       As8Pb4S16
_chemical_formula_sum              "As8 Pb4 S16"
_cell_length_a       18.9115
_cell_length_b       8.90687
_cell_length_c       3.79012
_cell_angle_alpha    90
_cell_angle_beta     90
_cell_angle_gamma    90

_space_group_name_H-M_alt    "P 1"
_space_group_IT_number       1

loop_
  _space_group_symop_operation_xyz
  'x, y, z'

loop_
  _atom_site_type_symbol
  _atom_site_label
  _atom_site_symmetry_multiplicity
  _atom_site_fract_x
  _atom_site_fract_y
  _atom_site_fract_z
  _atom_site_occupancy
  As  As1       1.0  0.49500  0.32900  0.25000  1.0000
  As  As2       1.0  0.87900  0.49100  0.25000  1.0000
  As  As3       1.0  0.00453  0.82900  0.25000  1.0000
  As  As4       1.0  0.62100  0.99100  0.25000  1.0000
  As  As5       1.0  0.37900  0.00883  0.75000  1.0000
  As  As6       1.0  0.99500  0.17100  0.75000  1.0000
  As  As7       1.0  0.12100  0.50900  0.75000  1.0000
  As  As8       1.0  0.50500  0.67100  0.75000  1.0000
  Pb  Pb1       1.0  0.18700  0.14400  0.25000  1.0000
  Pb  Pb2       1.0  0.31300  0.64400  0.25000  1.0000
  Pb  Pb3       1.0  0.68700  0.35600  0.75000  1.0000
  Pb  Pb4       1.0  0.81300  0.85600  0.75000  1.0000
  S   S1        1.0  0.92100  0.01700  0.25000  1.0000
  S   S2        1.0  0.72300  0.12600  0.25000  1.0000
  S   S3        1.0  0.34900  0.16900  0.25000  1.0000
  S   S4        1.0  0.05000  0.31600  0.25000  1.0000
  S   S5        1.0  0.57900  0.51700  0.25000  1.0000
  S   S6        1.0  0.77700  0.62600  0.25000  1.0000
  S   S7        1.0  0.15100  0.66900  0.25000  1.0000
  S   S8        1.0  0.45000  0.81600  0.25000  1.0000
  S   S9        1.0  0.55000  0.18400  0.75000  1.0000
  S   S10       1.0  0.84900  0.33100  0.75000  1.0000
  S   S11       1.0  0.22300  0.37400  0.75000  1.0000
  S   S12       1.0  0.42100  0.48300  0.75000  1.0000
  S   S13       1.0  0.95000  0.68400  0.75000  1.0000
  S   S14       1.0  0.65100  0.83100  0.75000  1.0000
  S   S15       1.0  0.27700  0.87400  0.75000  1.0000
  S   S16       1.0  0.07910  0.98300  0.75000  1.0000
