data_image0
_chemical_formula_structural       C4Mn20Si4
_chemical_formula_sum              "C4 Mn20 Si4"
_cell_length_a       6.33906
_cell_length_b       6.33906
_cell_length_c       7.46267
_cell_angle_alpha    90
_cell_angle_beta     90
_cell_angle_gamma    75.9942

_space_group_name_H-M_alt    "P 1"
_space_group_IT_number       1

loop_
  _space_group_symop_operation_xyz
  'x, y, z'

loop_
  _atom_site_type_symbol
  _atom_site_label
  _atom_site_symmetry_multiplicity
  _atom_site_fract_x
  _atom_site_fract_y
  _atom_site_fract_z
  _atom_site_occupancy
  C   C1        1.0  0.19300  0.80700  0.40500  1.0000
  C   C2        1.0  0.80500  0.19500  0.47300  1.0000
  C   C3        1.0  0.80700  0.19300  0.90500  1.0000
  C   C4        1.0  0.19500  0.80500  0.97300  1.0000
  Mn  Mn1       1.0  0.51500  0.19200  0.00284  1.0000
  Mn  Mn2       1.0  0.80800  0.48500  0.00284  1.0000
  Mn  Mn3       1.0  0.46700  0.53300  0.18700  1.0000
  Mn  Mn4       1.0  0.86400  0.13600  0.18900  1.0000
  Mn  Mn5       1.0  0.06350  0.70200  0.18900  1.0000
  Mn  Mn6       1.0  0.29800  0.93700  0.18900  1.0000
  Mn  Mn7       1.0  0.51400  0.19300  0.37400  1.0000
  Mn  Mn8       1.0  0.80700  0.48600  0.37400  1.0000
  Mn  Mn9       1.0  0.12500  0.12700  0.43900  1.0000
  Mn  Mn10      1.0  0.87300  0.87500  0.43900  1.0000
  Mn  Mn11      1.0  0.19200  0.51500  0.50300  1.0000
  Mn  Mn12      1.0  0.48500  0.80800  0.50300  1.0000
  Mn  Mn13      1.0  0.53300  0.46700  0.68700  1.0000
  Mn  Mn14      1.0  0.13600  0.86400  0.68900  1.0000
  Mn  Mn15      1.0  0.70200  0.06350  0.68900  1.0000
  Mn  Mn16      1.0  0.93700  0.29800  0.68900  1.0000
  Mn  Mn17      1.0  0.19300  0.51400  0.87400  1.0000
  Mn  Mn18      1.0  0.48600  0.80700  0.87400  1.0000
  Mn  Mn19      1.0  0.12700  0.12500  0.93900  1.0000
  Mn  Mn20      1.0  0.87500  0.87300  0.93900  1.0000
  Si  Si1       1.0  0.17500  0.33500  0.18900  1.0000
  Si  Si2       1.0  0.66500  0.82500  0.18900  1.0000
  Si  Si3       1.0  0.33500  0.17500  0.68900  1.0000
  Si  Si4       1.0  0.82500  0.66500  0.68900  1.0000
