data_image0
_chemical_formula_structural       K2O17Ti8
_chemical_formula_sum              "K2 O17 Ti8"
_cell_length_a       3.79313
_cell_length_b       7.97945
_cell_length_c       11.9998
_cell_angle_alpha    95.1227
_cell_angle_beta     90
_cell_angle_gamma    103.75

_space_group_name_H-M_alt    "P 1"
_space_group_IT_number       1

loop_
  _space_group_symop_operation_xyz
  'x, y, z'

loop_
  _atom_site_type_symbol
  _atom_site_label
  _atom_site_symmetry_multiplicity
  _atom_site_fract_x
  _atom_site_fract_y
  _atom_site_fract_z
  _atom_site_occupancy
  K   K1        1.0  0.44500  0.88900  0.19400  1.0000
  K   K2        1.0  0.55500  0.11100  0.80600  1.0000
  O   O1        1.0  0.00000  0.00000  0.00000  1.0000
  O   O2        1.0  0.83000  0.65900  0.06300  1.0000
  O   O3        1.0  0.63700  0.27400  0.08620  1.0000
  O   O4        1.0  0.22800  0.45700  0.18400  1.0000
  O   O5        1.0  0.06170  0.12300  0.22000  1.0000
  O   O6        1.0  0.85200  0.70400  0.28900  1.0000
  O   O7        1.0  0.68500  0.37000  0.32400  1.0000
  O   O8        1.0  0.27200  0.54400  0.43300  1.0000
  O   O9        1.0  0.10200  0.20300  0.46500  1.0000
  O   O10       1.0  0.89800  0.79700  0.53500  1.0000
  O   O11       1.0  0.72800  0.45600  0.56700  1.0000
  O   O12       1.0  0.31500  0.63000  0.67600  1.0000
  O   O13       1.0  0.14800  0.29600  0.71100  1.0000
  O   O14       1.0  0.93800  0.87700  0.78000  1.0000
  O   O15       1.0  0.77200  0.54300  0.81600  1.0000
  O   O16       1.0  0.36300  0.72600  0.91400  1.0000
  O   O17       1.0  0.17000  0.34100  0.93700  1.0000
  Ti  Ti1       1.0  0.11100  0.22200  0.07250  1.0000
  Ti  Ti2       1.0  0.75700  0.51500  0.17100  1.0000
  Ti  Ti3       1.0  0.15000  0.29900  0.33000  1.0000
  Ti  Ti4       1.0  0.80700  0.61400  0.42500  1.0000
  Ti  Ti5       1.0  0.19300  0.38600  0.57500  1.0000
  Ti  Ti6       1.0  0.85000  0.70100  0.67000  1.0000
  Ti  Ti7       1.0  0.24300  0.48500  0.82900  1.0000
  Ti  Ti8       1.0  0.88900  0.77800  0.92800  1.0000
