data_image0
_chemical_formula_structural       Cl16O6P4Sn2
_chemical_formula_sum              "Cl16 O6 P4 Sn2"
_cell_length_a       9.54724
_cell_length_b       10.7709
_cell_length_c       8.72809
_cell_angle_alpha    108.789
_cell_angle_beta     121.4
_cell_angle_gamma    91.2929

_space_group_name_H-M_alt    "P 1"
_space_group_IT_number       1

loop_
  _space_group_symop_operation_xyz
  'x, y, z'

loop_
  _atom_site_type_symbol
  _atom_site_label
  _atom_site_symmetry_multiplicity
  _atom_site_fract_x
  _atom_site_fract_y
  _atom_site_fract_z
  _atom_site_occupancy
  Cl  Cl1       1.0  0.79400  0.44500  0.01020  1.0000
  Cl  Cl2       1.0  0.60700  0.68300  0.02710  1.0000
  Cl  Cl3       1.0  0.72800  0.09240  0.19700  1.0000
  Cl  Cl4       1.0  0.40600  0.90500  0.21800  1.0000
  Cl  Cl5       1.0  0.00703  0.74400  0.29300  1.0000
  Cl  Cl6       1.0  0.18600  0.07700  0.43100  1.0000
  Cl  Cl7       1.0  0.50600  0.29600  0.46300  1.0000
  Cl  Cl8       1.0  0.17200  0.42500  0.49700  1.0000
  Cl  Cl9       1.0  0.82800  0.57500  0.50300  1.0000
  Cl  Cl10      1.0  0.49400  0.70400  0.53700  1.0000
  Cl  Cl11      1.0  0.81400  0.92300  0.56900  1.0000
  Cl  Cl12      1.0  0.99300  0.25600  0.70700  1.0000
  Cl  Cl13      1.0  0.59400  0.09500  0.78200  1.0000
  Cl  Cl14      1.0  0.27200  0.90800  0.80300  1.0000
  Cl  Cl15      1.0  0.39300  0.31700  0.97300  1.0000
  Cl  Cl16      1.0  0.20600  0.55500  0.99000  1.0000
  O   O1        1.0  0.19700  0.07980  0.05950  1.0000
  O   O2        1.0  0.94000  0.17800  0.08600  1.0000
  O   O3        1.0  0.18400  0.35400  0.12900  1.0000
  O   O4        1.0  0.81600  0.64600  0.87100  1.0000
  O   O5        1.0  0.06050  0.82200  0.91400  1.0000
  O   O6        1.0  0.80300  0.92000  0.94100  1.0000
  P   P1        1.0  0.79100  0.06540  0.00366  1.0000
  P   P2        1.0  0.80700  0.63300  0.03090  1.0000
  P   P3        1.0  0.19300  0.36700  0.96900  1.0000
  P   P4        1.0  0.20900  0.93500  0.99600  1.0000
  Sn  Sn1       1.0  0.20800  0.23500  0.30100  1.0000
  Sn  Sn2       1.0  0.79200  0.76500  0.69900  1.0000
