data_image0
_chemical_formula_structural       C8Hg8N8O4
_chemical_formula_sum              "C8 Hg8 N8 O4"
_cell_length_a       19.0643
_cell_length_b       3.86757
_cell_length_c       7.04547
_cell_angle_alpha    90
_cell_angle_beta     90
_cell_angle_gamma    90

_space_group_name_H-M_alt    "P 1"
_space_group_IT_number       1

loop_
  _space_group_symop_operation_xyz
  'x, y, z'

loop_
  _atom_site_type_symbol
  _atom_site_label
  _atom_site_symmetry_multiplicity
  _atom_site_fract_x
  _atom_site_fract_y
  _atom_site_fract_z
  _atom_site_occupancy
  C   C1        1.0  0.42400  0.25000  0.04400  1.0000
  C   C2        1.0  0.74800  0.25000  0.24300  1.0000
  C   C3        1.0  0.24800  0.25000  0.25700  1.0000
  C   C4        1.0  0.92400  0.25000  0.45600  1.0000
  C   C5        1.0  0.07580  0.75000  0.54400  1.0000
  C   C6        1.0  0.75200  0.75000  0.74300  1.0000
  C   C7        1.0  0.25200  0.75000  0.75700  1.0000
  C   C8        1.0  0.57600  0.75000  0.95600  1.0000
  Hg  Hg1       1.0  0.15400  0.25000  0.12100  1.0000
  Hg  Hg2       1.0  0.97700  0.25000  0.20500  1.0000
  Hg  Hg3       1.0  0.47700  0.25000  0.29500  1.0000
  Hg  Hg4       1.0  0.65400  0.25000  0.37900  1.0000
  Hg  Hg5       1.0  0.34600  0.75000  0.62100  1.0000
  Hg  Hg6       1.0  0.52300  0.75000  0.70500  1.0000
  Hg  Hg7       1.0  0.02330  0.75000  0.79500  1.0000
  Hg  Hg8       1.0  0.84600  0.75000  0.87900  1.0000
  N   N1        1.0  0.60100  0.75000  0.10800  1.0000
  N   N2        1.0  0.79900  0.25000  0.15300  1.0000
  N   N3        1.0  0.29900  0.25000  0.34700  1.0000
  N   N4        1.0  0.10100  0.75000  0.39200  1.0000
  N   N5        1.0  0.89900  0.25000  0.60800  1.0000
  N   N6        1.0  0.70100  0.75000  0.65300  1.0000
  N   N7        1.0  0.20100  0.75000  0.84700  1.0000
  N   N8        1.0  0.39900  0.25000  0.89200  1.0000
  O   O1        1.0  0.94300  0.75000  0.00057  1.0000
  O   O2        1.0  0.44300  0.75000  0.49900  1.0000
  O   O3        1.0  0.55700  0.25000  0.50100  1.0000
  O   O4        1.0  0.05730  0.25000  0.99900  1.0000
