data_image0
_chemical_formula_structural       Ba8Co4O16
_chemical_formula_sum              "Ba8 Co4 O16"
_cell_length_a       5.70671
_cell_length_b       7.64802
_cell_length_c       10.01
_cell_angle_alpha    90
_cell_angle_beta     90.7846
_cell_angle_gamma    90

_space_group_name_H-M_alt    "P 1"
_space_group_IT_number       1

loop_
  _space_group_symop_operation_xyz
  'x, y, z'

loop_
  _atom_site_type_symbol
  _atom_site_label
  _atom_site_symmetry_multiplicity
  _atom_site_fract_x
  _atom_site_fract_y
  _atom_site_fract_z
  _atom_site_occupancy
  Ba  Ba1       1.0  0.24900  0.48200  0.18200  1.0000
  Ba  Ba2       1.0  0.25100  0.98200  0.31800  1.0000
  Ba  Ba3       1.0  0.75100  0.51800  0.81800  1.0000
  Ba  Ba4       1.0  0.74900  0.01800  0.68200  1.0000
  Ba  Ba5       1.0  0.75200  0.85200  0.09090  1.0000
  Ba  Ba6       1.0  0.74800  0.35200  0.40900  1.0000
  Ba  Ba7       1.0  0.24800  0.14800  0.90900  1.0000
  Ba  Ba8       1.0  0.25200  0.64800  0.59100  1.0000
  Co  Co1       1.0  0.74800  0.27000  0.07870  1.0000
  Co  Co2       1.0  0.75200  0.77000  0.42100  1.0000
  Co  Co3       1.0  0.25200  0.73000  0.92100  1.0000
  Co  Co4       1.0  0.24800  0.23000  0.57900  1.0000
  O   O1        1.0  0.73600  0.19300  0.91000  1.0000
  O   O2        1.0  0.76400  0.69300  0.59000  1.0000
  O   O3        1.0  0.26400  0.80700  0.09010  1.0000
  O   O4        1.0  0.23600  0.30700  0.41000  1.0000
  O   O5        1.0  0.00508  0.17100  0.14600  1.0000
  O   O6        1.0  0.49500  0.67100  0.35400  1.0000
  O   O7        1.0  0.99500  0.82900  0.85400  1.0000
  O   O8        1.0  0.50500  0.32900  0.64600  1.0000
  O   O9        1.0  0.50100  0.17700  0.15500  1.0000
  O   O10       1.0  0.99900  0.67700  0.34500  1.0000
  O   O11       1.0  0.49900  0.82300  0.84500  1.0000
  O   O12       1.0  0.00058  0.32300  0.65500  1.0000
  O   O13       1.0  0.75300  0.50200  0.09700  1.0000
  O   O14       1.0  0.74800  0.00176  0.40300  1.0000
  O   O15       1.0  0.24700  0.49800  0.90300  1.0000
  O   O16       1.0  0.25300  0.99800  0.59700  1.0000
