data_image0
_chemical_formula_structural       Br18Cs6Mo4
_chemical_formula_sum              "Br18 Cs6 Mo4"
_cell_length_a       7.71019
_cell_length_b       7.71013
_cell_length_c       18.6586
_cell_angle_alpha    90
_cell_angle_beta     90
_cell_angle_gamma    120

_space_group_name_H-M_alt    "P 1"
_space_group_IT_number       1

loop_
  _space_group_symop_operation_xyz
  'x, y, z'

loop_
  _atom_site_type_symbol
  _atom_site_label
  _atom_site_symmetry_multiplicity
  _atom_site_fract_x
  _atom_site_fract_y
  _atom_site_fract_z
  _atom_site_occupancy
  Br  Br1       1.0  0.35100  0.17600  0.09350  1.0000
  Br  Br2       1.0  0.82400  0.17600  0.09350  1.0000
  Br  Br3       1.0  0.82400  0.64900  0.09350  1.0000
  Br  Br4       1.0  0.50100  0.00277  0.25000  1.0000
  Br  Br5       1.0  0.50100  0.49900  0.25000  1.0000
  Br  Br6       1.0  0.99700  0.49900  0.25000  1.0000
  Br  Br7       1.0  0.82400  0.64900  0.40600  1.0000
  Br  Br8       1.0  0.35100  0.17600  0.40600  1.0000
  Br  Br9       1.0  0.82400  0.17600  0.40600  1.0000
  Br  Br10      1.0  0.17600  0.82400  0.59400  1.0000
  Br  Br11      1.0  0.64900  0.82400  0.59400  1.0000
  Br  Br12      1.0  0.17600  0.35100  0.59400  1.0000
  Br  Br13      1.0  0.00275  0.50100  0.75000  1.0000
  Br  Br14      1.0  0.49900  0.50100  0.75000  1.0000
  Br  Br15      1.0  0.49900  0.99700  0.75000  1.0000
  Br  Br16      1.0  0.17600  0.35100  0.90600  1.0000
  Br  Br17      1.0  0.17600  0.82400  0.90600  1.0000
  Br  Br18      1.0  0.64900  0.82400  0.90600  1.0000
  Cs  Cs1       1.0  0.33300  0.66700  0.07150  1.0000
  Cs  Cs2       1.0  0.00000  0.00000  0.25000  1.0000
  Cs  Cs3       1.0  0.33300  0.66700  0.42800  1.0000
  Cs  Cs4       1.0  0.66700  0.33300  0.57200  1.0000
  Cs  Cs5       1.0  0.00000  0.00000  0.75000  1.0000
  Cs  Cs6       1.0  0.66700  0.33300  0.92800  1.0000
  Mo  Mo1       1.0  0.66700  0.33300  0.17300  1.0000
  Mo  Mo2       1.0  0.66700  0.33300  0.32700  1.0000
  Mo  Mo3       1.0  0.33300  0.66700  0.67300  1.0000
  Mo  Mo4       1.0  0.33300  0.66700  0.82700  1.0000
