data_image0
_chemical_formula_structural       Rh8Si8Y12
_chemical_formula_sum              "Rh8 Si8 Y12"
_cell_length_a       5.60342
_cell_length_b       7.78097
_cell_length_c       13.0997
_cell_angle_alpha    90
_cell_angle_beta     90
_cell_angle_gamma    90

_space_group_name_H-M_alt    "P 1"
_space_group_IT_number       1

loop_
  _space_group_symop_operation_xyz
  'x, y, z'

loop_
  _atom_site_type_symbol
  _atom_site_label
  _atom_site_symmetry_multiplicity
  _atom_site_fract_x
  _atom_site_fract_y
  _atom_site_fract_z
  _atom_site_occupancy
  Rh  Rh1       1.0  0.63700  0.46900  0.09010  1.0000
  Rh  Rh2       1.0  0.36300  0.96900  0.09010  1.0000
  Rh  Rh3       1.0  0.63700  0.46900  0.41000  1.0000
  Rh  Rh4       1.0  0.36300  0.96900  0.41000  1.0000
  Rh  Rh5       1.0  0.63700  0.03130  0.59000  1.0000
  Rh  Rh6       1.0  0.36300  0.53100  0.59000  1.0000
  Rh  Rh7       1.0  0.63700  0.03130  0.91000  1.0000
  Rh  Rh8       1.0  0.36300  0.53100  0.91000  1.0000
  Si  Si1       1.0  0.38000  0.25000  0.00000  1.0000
  Si  Si2       1.0  0.62000  0.75000  0.00000  1.0000
  Si  Si3       1.0  0.85900  0.39500  0.25000  1.0000
  Si  Si4       1.0  0.14100  0.89500  0.25000  1.0000
  Si  Si5       1.0  0.38000  0.25000  0.50000  1.0000
  Si  Si6       1.0  0.62000  0.75000  0.50000  1.0000
  Si  Si7       1.0  0.85900  0.10500  0.75000  1.0000
  Si  Si8       1.0  0.14100  0.60500  0.75000  1.0000
  Y   Y1        1.0  0.86300  0.10700  0.10400  1.0000
  Y   Y2        1.0  0.13700  0.60700  0.10400  1.0000
  Y   Y3        1.0  0.37100  0.24800  0.25000  1.0000
  Y   Y4        1.0  0.62900  0.74800  0.25000  1.0000
  Y   Y5        1.0  0.86300  0.10700  0.39600  1.0000
  Y   Y6        1.0  0.13700  0.60700  0.39600  1.0000
  Y   Y7        1.0  0.86300  0.39300  0.60400  1.0000
  Y   Y8        1.0  0.13700  0.89300  0.60400  1.0000
  Y   Y9        1.0  0.37100  0.25200  0.75000  1.0000
  Y   Y10       1.0  0.62900  0.75200  0.75000  1.0000
  Y   Y11       1.0  0.86300  0.39300  0.89600  1.0000
  Y   Y12       1.0  0.13700  0.89300  0.89600  1.0000
