data_image0
_chemical_formula_structural       F6H12O6Sn2Zn
_chemical_formula_sum              "F6 H12 O6 Sn2 Zn1"
_cell_length_a       6.58285
_cell_length_b       6.13121
_cell_length_c       6.62991
_cell_angle_alpha    100.977
_cell_angle_beta     102.316
_cell_angle_gamma    74.7971

_space_group_name_H-M_alt    "P 1"
_space_group_IT_number       1

loop_
  _space_group_symop_operation_xyz
  'x, y, z'

loop_
  _atom_site_type_symbol
  _atom_site_label
  _atom_site_symmetry_multiplicity
  _atom_site_fract_x
  _atom_site_fract_y
  _atom_site_fract_z
  _atom_site_occupancy
  F   F1        1.0  0.25600  0.13700  0.15300  1.0000
  F   F2        1.0  0.89400  0.54400  0.31100  1.0000
  F   F3        1.0  0.64500  0.98500  0.39400  1.0000
  F   F4        1.0  0.35500  0.01490  0.60600  1.0000
  F   F5        1.0  0.10600  0.45600  0.68900  1.0000
  F   F6        1.0  0.74400  0.86300  0.84700  1.0000
  H   H1        1.0  0.54400  0.74400  0.00804  1.0000
  H   H2        1.0  0.47600  0.66800  0.02070  1.0000
  H   H3        1.0  0.99400  0.62300  0.16400  1.0000
  H   H4        1.0  0.88900  0.29200  0.29400  1.0000
  H   H5        1.0  0.79300  0.07150  0.31100  1.0000
  H   H6        1.0  0.17400  0.87800  0.35700  1.0000
  H   H7        1.0  0.82600  0.12200  0.64300  1.0000
  H   H8        1.0  0.20700  0.92800  0.68900  1.0000
  H   H9        1.0  0.11100  0.70800  0.70600  1.0000
  H   H10       1.0  0.00631  0.37700  0.83600  1.0000
  H   H11       1.0  0.52400  0.33200  0.97900  1.0000
  H   H12       1.0  0.45600  0.25600  0.99200  1.0000
  O   O1        1.0  0.10400  0.67400  0.10700  1.0000
  O   O2        1.0  0.91700  0.12100  0.28200  1.0000
  O   O3        1.0  0.24900  0.72200  0.30100  1.0000
  O   O4        1.0  0.75100  0.27800  0.69900  1.0000
  O   O5        1.0  0.08320  0.87900  0.71800  1.0000
  O   O6        1.0  0.89600  0.32600  0.89300  1.0000
  Sn  Sn1       1.0  0.34400  0.30700  0.46200  1.0000
  Sn  Sn2       1.0  0.65600  0.69300  0.53800  1.0000
  Zn  Zn1       1.0  0.00000  0.00000  0.00000  1.0000
