data_image0
_chemical_formula_structural       B8Eu4O16
_chemical_formula_sum              "B8 Eu4 O16"
_cell_length_a       6.26593
_cell_length_b       11.7309
_cell_length_c       4.29219
_cell_angle_alpha    90
_cell_angle_beta     90
_cell_angle_gamma    90

_space_group_name_H-M_alt    "P 1"
_space_group_IT_number       1

loop_
  _space_group_symop_operation_xyz
  'x, y, z'

loop_
  _atom_site_type_symbol
  _atom_site_label
  _atom_site_symmetry_multiplicity
  _atom_site_fract_x
  _atom_site_fract_y
  _atom_site_fract_z
  _atom_site_occupancy
  B   B1        1.0  0.62700  0.19200  0.16900  1.0000
  B   B2        1.0  0.87300  0.80800  0.16900  1.0000
  B   B3        1.0  0.12700  0.30800  0.33100  1.0000
  B   B4        1.0  0.37300  0.69200  0.33100  1.0000
  B   B5        1.0  0.62700  0.30800  0.66900  1.0000
  B   B6        1.0  0.87300  0.69200  0.66900  1.0000
  B   B7        1.0  0.12700  0.19200  0.83100  1.0000
  B   B8        1.0  0.37300  0.80800  0.83100  1.0000
  Eu  Eu1       1.0  0.75000  0.50000  0.24000  1.0000
  Eu  Eu2       1.0  0.25000  0.00000  0.26000  1.0000
  Eu  Eu3       1.0  0.75000  0.00000  0.74000  1.0000
  Eu  Eu4       1.0  0.25000  0.50000  0.76000  1.0000
  O   O1        1.0  0.14800  0.20800  0.15500  1.0000
  O   O2        1.0  0.35200  0.79200  0.15500  1.0000
  O   O3        1.0  0.09650  0.41300  0.23100  1.0000
  O   O4        1.0  0.40300  0.58700  0.23100  1.0000
  O   O5        1.0  0.59700  0.08670  0.26900  1.0000
  O   O6        1.0  0.90300  0.91300  0.26900  1.0000
  O   O7        1.0  0.64800  0.29200  0.34500  1.0000
  O   O8        1.0  0.85200  0.70800  0.34500  1.0000
  O   O9        1.0  0.14800  0.29200  0.65500  1.0000
  O   O10       1.0  0.35200  0.70800  0.65500  1.0000
  O   O11       1.0  0.09650  0.08670  0.73100  1.0000
  O   O12       1.0  0.40300  0.91300  0.73100  1.0000
  O   O13       1.0  0.59700  0.41300  0.76900  1.0000
  O   O14       1.0  0.90300  0.58700  0.76900  1.0000
  O   O15       1.0  0.64800  0.20800  0.84500  1.0000
  O   O16       1.0  0.85200  0.79200  0.84500  1.0000
