data_image0
_chemical_formula_structural       Cl4K8N4O12
_chemical_formula_sum              "Cl4 K8 N4 O12"
_cell_length_a       5.4897
_cell_length_b       10.0897
_cell_length_c       7.53825
_cell_angle_alpha    90
_cell_angle_beta     90
_cell_angle_gamma    90

_space_group_name_H-M_alt    "P 1"
_space_group_IT_number       1

loop_
  _space_group_symop_operation_xyz
  'x, y, z'

loop_
  _atom_site_type_symbol
  _atom_site_label
  _atom_site_symmetry_multiplicity
  _atom_site_fract_x
  _atom_site_fract_y
  _atom_site_fract_z
  _atom_site_occupancy
  Cl  Cl1       1.0  0.25000  0.41700  0.22300  1.0000
  Cl  Cl2       1.0  0.75000  0.91700  0.27700  1.0000
  Cl  Cl3       1.0  0.25000  0.08300  0.72300  1.0000
  Cl  Cl4       1.0  0.75000  0.58300  0.77700  1.0000
  K   K1        1.0  0.75000  0.30700  0.01150  1.0000
  K   K2        1.0  0.25000  0.09240  0.15700  1.0000
  K   K3        1.0  0.75000  0.59200  0.34300  1.0000
  K   K4        1.0  0.25000  0.80700  0.48800  1.0000
  K   K5        1.0  0.75000  0.19300  0.51200  1.0000
  K   K6        1.0  0.25000  0.40800  0.65700  1.0000
  K   K7        1.0  0.75000  0.90800  0.84300  1.0000
  K   K8        1.0  0.25000  0.69300  0.98800  1.0000
  N   N1        1.0  0.25000  0.40900  0.03320  1.0000
  N   N2        1.0  0.75000  0.90900  0.46700  1.0000
  N   N3        1.0  0.25000  0.09150  0.53300  1.0000
  N   N4        1.0  0.75000  0.59100  0.96700  1.0000
  O   O1        1.0  0.53100  0.85200  0.18600  1.0000
  O   O2        1.0  0.96900  0.85200  0.18600  1.0000
  O   O3        1.0  0.75000  0.05710  0.19600  1.0000
  O   O4        1.0  0.25000  0.55700  0.30400  1.0000
  O   O5        1.0  0.03150  0.35200  0.31400  1.0000
  O   O6        1.0  0.46900  0.35200  0.31400  1.0000
  O   O7        1.0  0.53100  0.64800  0.68600  1.0000
  O   O8        1.0  0.96900  0.64800  0.68600  1.0000
  O   O9        1.0  0.75000  0.44300  0.69600  1.0000
  O   O10       1.0  0.25000  0.94300  0.80400  1.0000
  O   O11       1.0  0.03150  0.14800  0.81400  1.0000
  O   O12       1.0  0.46900  0.14800  0.81400  1.0000
