data_image0
_chemical_formula_structural       Cs8Fe4O16
_chemical_formula_sum              "Cs8 Fe4 O16"
_cell_length_a       8.33941
_cell_length_b       6.20244
_cell_length_c       10.9573
_cell_angle_alpha    90
_cell_angle_beta     90
_cell_angle_gamma    90

_space_group_name_H-M_alt    "P 1"
_space_group_IT_number       1

loop_
  _space_group_symop_operation_xyz
  'x, y, z'

loop_
  _atom_site_type_symbol
  _atom_site_label
  _atom_site_symmetry_multiplicity
  _atom_site_fract_x
  _atom_site_fract_y
  _atom_site_fract_z
  _atom_site_occupancy
  Cs  Cs1       1.0  0.16700  0.25000  0.09110  1.0000
  Cs  Cs2       1.0  0.51400  0.75000  0.19500  1.0000
  Cs  Cs3       1.0  0.01450  0.75000  0.30500  1.0000
  Cs  Cs4       1.0  0.66700  0.25000  0.40900  1.0000
  Cs  Cs5       1.0  0.33300  0.75000  0.59100  1.0000
  Cs  Cs6       1.0  0.98600  0.25000  0.69500  1.0000
  Cs  Cs7       1.0  0.48600  0.25000  0.80500  1.0000
  Cs  Cs8       1.0  0.83300  0.75000  0.90900  1.0000
  Fe  Fe1       1.0  0.73600  0.25000  0.08110  1.0000
  Fe  Fe2       1.0  0.23600  0.25000  0.41900  1.0000
  Fe  Fe3       1.0  0.76400  0.75000  0.58100  1.0000
  Fe  Fe4       1.0  0.26400  0.75000  0.91900  1.0000
  O   O1        1.0  0.20300  0.75000  0.06280  1.0000
  O   O2        1.0  0.53900  0.25000  0.08860  1.0000
  O   O3        1.0  0.80800  0.03210  0.14900  1.0000
  O   O4        1.0  0.80800  0.46800  0.14900  1.0000
  O   O5        1.0  0.30800  0.03210  0.35100  1.0000
  O   O6        1.0  0.30800  0.46800  0.35100  1.0000
  O   O7        1.0  0.03910  0.25000  0.41100  1.0000
  O   O8        1.0  0.70300  0.75000  0.43700  1.0000
  O   O9        1.0  0.29700  0.25000  0.56300  1.0000
  O   O10       1.0  0.96100  0.75000  0.58900  1.0000
  O   O11       1.0  0.69200  0.53200  0.64900  1.0000
  O   O12       1.0  0.69200  0.96800  0.64900  1.0000
  O   O13       1.0  0.19200  0.53200  0.85100  1.0000
  O   O14       1.0  0.19200  0.96800  0.85100  1.0000
  O   O15       1.0  0.46100  0.75000  0.91100  1.0000
  O   O16       1.0  0.79700  0.25000  0.93700  1.0000
