data_image0
_chemical_formula_structural       Cs8Mo4O4S12
_chemical_formula_sum              "Cs8 Mo4 O4 S12"
_cell_length_a       9.91675
_cell_length_b       7.33851
_cell_length_c       12.374
_cell_angle_alpha    90
_cell_angle_beta     90
_cell_angle_gamma    90

_space_group_name_H-M_alt    "P 1"
_space_group_IT_number       1

loop_
  _space_group_symop_operation_xyz
  'x, y, z'

loop_
  _atom_site_type_symbol
  _atom_site_label
  _atom_site_symmetry_multiplicity
  _atom_site_fract_x
  _atom_site_fract_y
  _atom_site_fract_z
  _atom_site_occupancy
  Cs  Cs1       1.0  0.66900  0.25000  0.12600  1.0000
  Cs  Cs2       1.0  0.04360  0.75000  0.19000  1.0000
  Cs  Cs3       1.0  0.54400  0.75000  0.31000  1.0000
  Cs  Cs4       1.0  0.16900  0.25000  0.37400  1.0000
  Cs  Cs5       1.0  0.83100  0.75000  0.62600  1.0000
  Cs  Cs6       1.0  0.45600  0.25000  0.69000  1.0000
  Cs  Cs7       1.0  0.95600  0.25000  0.81000  1.0000
  Cs  Cs8       1.0  0.33100  0.75000  0.87400  1.0000
  Mo  Mo1       1.0  0.24300  0.25000  0.04840  1.0000
  Mo  Mo2       1.0  0.74300  0.25000  0.45200  1.0000
  Mo  Mo3       1.0  0.25700  0.75000  0.54800  1.0000
  Mo  Mo4       1.0  0.75700  0.75000  0.95200  1.0000
  O   O1        1.0  0.74300  0.75000  0.09370  1.0000
  O   O2        1.0  0.24300  0.75000  0.40600  1.0000
  O   O3        1.0  0.75700  0.25000  0.59400  1.0000
  O   O4        1.0  0.25700  0.25000  0.90600  1.0000
  S   S1        1.0  0.02780  0.25000  0.09580  1.0000
  S   S2        1.0  0.34200  0.00614  0.11800  1.0000
  S   S3        1.0  0.34200  0.49400  0.11800  1.0000
  S   S4        1.0  0.84200  0.00614  0.38200  1.0000
  S   S5        1.0  0.84200  0.49400  0.38200  1.0000
  S   S6        1.0  0.52800  0.25000  0.40400  1.0000
  S   S7        1.0  0.47200  0.75000  0.59600  1.0000
  S   S8        1.0  0.15800  0.50600  0.61800  1.0000
  S   S9        1.0  0.15800  0.99400  0.61800  1.0000
  S   S10       1.0  0.65800  0.50600  0.88200  1.0000
  S   S11       1.0  0.65800  0.99400  0.88200  1.0000
  S   S12       1.0  0.97200  0.75000  0.90400  1.0000
