data_image0
_chemical_formula_structural       Br18Cr4Cs6
_chemical_formula_sum              "Br18 Cr4 Cs6"
_cell_length_a       7.57812
_cell_length_b       7.57796
_cell_length_c       18.9413
_cell_angle_alpha    90
_cell_angle_beta     90
_cell_angle_gamma    120.001

_space_group_name_H-M_alt    "P 1"
_space_group_IT_number       1

loop_
  _space_group_symop_operation_xyz
  'x, y, z'

loop_
  _atom_site_type_symbol
  _atom_site_label
  _atom_site_symmetry_multiplicity
  _atom_site_fract_x
  _atom_site_fract_y
  _atom_site_fract_z
  _atom_site_occupancy
  Br  Br1       1.0  0.82400  0.64800  0.09120  1.0000
  Br  Br2       1.0  0.35300  0.17600  0.09120  1.0000
  Br  Br3       1.0  0.82400  0.17600  0.09120  1.0000
  Br  Br4       1.0  0.51500  0.03030  0.25000  1.0000
  Br  Br5       1.0  0.51500  0.48500  0.25000  1.0000
  Br  Br6       1.0  0.97000  0.48500  0.25000  1.0000
  Br  Br7       1.0  0.35300  0.17600  0.40900  1.0000
  Br  Br8       1.0  0.82400  0.17600  0.40900  1.0000
  Br  Br9       1.0  0.82400  0.64800  0.40900  1.0000
  Br  Br10      1.0  0.17600  0.35200  0.59100  1.0000
  Br  Br11      1.0  0.17600  0.82400  0.59100  1.0000
  Br  Br12      1.0  0.64700  0.82400  0.59100  1.0000
  Br  Br13      1.0  0.03020  0.51500  0.75000  1.0000
  Br  Br14      1.0  0.48500  0.51500  0.75000  1.0000
  Br  Br15      1.0  0.48500  0.97000  0.75000  1.0000
  Br  Br16      1.0  0.17600  0.82400  0.90900  1.0000
  Br  Br17      1.0  0.64700  0.82400  0.90900  1.0000
  Br  Br18      1.0  0.17600  0.35200  0.90900  1.0000
  Cr  Cr1       1.0  0.66700  0.33300  0.16100  1.0000
  Cr  Cr2       1.0  0.66700  0.33300  0.33900  1.0000
  Cr  Cr3       1.0  0.33300  0.66700  0.66100  1.0000
  Cr  Cr4       1.0  0.33300  0.66700  0.83900  1.0000
  Cs  Cs1       1.0  0.33300  0.66700  0.07500  1.0000
  Cs  Cs2       1.0  0.00000  0.00000  0.25000  1.0000
  Cs  Cs3       1.0  0.33300  0.66700  0.42500  1.0000
  Cs  Cs4       1.0  0.66700  0.33300  0.57500  1.0000
  Cs  Cs5       1.0  0.00000  0.00000  0.75000  1.0000
  Cs  Cs6       1.0  0.66700  0.33300  0.92500  1.0000
