data_image0
_chemical_formula_structural       O16S8Sn4
_chemical_formula_sum              "O16 S8 Sn4"
_cell_length_a       6.94043
_cell_length_b       7.38395
_cell_length_c       12.5157
_cell_angle_alpha    90
_cell_angle_beta     133.814
_cell_angle_gamma    90

_space_group_name_H-M_alt    "P 1"
_space_group_IT_number       1

loop_
  _space_group_symop_operation_xyz
  'x, y, z'

loop_
  _atom_site_type_symbol
  _atom_site_label
  _atom_site_symmetry_multiplicity
  _atom_site_fract_x
  _atom_site_fract_y
  _atom_site_fract_z
  _atom_site_occupancy
  O   O1        1.0  0.63500  0.70000  0.00172  1.0000
  O   O2        1.0  0.93700  0.97100  0.09960  1.0000
  O   O3        1.0  0.47600  0.83500  0.14900  1.0000
  O   O4        1.0  0.77200  0.10600  0.24300  1.0000
  O   O5        1.0  0.22800  0.60600  0.25700  1.0000
  O   O6        1.0  0.52400  0.33500  0.35100  1.0000
  O   O7        1.0  0.06340  0.47100  0.40000  1.0000
  O   O8        1.0  0.36500  0.20000  0.49800  1.0000
  O   O9        1.0  0.63500  0.80000  0.50200  1.0000
  O   O10       1.0  0.93700  0.52900  0.60000  1.0000
  O   O11       1.0  0.47600  0.66500  0.64900  1.0000
  O   O12       1.0  0.77200  0.39400  0.74300  1.0000
  O   O13       1.0  0.22800  0.89400  0.75700  1.0000
  O   O14       1.0  0.52400  0.16500  0.85100  1.0000
  O   O15       1.0  0.06340  0.02930  0.90000  1.0000
  O   O16       1.0  0.36500  0.30000  0.99800  1.0000
  S   S1        1.0  0.19300  0.18800  0.00865  1.0000
  S   S2        1.0  0.55000  0.01970  0.22400  1.0000
  S   S3        1.0  0.45000  0.52000  0.27600  1.0000
  S   S4        1.0  0.80700  0.68800  0.49100  1.0000
  S   S5        1.0  0.19300  0.31200  0.50900  1.0000
  S   S6        1.0  0.55000  0.48000  0.72400  1.0000
  S   S7        1.0  0.45000  0.98000  0.77600  1.0000
  S   S8        1.0  0.80700  0.81200  0.99100  1.0000
  Sn  Sn1       1.0  0.78600  0.26000  0.09100  1.0000
  Sn  Sn2       1.0  0.21400  0.76000  0.40900  1.0000
  Sn  Sn3       1.0  0.78600  0.24000  0.59100  1.0000
  Sn  Sn4       1.0  0.21400  0.74000  0.90900  1.0000
