data_image0
_chemical_formula_structural       Na2O16Sb10
_chemical_formula_sum              "Na2 O16 Sb10"
_cell_length_a       9.5588
_cell_length_b       7.27911
_cell_length_c       7.10484
_cell_angle_alpha    84.3152
_cell_angle_beta     105.81
_cell_angle_gamma    107.263

_space_group_name_H-M_alt    "P 1"
_space_group_IT_number       1

loop_
  _space_group_symop_operation_xyz
  'x, y, z'

loop_
  _atom_site_type_symbol
  _atom_site_label
  _atom_site_symmetry_multiplicity
  _atom_site_fract_x
  _atom_site_fract_y
  _atom_site_fract_z
  _atom_site_occupancy
  Na  Na1       1.0  0.97200  0.56200  0.24200  1.0000
  Na  Na2       1.0  0.02760  0.43800  0.75800  1.0000
  O   O1        1.0  0.23100  0.48300  0.08420  1.0000
  O   O2        1.0  0.80200  0.19700  0.15000  1.0000
  O   O3        1.0  0.57400  0.53700  0.17500  1.0000
  O   O4        1.0  0.83900  0.80400  0.18400  1.0000
  O   O5        1.0  0.21200  0.83800  0.24600  1.0000
  O   O6        1.0  0.44400  0.65000  0.44400  1.0000
  O   O7        1.0  0.82300  0.44700  0.46000  1.0000
  O   O8        1.0  0.91900  0.10200  0.49700  1.0000
  O   O9        1.0  0.08140  0.89800  0.50300  1.0000
  O   O10       1.0  0.17700  0.55300  0.54000  1.0000
  O   O11       1.0  0.55600  0.35000  0.55600  1.0000
  O   O12       1.0  0.78800  0.16200  0.75400  1.0000
  O   O13       1.0  0.16100  0.19600  0.81600  1.0000
  O   O14       1.0  0.42600  0.46300  0.82500  1.0000
  O   O15       1.0  0.19800  0.80300  0.85000  1.0000
  O   O16       1.0  0.76900  0.51700  0.91600  1.0000
  Sb  Sb1       1.0  0.34200  0.30200  0.04260  1.0000
  Sb  Sb2       1.0  0.34400  0.76700  0.11100  1.0000
  Sb  Sb3       1.0  0.97700  0.06460  0.25000  1.0000
  Sb  Sb4       1.0  0.71700  0.16700  0.45100  1.0000
  Sb  Sb5       1.0  0.67600  0.60500  0.46500  1.0000
  Sb  Sb6       1.0  0.32400  0.39500  0.53500  1.0000
  Sb  Sb7       1.0  0.28300  0.83300  0.54900  1.0000
  Sb  Sb8       1.0  0.02270  0.93500  0.75000  1.0000
  Sb  Sb9       1.0  0.65600  0.23300  0.88900  1.0000
  Sb  Sb10      1.0  0.65800  0.69800  0.95700  1.0000
