data_image0
_chemical_formula_structural       As4Cu12S12
_chemical_formula_sum              "As4 Cu12 S12"
_cell_length_a       8.63378
_cell_length_b       8.63378
_cell_length_c       8.63378
_cell_angle_alpha    109.471
_cell_angle_beta     109.471
_cell_angle_gamma    109.471

_space_group_name_H-M_alt    "P 1"
_space_group_IT_number       1

loop_
  _space_group_symop_operation_xyz
  'x, y, z'

loop_
  _atom_site_type_symbol
  _atom_site_label
  _atom_site_symmetry_multiplicity
  _atom_site_fract_x
  _atom_site_fract_y
  _atom_site_fract_z
  _atom_site_occupancy
  As  As1       1.0  0.52400  0.00000  0.00000  1.0000
  As  As2       1.0  0.00000  0.52400  0.00000  1.0000
  As  As3       1.0  0.47600  0.47600  0.47600  1.0000
  As  As4       1.0  0.00000  0.00000  0.52400  1.0000
  Cu  Cu1       1.0  0.18100  0.18100  0.00000  1.0000
  Cu  Cu2       1.0  0.81900  0.81900  0.00000  1.0000
  Cu  Cu3       1.0  0.18100  0.00000  0.18100  1.0000
  Cu  Cu4       1.0  0.00000  0.18100  0.18100  1.0000
  Cu  Cu5       1.0  0.75000  0.50000  0.25000  1.0000
  Cu  Cu6       1.0  0.50000  0.75000  0.25000  1.0000
  Cu  Cu7       1.0  0.75000  0.25000  0.50000  1.0000
  Cu  Cu8       1.0  0.25000  0.75000  0.50000  1.0000
  Cu  Cu9       1.0  0.50000  0.25000  0.75000  1.0000
  Cu  Cu10      1.0  0.25000  0.50000  0.75000  1.0000
  Cu  Cu11      1.0  0.81900  0.00000  0.81900  1.0000
  Cu  Cu12      1.0  0.00000  0.81900  0.81900  1.0000
  S   S1        1.0  0.46600  0.23900  0.00000  1.0000
  S   S2        1.0  0.23900  0.46600  0.00000  1.0000
  S   S3        1.0  0.76100  0.76100  0.22700  1.0000
  S   S4        1.0  0.46600  0.00000  0.23900  1.0000
  S   S5        1.0  0.00000  0.46600  0.23900  1.0000
  S   S6        1.0  0.23900  0.00000  0.46600  1.0000
  S   S7        1.0  0.00000  0.23900  0.46600  1.0000
  S   S8        1.0  0.77300  0.53400  0.53400  1.0000
  S   S9        1.0  0.53400  0.77300  0.53400  1.0000
  S   S10       1.0  0.76100  0.22700  0.76100  1.0000
  S   S11       1.0  0.22700  0.76100  0.76100  1.0000
  S   S12       1.0  0.53400  0.53400  0.77300  1.0000
