data_image0
_chemical_formula_structural       Br16Cs8Mn4
_chemical_formula_sum              "Br16 Cs8 Mn4"
_cell_length_a       10.4044
_cell_length_b       7.89307
_cell_length_c       14.0521
_cell_angle_alpha    90
_cell_angle_beta     90
_cell_angle_gamma    90

_space_group_name_H-M_alt    "P 1"
_space_group_IT_number       1

loop_
  _space_group_symop_operation_xyz
  'x, y, z'

loop_
  _atom_site_type_symbol
  _atom_site_label
  _atom_site_symmetry_multiplicity
  _atom_site_fract_x
  _atom_site_fract_y
  _atom_site_fract_z
  _atom_site_occupancy
  Br  Br1       1.0  0.18500  0.75000  0.08970  1.0000
  Br  Br2       1.0  0.49100  0.25000  0.09340  1.0000
  Br  Br3       1.0  0.82400  0.50400  0.15400  1.0000
  Br  Br4       1.0  0.82400  0.99600  0.15400  1.0000
  Br  Br5       1.0  0.32400  0.50400  0.34600  1.0000
  Br  Br6       1.0  0.32400  0.99600  0.34600  1.0000
  Br  Br7       1.0  0.99100  0.25000  0.40700  1.0000
  Br  Br8       1.0  0.68500  0.75000  0.41000  1.0000
  Br  Br9       1.0  0.31500  0.25000  0.59000  1.0000
  Br  Br10      1.0  0.00863  0.75000  0.59300  1.0000
  Br  Br11      1.0  0.67600  0.00424  0.65400  1.0000
  Br  Br12      1.0  0.67600  0.49600  0.65400  1.0000
  Br  Br13      1.0  0.17600  0.00424  0.84600  1.0000
  Br  Br14      1.0  0.17600  0.49600  0.84600  1.0000
  Br  Br15      1.0  0.50900  0.75000  0.90700  1.0000
  Br  Br16      1.0  0.81500  0.25000  0.91000  1.0000
  Cs  Cs1       1.0  0.13000  0.25000  0.09300  1.0000
  Cs  Cs2       1.0  0.51900  0.75000  0.17100  1.0000
  Cs  Cs3       1.0  0.01950  0.75000  0.32900  1.0000
  Cs  Cs4       1.0  0.63000  0.25000  0.40700  1.0000
  Cs  Cs5       1.0  0.37000  0.75000  0.59300  1.0000
  Cs  Cs6       1.0  0.98100  0.25000  0.67100  1.0000
  Cs  Cs7       1.0  0.48100  0.25000  0.82900  1.0000
  Cs  Cs8       1.0  0.87000  0.75000  0.90700  1.0000
  Mn  Mn1       1.0  0.73000  0.25000  0.07700  1.0000
  Mn  Mn2       1.0  0.23000  0.25000  0.42300  1.0000
  Mn  Mn3       1.0  0.77000  0.75000  0.57700  1.0000
  Mn  Mn4       1.0  0.27000  0.75000  0.92300  1.0000
