data_image0
_chemical_formula_structural       O16S4Tl8
_chemical_formula_sum              "O16 S4 Tl8"
_cell_length_a       7.74573
_cell_length_b       10.5018
_cell_length_c       5.88937
_cell_angle_alpha    90
_cell_angle_beta     90
_cell_angle_gamma    90

_space_group_name_H-M_alt    "P 1"
_space_group_IT_number       1

loop_
  _space_group_symop_operation_xyz
  'x, y, z'

loop_
  _atom_site_type_symbol
  _atom_site_label
  _atom_site_symmetry_multiplicity
  _atom_site_fract_x
  _atom_site_fract_y
  _atom_site_fract_z
  _atom_site_occupancy
  O   O1        1.0  0.79800  0.15300  0.04250  1.0000
  O   O2        1.0  0.29800  0.34700  0.04250  1.0000
  O   O3        1.0  0.54400  0.07950  0.25000  1.0000
  O   O4        1.0  0.04360  0.42100  0.25000  1.0000
  O   O5        1.0  0.31000  0.54800  0.25000  1.0000
  O   O6        1.0  0.81000  0.95200  0.25000  1.0000
  O   O7        1.0  0.79800  0.15300  0.45700  1.0000
  O   O8        1.0  0.29800  0.34700  0.45700  1.0000
  O   O9        1.0  0.70200  0.65300  0.54300  1.0000
  O   O10       1.0  0.20200  0.84700  0.54300  1.0000
  O   O11       1.0  0.19000  0.04770  0.75000  1.0000
  O   O12       1.0  0.69000  0.45200  0.75000  1.0000
  O   O13       1.0  0.95600  0.57900  0.75000  1.0000
  O   O14       1.0  0.45600  0.92100  0.75000  1.0000
  O   O15       1.0  0.70200  0.65300  0.95700  1.0000
  O   O16       1.0  0.20200  0.84700  0.95700  1.0000
  S   S1        1.0  0.73500  0.08460  0.25000  1.0000
  S   S2        1.0  0.23500  0.41500  0.25000  1.0000
  S   S3        1.0  0.76500  0.58500  0.75000  1.0000
  S   S4        1.0  0.26500  0.91500  0.75000  1.0000
  Tl  Tl1       1.0  0.17100  0.08460  0.25000  1.0000
  Tl  Tl2       1.0  0.67100  0.41500  0.25000  1.0000
  Tl  Tl3       1.0  0.99300  0.69400  0.25000  1.0000
  Tl  Tl4       1.0  0.49300  0.80600  0.25000  1.0000
  Tl  Tl5       1.0  0.50700  0.19400  0.75000  1.0000
  Tl  Tl6       1.0  0.00685  0.30600  0.75000  1.0000
  Tl  Tl7       1.0  0.32900  0.58500  0.75000  1.0000
  Tl  Tl8       1.0  0.82900  0.91500  0.75000  1.0000
