data_image0
_chemical_formula_structural       Cl18K6W4
_chemical_formula_sum              "Cl18 K6 W4"
_cell_length_a       7.27411
_cell_length_b       7.27413
_cell_length_c       16.124
_cell_angle_alpha    90
_cell_angle_beta     90
_cell_angle_gamma    120

_space_group_name_H-M_alt    "P 1"
_space_group_IT_number       1

loop_
  _space_group_symop_operation_xyz
  'x, y, z'

loop_
  _atom_site_type_symbol
  _atom_site_label
  _atom_site_symmetry_multiplicity
  _atom_site_fract_x
  _atom_site_fract_y
  _atom_site_fract_z
  _atom_site_occupancy
  Cl  Cl1       1.0  0.12100  0.35200  0.09510  1.0000
  Cl  Cl2       1.0  0.23100  0.87900  0.09510  1.0000
  Cl  Cl3       1.0  0.64800  0.76900  0.09510  1.0000
  Cl  Cl4       1.0  0.57000  0.01560  0.25000  1.0000
  Cl  Cl5       1.0  0.44600  0.43000  0.25000  1.0000
  Cl  Cl6       1.0  0.98400  0.55400  0.25000  1.0000
  Cl  Cl7       1.0  0.64800  0.76900  0.40500  1.0000
  Cl  Cl8       1.0  0.23100  0.87900  0.40500  1.0000
  Cl  Cl9       1.0  0.12100  0.35200  0.40500  1.0000
  Cl  Cl10      1.0  0.76900  0.12100  0.59500  1.0000
  Cl  Cl11      1.0  0.87900  0.64800  0.59500  1.0000
  Cl  Cl12      1.0  0.35200  0.23100  0.59500  1.0000
  Cl  Cl13      1.0  0.01570  0.44600  0.75000  1.0000
  Cl  Cl14      1.0  0.55400  0.57000  0.75000  1.0000
  Cl  Cl15      1.0  0.43000  0.98400  0.75000  1.0000
  Cl  Cl16      1.0  0.35200  0.23100  0.90500  1.0000
  Cl  Cl17      1.0  0.76900  0.12100  0.90500  1.0000
  Cl  Cl18      1.0  0.87900  0.64800  0.90500  1.0000
  K   K1        1.0  0.66700  0.33300  0.07250  1.0000
  K   K2        1.0  0.00000  0.00000  0.25000  1.0000
  K   K3        1.0  0.66700  0.33300  0.42800  1.0000
  K   K4        1.0  0.33300  0.66700  0.57200  1.0000
  K   K5        1.0  0.00000  0.00000  0.75000  1.0000
  K   K6        1.0  0.33300  0.66700  0.92800  1.0000
  W   W1        1.0  0.33300  0.66700  0.17600  1.0000
  W   W2        1.0  0.33300  0.66700  0.32400  1.0000
  W   W3        1.0  0.66700  0.33300  0.67600  1.0000
  W   W4        1.0  0.66700  0.33300  0.82400  1.0000
