data_image0
_chemical_formula_structural       As6F12Sb2Se8
_chemical_formula_sum              "As6 F12 Sb2 Se8"
_cell_length_a       5.99262
_cell_length_b       9.23439
_cell_length_c       10.3369
_cell_angle_alpha    90
_cell_angle_beta     92.7276
_cell_angle_gamma    90

_space_group_name_H-M_alt    "P 1"
_space_group_IT_number       1

loop_
  _space_group_symop_operation_xyz
  'x, y, z'

loop_
  _atom_site_type_symbol
  _atom_site_label
  _atom_site_symmetry_multiplicity
  _atom_site_fract_x
  _atom_site_fract_y
  _atom_site_fract_z
  _atom_site_occupancy
  As  As1       1.0  0.97800  0.11400  0.15100  1.0000
  As  As2       1.0  0.97800  0.38600  0.15100  1.0000
  As  As3       1.0  0.06520  0.25000  0.49300  1.0000
  As  As4       1.0  0.93500  0.75000  0.50700  1.0000
  As  As5       1.0  0.02240  0.61400  0.84900  1.0000
  As  As6       1.0  0.02240  0.88600  0.84900  1.0000
  F   F1        1.0  0.73900  0.75000  0.05040  1.0000
  F   F2        1.0  0.34700  0.60300  0.06650  1.0000
  F   F3        1.0  0.34700  0.89700  0.06650  1.0000
  F   F4        1.0  0.64800  0.60400  0.27200  1.0000
  F   F5        1.0  0.64800  0.89600  0.27200  1.0000
  F   F6        1.0  0.25500  0.75000  0.28100  1.0000
  F   F7        1.0  0.74500  0.25000  0.71900  1.0000
  F   F8        1.0  0.35200  0.10400  0.72800  1.0000
  F   F9        1.0  0.35200  0.39600  0.72800  1.0000
  F   F10       1.0  0.65300  0.10300  0.93300  1.0000
  F   F11       1.0  0.65300  0.39700  0.93300  1.0000
  F   F12       1.0  0.26100  0.25000  0.95000  1.0000
  Sb  Sb1       1.0  0.50200  0.75000  0.16800  1.0000
  Sb  Sb2       1.0  0.49800  0.25000  0.83200  1.0000
  Se  Se1       1.0  0.64000  0.25000  0.22100  1.0000
  Se  Se2       1.0  0.15200  0.05330  0.35200  1.0000
  Se  Se3       1.0  0.15200  0.44700  0.35200  1.0000
  Se  Se4       1.0  0.66600  0.25000  0.44700  1.0000
  Se  Se5       1.0  0.33400  0.75000  0.55300  1.0000
  Se  Se6       1.0  0.84800  0.55300  0.64800  1.0000
  Se  Se7       1.0  0.84800  0.94700  0.64800  1.0000
  Se  Se8       1.0  0.36000  0.75000  0.77900  1.0000
