data_image0
_chemical_formula_structural       P8S20
_chemical_formula_sum              "P8 S20"
_cell_length_a       9.28975
_cell_length_b       9.40049
_cell_length_c       9.42753
_cell_angle_alpha    92.8283
_cell_angle_beta     100.992
_cell_angle_gamma    109.996

_space_group_name_H-M_alt    "P 1"
_space_group_IT_number       1

loop_
  _space_group_symop_operation_xyz
  'x, y, z'

loop_
  _atom_site_type_symbol
  _atom_site_label
  _atom_site_symmetry_multiplicity
  _atom_site_fract_x
  _atom_site_fract_y
  _atom_site_fract_z
  _atom_site_occupancy
  P   P1        1.0  0.18000  0.34600  0.03480  1.0000
  P   P2        1.0  0.74500  0.91200  0.18900  1.0000
  P   P3        1.0  0.08930  0.83900  0.28400  1.0000
  P   P4        1.0  0.73400  0.56400  0.29900  1.0000
  P   P5        1.0  0.26600  0.43600  0.70100  1.0000
  P   P6        1.0  0.91100  0.16100  0.71600  1.0000
  P   P7        1.0  0.25500  0.08840  0.81100  1.0000
  P   P8        1.0  0.82000  0.65400  0.96500  1.0000
  S   S1        1.0  0.28400  0.17700  0.03000  1.0000
  S   S2        1.0  0.06110  0.75100  0.06520  1.0000
  S   S3        1.0  0.70900  0.47600  0.08070  1.0000
  S   S4        1.0  0.65500  0.06730  0.19400  1.0000
  S   S5        1.0  0.20700  0.42600  0.23300  1.0000
  S   S6        1.0  0.98700  0.00871  0.28700  1.0000
  S   S7        1.0  0.63200  0.73300  0.30300  1.0000
  S   S8        1.0  0.31000  0.92900  0.37100  1.0000
  S   S9        1.0  0.97600  0.66200  0.39900  1.0000
  S   S10       1.0  0.63400  0.39900  0.40100  1.0000
  S   S11       1.0  0.36600  0.60100  0.59900  1.0000
  S   S12       1.0  0.02360  0.33800  0.60100  1.0000
  S   S13       1.0  0.69000  0.07090  0.62900  1.0000
  S   S14       1.0  0.36800  0.26700  0.69700  1.0000
  S   S15       1.0  0.01260  0.99100  0.71300  1.0000
  S   S16       1.0  0.79300  0.57400  0.76700  1.0000
  S   S17       1.0  0.34500  0.93300  0.80600  1.0000
  S   S18       1.0  0.29100  0.52400  0.91900  1.0000
  S   S19       1.0  0.93900  0.24900  0.93500  1.0000
  S   S20       1.0  0.71600  0.82300  0.97000  1.0000
