data_image0
_chemical_formula_structural       As4Pd20Sb4
_chemical_formula_sum              "As4 Pd20 Sb4"
_cell_length_a       8.7316
_cell_length_b       8.7316
_cell_length_c       8.7316
_cell_angle_alpha    120
_cell_angle_beta     90
_cell_angle_gamma    120

_space_group_name_H-M_alt    "P 1"
_space_group_IT_number       1

loop_
  _space_group_symop_operation_xyz
  'x, y, z'

loop_
  _atom_site_type_symbol
  _atom_site_label
  _atom_site_symmetry_multiplicity
  _atom_site_fract_x
  _atom_site_fract_y
  _atom_site_fract_z
  _atom_site_occupancy
  As  As1       1.0  0.37500  0.75000  0.12500  1.0000
  As  As2       1.0  0.37500  0.25000  0.62500  1.0000
  As  As3       1.0  0.37500  0.75000  0.62500  1.0000
  As  As4       1.0  0.87500  0.25000  0.62500  1.0000
  Pd  Pd1       1.0  0.08970  0.17900  0.26900  1.0000
  Pd  Pd2       1.0  0.28600  0.00000  0.28600  1.0000
  Pd  Pd3       1.0  0.28600  0.57200  0.28600  1.0000
  Pd  Pd4       1.0  0.71400  0.00000  0.28600  1.0000
  Pd  Pd5       1.0  0.01910  0.67900  0.34000  1.0000
  Pd  Pd6       1.0  0.66000  0.32100  0.34000  1.0000
  Pd  Pd7       1.0  0.66000  0.67900  0.34000  1.0000
  Pd  Pd8       1.0  0.03600  0.07210  0.53600  1.0000
  Pd  Pd9       1.0  0.03600  0.50000  0.53600  1.0000
  Pd  Pd10      1.0  0.46400  0.50000  0.53600  1.0000
  Pd  Pd11      1.0  0.28600  0.00000  0.71400  1.0000
  Pd  Pd12      1.0  0.71400  0.42800  0.71400  1.0000
  Pd  Pd13      1.0  0.71400  0.00000  0.71400  1.0000
  Pd  Pd14      1.0  0.08970  0.17900  0.91000  1.0000
  Pd  Pd15      1.0  0.73100  0.82100  0.91000  1.0000
  Pd  Pd16      1.0  0.08970  0.82100  0.91000  1.0000
  Pd  Pd17      1.0  0.03600  0.50000  0.96400  1.0000
  Pd  Pd18      1.0  0.46400  0.50000  0.96400  1.0000
  Pd  Pd19      1.0  0.46400  0.92800  0.96400  1.0000
  Pd  Pd20      1.0  0.66000  0.32100  0.98100  1.0000
  Sb  Sb1       1.0  0.37500  0.25000  0.12500  1.0000
  Sb  Sb2       1.0  0.87500  0.25000  0.12500  1.0000
  Sb  Sb3       1.0  0.87500  0.75000  0.12500  1.0000
  Sb  Sb4       1.0  0.87500  0.75000  0.62500  1.0000
