data_image0
_chemical_formula_structural       Ba4N8O16
_chemical_formula_sum              "Ba4 N8 O16"
_cell_length_a       7.47499
_cell_length_b       8.23119
_cell_length_c       6.71367
_cell_angle_alpha    90
_cell_angle_beta     90
_cell_angle_gamma    90

_space_group_name_H-M_alt    "P 1"
_space_group_IT_number       1

loop_
  _space_group_symop_operation_xyz
  'x, y, z'

loop_
  _atom_site_type_symbol
  _atom_site_label
  _atom_site_symmetry_multiplicity
  _atom_site_fract_x
  _atom_site_fract_y
  _atom_site_fract_z
  _atom_site_occupancy
  Ba  Ba1       1.0  0.46000  0.53900  0.10400  1.0000
  Ba  Ba2       1.0  0.54000  0.03850  0.39600  1.0000
  Ba  Ba3       1.0  0.03970  0.46100  0.60400  1.0000
  Ba  Ba4       1.0  0.96000  0.96100  0.89600  1.0000
  N   N1        1.0  0.28400  0.22400  0.01020  1.0000
  N   N2        1.0  0.02920  0.63500  0.10200  1.0000
  N   N3        1.0  0.97100  0.13500  0.39800  1.0000
  N   N4        1.0  0.71600  0.72400  0.49000  1.0000
  N   N5        1.0  0.21600  0.77600  0.51000  1.0000
  N   N6        1.0  0.47100  0.36500  0.60200  1.0000
  N   N7        1.0  0.52900  0.86500  0.89800  1.0000
  N   N8        1.0  0.78400  0.27600  0.99000  1.0000
  O   O1        1.0  0.62400  0.84100  0.05650  1.0000
  O   O2        1.0  0.28400  0.08750  0.09620  1.0000
  O   O3        1.0  0.67300  0.26500  0.13400  1.0000
  O   O4        1.0  0.07950  0.51600  0.20400  1.0000
  O   O5        1.0  0.92000  0.01570  0.29600  1.0000
  O   O6        1.0  0.32700  0.76500  0.36600  1.0000
  O   O7        1.0  0.71600  0.58700  0.40400  1.0000
  O   O8        1.0  0.37600  0.34100  0.44300  1.0000
  O   O9        1.0  0.87600  0.15900  0.55700  1.0000
  O   O10       1.0  0.21600  0.91300  0.59600  1.0000
  O   O11       1.0  0.82700  0.73500  0.63400  1.0000
  O   O12       1.0  0.42000  0.48400  0.70400  1.0000
  O   O13       1.0  0.58000  0.98400  0.79600  1.0000
  O   O14       1.0  0.17300  0.23500  0.86600  1.0000
  O   O15       1.0  0.78400  0.41300  0.90400  1.0000
  O   O16       1.0  0.12400  0.65900  0.94300  1.0000
