data_image0
_chemical_formula_structural       Cs6I18Y4
_chemical_formula_sum              "Cs6 I18 Y4"
_cell_length_a       8.59645
_cell_length_b       8.59763
_cell_length_c       21.7919
_cell_angle_alpha    90
_cell_angle_beta     90
_cell_angle_gamma    119.995

_space_group_name_H-M_alt    "P 1"
_space_group_IT_number       1

loop_
  _space_group_symop_operation_xyz
  'x, y, z'

loop_
  _atom_site_type_symbol
  _atom_site_label
  _atom_site_symmetry_multiplicity
  _atom_site_fract_x
  _atom_site_fract_y
  _atom_site_fract_z
  _atom_site_occupancy
  Cs  Cs1       1.0  0.33300  0.66700  0.06690  1.0000
  Cs  Cs2       1.0  0.00000  0.00000  0.25000  1.0000
  Cs  Cs3       1.0  0.33300  0.66700  0.43300  1.0000
  Cs  Cs4       1.0  0.66700  0.33300  0.56700  1.0000
  Cs  Cs5       1.0  0.00000  0.00000  0.75000  1.0000
  Cs  Cs6       1.0  0.66700  0.33300  0.93300  1.0000
  I   I1        1.0  0.32900  0.16400  0.08560  1.0000
  I   I2        1.0  0.83600  0.16400  0.08560  1.0000
  I   I3        1.0  0.83600  0.67100  0.08560  1.0000
  I   I4        1.0  0.50600  0.01110  0.25000  1.0000
  I   I5        1.0  0.50600  0.49400  0.25000  1.0000
  I   I6        1.0  0.98900  0.49400  0.25000  1.0000
  I   I7        1.0  0.83600  0.67100  0.41400  1.0000
  I   I8        1.0  0.32900  0.16400  0.41400  1.0000
  I   I9        1.0  0.83600  0.16400  0.41400  1.0000
  I   I10       1.0  0.16400  0.83600  0.58600  1.0000
  I   I11       1.0  0.67100  0.83600  0.58600  1.0000
  I   I12       1.0  0.16400  0.32900  0.58600  1.0000
  I   I13       1.0  0.01110  0.50600  0.75000  1.0000
  I   I14       1.0  0.49400  0.50600  0.75000  1.0000
  I   I15       1.0  0.49400  0.98900  0.75000  1.0000
  I   I16       1.0  0.16400  0.32900  0.91400  1.0000
  I   I17       1.0  0.16400  0.83600  0.91400  1.0000
  I   I18       1.0  0.67100  0.83600  0.91400  1.0000
  Y   Y1        1.0  0.66700  0.33300  0.15600  1.0000
  Y   Y2        1.0  0.66700  0.33300  0.34400  1.0000
  Y   Y3        1.0  0.33300  0.66700  0.65600  1.0000
  Y   Y4        1.0  0.33300  0.66700  0.84400  1.0000
