data_image0
_chemical_formula_structural       Al8Be4O16
_chemical_formula_sum              "Al8 Be4 O16"
_cell_length_a       4.4272
_cell_length_b       9.3937
_cell_length_c       5.47603
_cell_angle_alpha    90
_cell_angle_beta     90
_cell_angle_gamma    90

_space_group_name_H-M_alt    "P 1"
_space_group_IT_number       1

loop_
  _space_group_symop_operation_xyz
  'x, y, z'

loop_
  _atom_site_type_symbol
  _atom_site_label
  _atom_site_symmetry_multiplicity
  _atom_site_fract_x
  _atom_site_fract_y
  _atom_site_fract_z
  _atom_site_occupancy
  Al  Al1       1.0  0.00000  0.00000  0.00000  1.0000
  Al  Al2       1.0  0.50000  0.50000  0.00000  1.0000
  Al  Al3       1.0  0.99400  0.27300  0.25000  1.0000
  Al  Al4       1.0  0.50600  0.77300  0.25000  1.0000
  Al  Al5       1.0  0.00000  0.00000  0.50000  1.0000
  Al  Al6       1.0  0.50000  0.50000  0.50000  1.0000
  Al  Al7       1.0  0.49400  0.22700  0.75000  1.0000
  Al  Al8       1.0  0.00565  0.72700  0.75000  1.0000
  Be  Be1       1.0  0.43200  0.09310  0.25000  1.0000
  Be  Be2       1.0  0.06780  0.59300  0.25000  1.0000
  Be  Be3       1.0  0.93200  0.40700  0.75000  1.0000
  Be  Be4       1.0  0.56800  0.90700  0.75000  1.0000
  O   O1        1.0  0.25600  0.16400  0.01550  1.0000
  O   O2        1.0  0.24400  0.66400  0.01550  1.0000
  O   O3        1.0  0.78500  0.09020  0.25000  1.0000
  O   O4        1.0  0.24000  0.43300  0.25000  1.0000
  O   O5        1.0  0.71500  0.59000  0.25000  1.0000
  O   O6        1.0  0.26000  0.93300  0.25000  1.0000
  O   O7        1.0  0.25600  0.16400  0.48500  1.0000
  O   O8        1.0  0.24400  0.66400  0.48500  1.0000
  O   O9        1.0  0.75600  0.33600  0.51500  1.0000
  O   O10       1.0  0.74400  0.83600  0.51500  1.0000
  O   O11       1.0  0.74000  0.06680  0.75000  1.0000
  O   O12       1.0  0.28500  0.41000  0.75000  1.0000
  O   O13       1.0  0.76000  0.56700  0.75000  1.0000
  O   O14       1.0  0.21500  0.91000  0.75000  1.0000
  O   O15       1.0  0.75600  0.33600  0.98500  1.0000
  O   O16       1.0  0.74400  0.83600  0.98500  1.0000
