data_image0
_chemical_formula_structural       P20Re8
_chemical_formula_sum              "P20 Re8"
_cell_length_a       8.27147
_cell_length_b       8.38055
_cell_length_c       7.36955
_cell_angle_alpha    112.266
_cell_angle_beta     87.0687
_cell_angle_gamma    110.209

_space_group_name_H-M_alt    "P 1"
_space_group_IT_number       1

loop_
  _space_group_symop_operation_xyz
  'x, y, z'

loop_
  _atom_site_type_symbol
  _atom_site_label
  _atom_site_symmetry_multiplicity
  _atom_site_fract_x
  _atom_site_fract_y
  _atom_site_fract_z
  _atom_site_occupancy
  P   P1        1.0  0.78100  0.83100  0.02360  1.0000
  P   P2        1.0  0.41400  0.95200  0.10700  1.0000
  P   P3        1.0  0.04030  0.63300  0.13600  1.0000
  P   P4        1.0  0.58300  0.47900  0.16100  1.0000
  P   P5        1.0  0.84300  0.26000  0.27100  1.0000
  P   P6        1.0  0.25200  0.59500  0.28100  1.0000
  P   P7        1.0  0.83500  0.53600  0.32000  1.0000
  P   P8        1.0  0.45100  0.36300  0.37600  1.0000
  P   P9        1.0  0.08440  0.04660  0.39800  1.0000
  P   P10       1.0  0.69300  0.94500  0.46600  1.0000
  P   P11       1.0  0.30700  0.05520  0.53400  1.0000
  P   P12       1.0  0.91600  0.95300  0.60200  1.0000
  P   P13       1.0  0.54900  0.63700  0.62400  1.0000
  P   P14       1.0  0.16500  0.46400  0.68000  1.0000
  P   P15       1.0  0.74800  0.40500  0.71900  1.0000
  P   P16       1.0  0.15700  0.74000  0.72900  1.0000
  P   P17       1.0  0.41700  0.52100  0.83900  1.0000
  P   P18       1.0  0.96000  0.36700  0.86400  1.0000
  P   P19       1.0  0.58600  0.04820  0.89300  1.0000
  P   P20       1.0  0.21900  0.16900  0.97600  1.0000
  Re  Re1       1.0  0.08820  0.90200  0.05610  1.0000
  Re  Re2       1.0  0.52000  0.75000  0.17800  1.0000
  Re  Re3       1.0  0.14200  0.29000  0.30400  1.0000
  Re  Re4       1.0  0.57800  0.14300  0.42600  1.0000
  Re  Re5       1.0  0.42200  0.85700  0.57400  1.0000
  Re  Re6       1.0  0.85800  0.71000  0.69600  1.0000
  Re  Re7       1.0  0.48000  0.25000  0.82200  1.0000
  Re  Re8       1.0  0.91200  0.09760  0.94400  1.0000
