data_image0
_chemical_formula_structural       Cl18Cs2Mn8
_chemical_formula_sum              "Cl18 Cs2 Mn8"
_cell_length_a       9.72125
_cell_length_b       9.72125
_cell_length_c       9.72125
_cell_angle_alpha    106.314
_cell_angle_beta     115.989
_cell_angle_gamma    106.314

_space_group_name_H-M_alt    "P 1"
_space_group_IT_number       1

loop_
  _space_group_symop_operation_xyz
  'x, y, z'

loop_
  _atom_site_type_symbol
  _atom_site_label
  _atom_site_symmetry_multiplicity
  _atom_site_fract_x
  _atom_site_fract_y
  _atom_site_fract_z
  _atom_site_occupancy
  Cl  Cl1       1.0  0.16000  0.69400  0.04630  1.0000
  Cl  Cl2       1.0  0.29500  0.40700  0.09840  1.0000
  Cl  Cl3       1.0  0.45500  0.09330  0.15200  1.0000
  Cl  Cl4       1.0  0.59000  0.80600  0.20400  1.0000
  Cl  Cl5       1.0  0.90200  0.19700  0.30800  1.0000
  Cl  Cl6       1.0  0.05830  0.90700  0.36100  1.0000
  Cl  Cl7       1.0  0.21600  0.61400  0.41000  1.0000
  Cl  Cl8       1.0  0.35200  0.30600  0.46600  1.0000
  Cl  Cl9       1.0  0.50000  0.00000  0.50000  1.0000
  Cl  Cl10      1.0  0.63900  0.69700  0.54500  1.0000
  Cl  Cl11      1.0  0.79600  0.38600  0.60200  1.0000
  Cl  Cl12      1.0  0.95400  0.11400  0.64800  1.0000
  Cl  Cl13      1.0  0.11100  0.80300  0.70500  1.0000
  Cl  Cl14      1.0  0.25000  0.50000  0.75000  1.0000
  Cl  Cl15      1.0  0.39800  0.19400  0.78400  1.0000
  Cl  Cl16      1.0  0.53400  0.88600  0.84000  1.0000
  Cl  Cl17      1.0  0.69200  0.59300  0.88900  1.0000
  Cl  Cl18      1.0  0.84800  0.30300  0.94200  1.0000
  Cs  Cs1       1.0  0.00000  0.00000  0.00000  1.0000
  Cs  Cs2       1.0  0.75000  0.50000  0.25000  1.0000
  Mn  Mn1       1.0  0.40300  0.69000  0.30000  1.0000
  Mn  Mn2       1.0  0.70000  0.10200  0.39000  1.0000
  Mn  Mn3       1.0  0.14000  0.19000  0.53700  1.0000
  Mn  Mn4       1.0  0.28700  0.89800  0.59700  1.0000
  Mn  Mn5       1.0  0.46300  0.60200  0.65300  1.0000
  Mn  Mn6       1.0  0.61000  0.31000  0.71300  1.0000
  Mn  Mn7       1.0  0.05030  0.39800  0.86000  1.0000
  Mn  Mn8       1.0  0.34700  0.81000  0.95000  1.0000
