data_image0
_chemical_formula_structural       F20K2Tb6
_chemical_formula_sum              "F20 K2 Tb6"
_cell_length_a       8.09973
_cell_length_b       8.09973
_cell_length_c       8.09973
_cell_angle_alpha    120
_cell_angle_beta     90
_cell_angle_gamma    120

_space_group_name_H-M_alt    "P 1"
_space_group_IT_number       1

loop_
  _space_group_symop_operation_xyz
  'x, y, z'

loop_
  _atom_site_type_symbol
  _atom_site_label
  _atom_site_symmetry_multiplicity
  _atom_site_fract_x
  _atom_site_fract_y
  _atom_site_fract_z
  _atom_site_occupancy
  F   F1        1.0  0.88700  0.77300  0.11300  1.0000
  F   F2        1.0  0.34000  0.22700  0.11300  1.0000
  F   F3        1.0  0.88700  0.22700  0.11300  1.0000
  F   F4        1.0  0.50000  0.00000  0.16500  1.0000
  F   F5        1.0  0.16500  0.66500  0.16500  1.0000
  F   F6        1.0  0.50000  0.66500  0.16500  1.0000
  F   F7        1.0  0.11300  0.22700  0.34000  1.0000
  F   F8        1.0  0.83500  0.33500  0.50000  1.0000
  F   F9        1.0  0.16500  0.00000  0.50000  1.0000
  F   F10       1.0  0.50000  0.33500  0.50000  1.0000
  F   F11       1.0  0.16500  0.66500  0.50000  1.0000
  F   F12       1.0  0.50000  0.66500  0.50000  1.0000
  F   F13       1.0  0.83500  0.00000  0.50000  1.0000
  F   F14       1.0  0.88700  0.77300  0.66000  1.0000
  F   F15       1.0  0.50000  0.33500  0.83500  1.0000
  F   F16       1.0  0.50000  0.00000  0.83500  1.0000
  F   F17       1.0  0.83500  0.33500  0.83500  1.0000
  F   F18       1.0  0.11300  0.22700  0.88700  1.0000
  F   F19       1.0  0.11300  0.77300  0.88700  1.0000
  F   F20       1.0  0.66000  0.77300  0.88700  1.0000
  K   K1        1.0  0.75000  0.50000  0.25000  1.0000
  K   K2        1.0  0.25000  0.50000  0.75000  1.0000
  Tb  Tb1       1.0  0.76100  0.00000  0.23900  1.0000
  Tb  Tb2       1.0  0.23900  0.00000  0.23900  1.0000
  Tb  Tb3       1.0  0.23900  0.47900  0.23900  1.0000
  Tb  Tb4       1.0  0.23900  0.00000  0.76100  1.0000
  Tb  Tb5       1.0  0.76100  0.52100  0.76100  1.0000
  Tb  Tb6       1.0  0.76100  0.00000  0.76100  1.0000
