data_image0
_chemical_formula_structural       Br8Ge8S12
_chemical_formula_sum              "Br8 Ge8 S12"
_cell_length_a       9.14658
_cell_length_b       10.2867
_cell_length_c       10.4628
_cell_angle_alpha    86.2482
_cell_angle_beta     63.902
_cell_angle_gamma    89.7998

_space_group_name_H-M_alt    "P 1"
_space_group_IT_number       1

loop_
  _space_group_symop_operation_xyz
  'x, y, z'

loop_
  _atom_site_type_symbol
  _atom_site_label
  _atom_site_symmetry_multiplicity
  _atom_site_fract_x
  _atom_site_fract_y
  _atom_site_fract_z
  _atom_site_occupancy
  Br  Br1       1.0  0.04460  0.30100  0.16300  1.0000
  Br  Br2       1.0  0.43300  0.14700  0.23600  1.0000
  Br  Br3       1.0  0.77800  0.95700  0.33500  1.0000
  Br  Br4       1.0  0.41200  0.69000  0.49600  1.0000
  Br  Br5       1.0  0.58800  0.31000  0.50400  1.0000
  Br  Br6       1.0  0.22200  0.04340  0.66500  1.0000
  Br  Br7       1.0  0.56700  0.85300  0.76400  1.0000
  Br  Br8       1.0  0.95500  0.69900  0.83700  1.0000
  Ge  Ge1       1.0  0.62400  0.22700  0.01270  1.0000
  Ge  Ge2       1.0  0.12500  0.51000  0.17700  1.0000
  Ge  Ge3       1.0  0.99800  0.82100  0.26000  1.0000
  Ge  Ge4       1.0  0.30100  0.69600  0.33600  1.0000
  Ge  Ge5       1.0  0.69900  0.30400  0.66400  1.0000
  Ge  Ge6       1.0  0.00219  0.17900  0.74000  1.0000
  Ge  Ge7       1.0  0.87500  0.49000  0.82300  1.0000
  Ge  Ge8       1.0  0.37600  0.77300  0.98700  1.0000
  S   S1        1.0  0.69100  0.42700  0.04550  1.0000
  S   S2        1.0  0.17000  0.91200  0.04570  1.0000
  S   S3        1.0  0.50300  0.77500  0.12800  1.0000
  S   S4        1.0  0.89600  0.62500  0.25200  1.0000
  S   S5        1.0  0.22900  0.48800  0.33400  1.0000
  S   S6        1.0  0.08900  0.82800  0.42600  1.0000
  S   S7        1.0  0.91100  0.17200  0.57400  1.0000
  S   S8        1.0  0.77100  0.51200  0.66600  1.0000
  S   S9        1.0  0.10400  0.37500  0.74800  1.0000
  S   S10       1.0  0.49700  0.22500  0.87200  1.0000
  S   S11       1.0  0.83000  0.08790  0.95400  1.0000
  S   S12       1.0  0.30900  0.57300  0.95400  1.0000
