data_image0
_chemical_formula_structural       O16Sb8Zn4
_chemical_formula_sum              "O16 Sb8 Zn4"
_cell_length_a       8.45038
_cell_length_b       8.45038
_cell_length_c       5.98338
_cell_angle_alpha    90
_cell_angle_beta     90
_cell_angle_gamma    90

_space_group_name_H-M_alt    "P 1"
_space_group_IT_number       1

loop_
  _space_group_symop_operation_xyz
  'x, y, z'

loop_
  _atom_site_type_symbol
  _atom_site_label
  _atom_site_symmetry_multiplicity
  _atom_site_fract_x
  _atom_site_fract_y
  _atom_site_fract_z
  _atom_site_occupancy
  O   O1        1.0  0.59300  0.14600  0.00000  1.0000
  O   O2        1.0  0.09290  0.35400  0.00000  1.0000
  O   O3        1.0  0.90700  0.64600  0.00000  1.0000
  O   O4        1.0  0.40700  0.85400  0.00000  1.0000
  O   O5        1.0  0.32200  0.17800  0.25000  1.0000
  O   O6        1.0  0.82200  0.32200  0.25000  1.0000
  O   O7        1.0  0.17800  0.67800  0.25000  1.0000
  O   O8        1.0  0.67800  0.82200  0.25000  1.0000
  O   O9        1.0  0.64600  0.09290  0.50000  1.0000
  O   O10       1.0  0.14600  0.40700  0.50000  1.0000
  O   O11       1.0  0.85400  0.59300  0.50000  1.0000
  O   O12       1.0  0.35400  0.90700  0.50000  1.0000
  O   O13       1.0  0.32200  0.17800  0.75000  1.0000
  O   O14       1.0  0.82200  0.32200  0.75000  1.0000
  O   O15       1.0  0.17800  0.67800  0.75000  1.0000
  O   O16       1.0  0.67800  0.82200  0.75000  1.0000
  Sb  Sb1       1.0  0.82600  0.16200  0.00000  1.0000
  Sb  Sb2       1.0  0.32600  0.33800  0.00000  1.0000
  Sb  Sb3       1.0  0.67400  0.66200  0.00000  1.0000
  Sb  Sb4       1.0  0.17400  0.83800  0.00000  1.0000
  Sb  Sb5       1.0  0.16200  0.17400  0.50000  1.0000
  Sb  Sb6       1.0  0.66200  0.32600  0.50000  1.0000
  Sb  Sb7       1.0  0.33800  0.67400  0.50000  1.0000
  Sb  Sb8       1.0  0.83800  0.82600  0.50000  1.0000
  Zn  Zn1       1.0  0.50000  0.00000  0.25000  1.0000
  Zn  Zn2       1.0  0.00000  0.50000  0.25000  1.0000
  Zn  Zn3       1.0  0.50000  0.00000  0.75000  1.0000
  Zn  Zn4       1.0  0.00000  0.50000  0.75000  1.0000
