data_image0
_chemical_formula_structural       Nb4O20Ti2U2
_chemical_formula_sum              "Nb4 O20 Ti2 U2"
_cell_length_a       7.32553
_cell_length_b       7.26534
_cell_length_c       9.07802
_cell_angle_alpha    101.736
_cell_angle_beta     113.796
_cell_angle_gamma    59.7256

_space_group_name_H-M_alt    "P 1"
_space_group_IT_number       1

loop_
  _space_group_symop_operation_xyz
  'x, y, z'

loop_
  _atom_site_type_symbol
  _atom_site_label
  _atom_site_symmetry_multiplicity
  _atom_site_fract_x
  _atom_site_fract_y
  _atom_site_fract_z
  _atom_site_occupancy
  Nb  Nb1       1.0  0.52400  0.50000  0.04700  1.0000
  Nb  Nb2       1.0  0.72600  0.00000  0.45300  1.0000
  Nb  Nb3       1.0  0.27400  0.00000  0.54700  1.0000
  Nb  Nb4       1.0  0.97600  0.50000  0.95300  1.0000
  O   O1        1.0  0.79900  0.40100  0.00000  1.0000
  O   O2        1.0  0.20100  0.59900  0.00000  1.0000
  O   O3        1.0  0.80400  0.79800  0.00693  1.0000
  O   O4        1.0  0.20300  0.20200  0.00693  1.0000
  O   O5        1.0  0.10700  0.00000  0.21500  1.0000
  O   O6        1.0  0.61800  0.00000  0.23600  1.0000
  O   O7        1.0  0.63200  0.50000  0.26400  1.0000
  O   O8        1.0  0.14300  0.50000  0.28500  1.0000
  O   O9        1.0  0.44600  0.70200  0.49300  1.0000
  O   O10       1.0  0.04670  0.29800  0.49300  1.0000
  O   O11       1.0  0.45100  0.09870  0.50000  1.0000
  O   O12       1.0  0.04940  0.90100  0.50000  1.0000
  O   O13       1.0  0.85200  0.70200  0.50700  1.0000
  O   O14       1.0  0.65500  0.29800  0.50700  1.0000
  O   O15       1.0  0.35700  0.50000  0.71500  1.0000
  O   O16       1.0  0.86800  0.50000  0.73600  1.0000
  O   O17       1.0  0.38200  0.00000  0.76400  1.0000
  O   O18       1.0  0.89300  0.00000  0.78500  1.0000
  O   O19       1.0  0.39800  0.79800  0.99300  1.0000
  O   O20       1.0  0.59500  0.20200  0.99300  1.0000
  Ti  Ti1       1.0  0.50000  0.00000  0.00000  1.0000
  Ti  Ti2       1.0  0.75000  0.50000  0.50000  1.0000
  U   U1        1.0  0.00000  0.00000  0.00000  1.0000
  U   U2        1.0  0.25000  0.50000  0.50000  1.0000
