data_image0
_chemical_formula_structural       Cs8O12Sn8
_chemical_formula_sum              "Cs8 O12 Sn8"
_cell_length_a       13.5123
_cell_length_b       6.1396
_cell_length_c       8.89516
_cell_angle_alpha    90
_cell_angle_beta     90
_cell_angle_gamma    90

_space_group_name_H-M_alt    "P 1"
_space_group_IT_number       1

loop_
  _space_group_symop_operation_xyz
  'x, y, z'

loop_
  _atom_site_type_symbol
  _atom_site_label
  _atom_site_symmetry_multiplicity
  _atom_site_fract_x
  _atom_site_fract_y
  _atom_site_fract_z
  _atom_site_occupancy
  Cs  Cs1       1.0  0.12800  0.75000  0.03280  1.0000
  Cs  Cs2       1.0  0.59200  0.25000  0.16200  1.0000
  Cs  Cs3       1.0  0.09220  0.25000  0.33800  1.0000
  Cs  Cs4       1.0  0.62800  0.75000  0.46700  1.0000
  Cs  Cs5       1.0  0.37200  0.25000  0.53300  1.0000
  Cs  Cs6       1.0  0.90800  0.75000  0.66200  1.0000
  Cs  Cs7       1.0  0.40800  0.75000  0.83800  1.0000
  Cs  Cs8       1.0  0.87200  0.25000  0.96700  1.0000
  O   O1        1.0  0.15400  0.25000  0.00856  1.0000
  O   O2        1.0  0.27300  0.00314  0.23400  1.0000
  O   O3        1.0  0.27300  0.49700  0.23400  1.0000
  O   O4        1.0  0.77300  0.00314  0.26600  1.0000
  O   O5        1.0  0.77300  0.49700  0.26600  1.0000
  O   O6        1.0  0.65400  0.25000  0.49100  1.0000
  O   O7        1.0  0.34600  0.75000  0.50900  1.0000
  O   O8        1.0  0.22700  0.50300  0.73400  1.0000
  O   O9        1.0  0.22700  0.99700  0.73400  1.0000
  O   O10       1.0  0.72700  0.50300  0.76600  1.0000
  O   O11       1.0  0.72700  0.99700  0.76600  1.0000
  O   O12       1.0  0.84600  0.75000  0.99100  1.0000
  Sn  Sn1       1.0  0.30200  0.25000  0.07770  1.0000
  Sn  Sn2       1.0  0.87100  0.75000  0.22200  1.0000
  Sn  Sn3       1.0  0.37100  0.75000  0.27800  1.0000
  Sn  Sn4       1.0  0.80200  0.25000  0.42200  1.0000
  Sn  Sn5       1.0  0.19800  0.75000  0.57800  1.0000
  Sn  Sn6       1.0  0.62900  0.25000  0.72200  1.0000
  Sn  Sn7       1.0  0.12900  0.25000  0.77800  1.0000
  Sn  Sn8       1.0  0.69800  0.75000  0.92200  1.0000
