data_image0
_chemical_formula_structural       Cu10S14Si4
_chemical_formula_sum              "Cu10 S14 Si4"
_cell_length_a       6.33566
_cell_length_b       8.74816
_cell_length_c       9.59352
_cell_angle_alpha    92.1111
_cell_angle_beta     90
_cell_angle_gamma    111.23

_space_group_name_H-M_alt    "P 1"
_space_group_IT_number       1

loop_
  _space_group_symop_operation_xyz
  'x, y, z'

loop_
  _atom_site_type_symbol
  _atom_site_label
  _atom_site_symmetry_multiplicity
  _atom_site_fract_x
  _atom_site_fract_y
  _atom_site_fract_z
  _atom_site_occupancy
  Cu  Cu1       1.0  0.07880  0.81300  0.12400  1.0000
  Cu  Cu2       1.0  0.45600  0.24200  0.20100  1.0000
  Cu  Cu3       1.0  0.47900  0.67200  0.27300  1.0000
  Cu  Cu4       1.0  0.87100  0.10200  0.33600  1.0000
  Cu  Cu5       1.0  0.94200  0.53500  0.42100  1.0000
  Cu  Cu6       1.0  0.73400  0.81300  0.62400  1.0000
  Cu  Cu7       1.0  0.78600  0.24200  0.70100  1.0000
  Cu  Cu8       1.0  0.19200  0.67200  0.77300  1.0000
  Cu  Cu9       1.0  0.23100  0.10200  0.83600  1.0000
  Cu  Cu10      1.0  0.59300  0.53500  0.92100  1.0000
  S   S1        1.0  0.36200  0.03280  0.03810  1.0000
  S   S2        1.0  0.37600  0.45600  0.11400  1.0000
  S   S3        1.0  0.77500  0.88700  0.18000  1.0000
  S   S4        1.0  0.83400  0.33000  0.25200  1.0000
  S   S5        1.0  0.20300  0.76900  0.33900  1.0000
  S   S6        1.0  0.25500  0.17600  0.41000  1.0000
  S   S7        1.0  0.62300  0.59300  0.47000  1.0000
  S   S8        1.0  0.67100  0.03280  0.53800  1.0000
  S   S9        1.0  0.07950  0.45600  0.61400  1.0000
  S   S10       1.0  0.11200  0.88700  0.68000  1.0000
  S   S11       1.0  0.49600  0.33000  0.75200  1.0000
  S   S12       1.0  0.56600  0.76900  0.83900  1.0000
  S   S13       1.0  0.92000  0.17600  0.91000  1.0000
  S   S14       1.0  0.97000  0.59300  0.97000  1.0000
  Si  Si1       1.0  0.02430  0.39200  0.06490  1.0000
  Si  Si2       1.0  0.31500  0.96100  0.49800  1.0000
  Si  Si3       1.0  0.36800  0.39200  0.56500  1.0000
  Si  Si4       1.0  0.64600  0.96100  0.99800  1.0000
