data_image0
_chemical_formula_structural       In8Pb4S16
_chemical_formula_sum              "In8 Pb4 S16"
_cell_length_a       11.8088
_cell_length_b       3.89419
_cell_length_c       13.8889
_cell_angle_alpha    90
_cell_angle_beta     90
_cell_angle_gamma    90

_space_group_name_H-M_alt    "P 1"
_space_group_IT_number       1

loop_
  _space_group_symop_operation_xyz
  'x, y, z'

loop_
  _atom_site_type_symbol
  _atom_site_label
  _atom_site_symmetry_multiplicity
  _atom_site_fract_x
  _atom_site_fract_y
  _atom_site_fract_z
  _atom_site_occupancy
  In  In1       1.0  0.42000  0.25000  0.10000  1.0000
  In  In2       1.0  0.06650  0.75000  0.11000  1.0000
  In  In3       1.0  0.56700  0.75000  0.39000  1.0000
  In  In4       1.0  0.92000  0.25000  0.40000  1.0000
  In  In5       1.0  0.07990  0.75000  0.60000  1.0000
  In  In6       1.0  0.43300  0.25000  0.61000  1.0000
  In  In7       1.0  0.93300  0.25000  0.89000  1.0000
  In  In8       1.0  0.58000  0.75000  0.90000  1.0000
  Pb  Pb1       1.0  0.74300  0.75000  0.16300  1.0000
  Pb  Pb2       1.0  0.24300  0.75000  0.33700  1.0000
  Pb  Pb3       1.0  0.75700  0.25000  0.66300  1.0000
  Pb  Pb4       1.0  0.25700  0.25000  0.83700  1.0000
  S   S1        1.0  0.62400  0.25000  0.02800  1.0000
  S   S2        1.0  0.91000  0.25000  0.07410  1.0000
  S   S3        1.0  0.20600  0.25000  0.16500  1.0000
  S   S4        1.0  0.46800  0.75000  0.21800  1.0000
  S   S5        1.0  0.96800  0.75000  0.28200  1.0000
  S   S6        1.0  0.70600  0.25000  0.33500  1.0000
  S   S7        1.0  0.41000  0.25000  0.42600  1.0000
  S   S8        1.0  0.12400  0.25000  0.47200  1.0000
  S   S9        1.0  0.87600  0.75000  0.52800  1.0000
  S   S10       1.0  0.59000  0.75000  0.57400  1.0000
  S   S11       1.0  0.29400  0.75000  0.66500  1.0000
  S   S12       1.0  0.03170  0.25000  0.71800  1.0000
  S   S13       1.0  0.53200  0.25000  0.78200  1.0000
  S   S14       1.0  0.79400  0.75000  0.83500  1.0000
  S   S15       1.0  0.08950  0.75000  0.92600  1.0000
  S   S16       1.0  0.37600  0.75000  0.97200  1.0000
