data_image0
_chemical_formula_structural       Be4Cs8F16
_chemical_formula_sum              "Be4 Cs8 F16"
_cell_length_a       7.69505
_cell_length_b       5.79769
_cell_length_c       10.0682
_cell_angle_alpha    90
_cell_angle_beta     90
_cell_angle_gamma    90

_space_group_name_H-M_alt    "P 1"
_space_group_IT_number       1

loop_
  _space_group_symop_operation_xyz
  'x, y, z'

loop_
  _atom_site_type_symbol
  _atom_site_label
  _atom_site_symmetry_multiplicity
  _atom_site_fract_x
  _atom_site_fract_y
  _atom_site_fract_z
  _atom_site_occupancy
  Be  Be1       1.0  0.24700  0.75000  0.91400  1.0000
  Be  Be2       1.0  0.25300  0.25000  0.41400  1.0000
  Be  Be3       1.0  0.74700  0.75000  0.58600  1.0000
  Be  Be4       1.0  0.75300  0.25000  0.08550  1.0000
  Cs  Cs1       1.0  0.02340  0.75000  0.32000  1.0000
  Cs  Cs2       1.0  0.47700  0.25000  0.82000  1.0000
  Cs  Cs3       1.0  0.52300  0.75000  0.18000  1.0000
  Cs  Cs4       1.0  0.97700  0.25000  0.68000  1.0000
  Cs  Cs5       1.0  0.83100  0.75000  0.90400  1.0000
  Cs  Cs6       1.0  0.66900  0.25000  0.40400  1.0000
  Cs  Cs7       1.0  0.33100  0.75000  0.59600  1.0000
  Cs  Cs8       1.0  0.16900  0.25000  0.09640  1.0000
  F   F1        1.0  0.68700  0.75000  0.43900  1.0000
  F   F2        1.0  0.81300  0.25000  0.93900  1.0000
  F   F3        1.0  0.18700  0.75000  0.06140  1.0000
  F   F4        1.0  0.31300  0.25000  0.56100  1.0000
  F   F5        1.0  0.94700  0.75000  0.60100  1.0000
  F   F6        1.0  0.55300  0.25000  0.10100  1.0000
  F   F7        1.0  0.44700  0.75000  0.89900  1.0000
  F   F8        1.0  0.05300  0.25000  0.39900  1.0000
  F   F9        1.0  0.32900  0.46700  0.34700  1.0000
  F   F10       1.0  0.17100  0.53300  0.84700  1.0000
  F   F11       1.0  0.82900  0.03270  0.15300  1.0000
  F   F12       1.0  0.67100  0.96700  0.65300  1.0000
  F   F13       1.0  0.67100  0.53300  0.65300  1.0000
  F   F14       1.0  0.82900  0.46700  0.15300  1.0000
  F   F15       1.0  0.17100  0.96700  0.84700  1.0000
  F   F16       1.0  0.32900  0.03270  0.34700  1.0000
