data_image0
_chemical_formula_structural       Cl18Cs6Sc4
_chemical_formula_sum              "Cl18 Cs6 Sc4"
_cell_length_a       9.55976
_cell_length_b       9.55976
_cell_length_c       9.55976
_cell_angle_alpha    95.8699
_cell_angle_beta     95.8699
_cell_angle_gamma    84.1301

_space_group_name_H-M_alt    "P 1"
_space_group_IT_number       1

loop_
  _space_group_symop_operation_xyz
  'x, y, z'

loop_
  _atom_site_type_symbol
  _atom_site_label
  _atom_site_symmetry_multiplicity
  _atom_site_fract_x
  _atom_site_fract_y
  _atom_site_fract_z
  _atom_site_occupancy
  Cl  Cl1       1.0  0.08860  0.25500  0.07510  1.0000
  Cl  Cl2       1.0  0.74500  0.07510  0.08860  1.0000
  Cl  Cl3       1.0  0.59900  0.75000  0.09920  1.0000
  Cl  Cl4       1.0  0.58900  0.42500  0.24500  1.0000
  Cl  Cl5       1.0  0.90100  0.59900  0.25000  1.0000
  Cl  Cl6       1.0  0.07510  0.91100  0.25500  1.0000
  Cl  Cl7       1.0  0.75000  0.90100  0.40100  1.0000
  Cl  Cl8       1.0  0.42500  0.75500  0.41100  1.0000
  Cl  Cl9       1.0  0.24500  0.41100  0.42500  1.0000
  Cl  Cl10      1.0  0.75500  0.58900  0.57500  1.0000
  Cl  Cl11      1.0  0.57500  0.24500  0.58900  1.0000
  Cl  Cl12      1.0  0.25000  0.09920  0.59900  1.0000
  Cl  Cl13      1.0  0.92500  0.08860  0.74500  1.0000
  Cl  Cl14      1.0  0.09920  0.40100  0.75000  1.0000
  Cl  Cl15      1.0  0.41100  0.57500  0.75500  1.0000
  Cl  Cl16      1.0  0.40100  0.25000  0.90100  1.0000
  Cl  Cl17      1.0  0.25500  0.92500  0.91100  1.0000
  Cl  Cl18      1.0  0.91100  0.74500  0.92500  1.0000
  Cs  Cs1       1.0  0.25000  0.58600  0.08630  1.0000
  Cs  Cs2       1.0  0.41400  0.08630  0.25000  1.0000
  Cs  Cs3       1.0  0.91400  0.25000  0.41400  1.0000
  Cs  Cs4       1.0  0.08630  0.75000  0.58600  1.0000
  Cs  Cs5       1.0  0.58600  0.91400  0.75000  1.0000
  Cs  Cs6       1.0  0.75000  0.41400  0.91400  1.0000
  Sc  Sc1       1.0  0.84800  0.84800  0.15200  1.0000
  Sc  Sc2       1.0  0.65200  0.65200  0.34800  1.0000
  Sc  Sc3       1.0  0.34800  0.34800  0.65200  1.0000
  Sc  Sc4       1.0  0.15200  0.15200  0.84800  1.0000
