data_image0
_chemical_formula_structural       Br20Rb2Re6
_chemical_formula_sum              "Br20 Rb2 Re6"
_cell_length_a       9.23757
_cell_length_b       9.23757
_cell_length_c       10.3157
_cell_angle_alpha    91.5824
_cell_angle_beta     91.5824
_cell_angle_gamma    73.0696

_space_group_name_H-M_alt    "P 1"
_space_group_IT_number       1

loop_
  _space_group_symop_operation_xyz
  'x, y, z'

loop_
  _atom_site_type_symbol
  _atom_site_label
  _atom_site_symmetry_multiplicity
  _atom_site_fract_x
  _atom_site_fract_y
  _atom_site_fract_z
  _atom_site_occupancy
  Br  Br1       1.0  0.62800  0.62800  0.03570  1.0000
  Br  Br2       1.0  0.15900  0.15900  0.04920  1.0000
  Br  Br3       1.0  0.99600  0.52900  0.18300  1.0000
  Br  Br4       1.0  0.52900  0.99600  0.18300  1.0000
  Br  Br5       1.0  0.92500  0.92500  0.25600  1.0000
  Br  Br6       1.0  0.70300  0.39000  0.29800  1.0000
  Br  Br7       1.0  0.39000  0.70300  0.29800  1.0000
  Br  Br8       1.0  0.35900  0.35900  0.43100  1.0000
  Br  Br9       1.0  0.99800  0.32000  0.49600  1.0000
  Br  Br10      1.0  0.32000  0.99800  0.49600  1.0000
  Br  Br11      1.0  0.68000  0.00204  0.50400  1.0000
  Br  Br12      1.0  0.00204  0.68000  0.50400  1.0000
  Br  Br13      1.0  0.64100  0.64100  0.56900  1.0000
  Br  Br14      1.0  0.61000  0.29700  0.70200  1.0000
  Br  Br15      1.0  0.29700  0.61000  0.70200  1.0000
  Br  Br16      1.0  0.07460  0.07460  0.74400  1.0000
  Br  Br17      1.0  0.47100  0.00418  0.81700  1.0000
  Br  Br18      1.0  0.00418  0.47100  0.81700  1.0000
  Br  Br19      1.0  0.84100  0.84100  0.95100  1.0000
  Br  Br20      1.0  0.37200  0.37200  0.96400  1.0000
  Rb  Rb1       1.0  0.78600  0.21400  0.00000  1.0000
  Rb  Rb2       1.0  0.21400  0.78600  0.00000  1.0000
  Re  Re1       1.0  0.76300  0.76300  0.18800  1.0000
  Re  Re2       1.0  0.81200  0.59000  0.37200  1.0000
  Re  Re3       1.0  0.59000  0.81200  0.37200  1.0000
  Re  Re4       1.0  0.41000  0.18800  0.62800  1.0000
  Re  Re5       1.0  0.18800  0.41000  0.62800  1.0000
  Re  Re6       1.0  0.23700  0.23700  0.81200  1.0000
