data_image0
_chemical_formula_structural       Rh12Si16
_chemical_formula_sum              "Rh12 Si16"
_cell_length_a       18.9505
_cell_length_b       3.65011
_cell_length_c       5.86093
_cell_angle_alpha    90
_cell_angle_beta     90
_cell_angle_gamma    90

_space_group_name_H-M_alt    "P 1"
_space_group_IT_number       1

loop_
  _space_group_symop_operation_xyz
  'x, y, z'

loop_
  _atom_site_type_symbol
  _atom_site_label
  _atom_site_symmetry_multiplicity
  _atom_site_fract_x
  _atom_site_fract_y
  _atom_site_fract_z
  _atom_site_occupancy
  Rh  Rh1       1.0  0.17600  0.25000  0.00320  1.0000
  Rh  Rh2       1.0  0.32500  0.25000  0.11400  1.0000
  Rh  Rh3       1.0  0.03200  0.25000  0.18700  1.0000
  Rh  Rh4       1.0  0.53200  0.25000  0.31300  1.0000
  Rh  Rh5       1.0  0.82500  0.25000  0.38600  1.0000
  Rh  Rh6       1.0  0.67600  0.25000  0.49700  1.0000
  Rh  Rh7       1.0  0.32400  0.75000  0.50300  1.0000
  Rh  Rh8       1.0  0.17500  0.75000  0.61400  1.0000
  Rh  Rh9       1.0  0.46800  0.75000  0.68700  1.0000
  Rh  Rh10      1.0  0.96800  0.75000  0.81300  1.0000
  Rh  Rh11      1.0  0.67500  0.75000  0.88600  1.0000
  Rh  Rh12      1.0  0.82400  0.75000  0.99700  1.0000
  Si  Si1       1.0  0.54900  0.75000  0.02080  1.0000
  Si  Si2       1.0  0.91000  0.25000  0.06900  1.0000
  Si  Si3       1.0  0.64300  0.25000  0.11200  1.0000
  Si  Si4       1.0  0.23200  0.75000  0.22000  1.0000
  Si  Si5       1.0  0.73200  0.75000  0.28000  1.0000
  Si  Si6       1.0  0.14300  0.25000  0.38800  1.0000
  Si  Si7       1.0  0.41000  0.25000  0.43100  1.0000
  Si  Si8       1.0  0.04940  0.75000  0.47900  1.0000
  Si  Si9       1.0  0.95100  0.25000  0.52100  1.0000
  Si  Si10      1.0  0.59000  0.75000  0.56900  1.0000
  Si  Si11      1.0  0.85700  0.75000  0.61200  1.0000
  Si  Si12      1.0  0.26800  0.25000  0.72000  1.0000
  Si  Si13      1.0  0.76800  0.25000  0.78000  1.0000
  Si  Si14      1.0  0.35700  0.75000  0.88800  1.0000
  Si  Si15      1.0  0.09030  0.75000  0.93100  1.0000
  Si  Si16      1.0  0.45100  0.25000  0.97900  1.0000
