data_image0
_chemical_formula_structural       Bi8Pb4S16
_chemical_formula_sum              "Bi8 Pb4 S16"
_cell_length_a       11.8257
_cell_length_b       14.6577
_cell_length_c       4.11401
_cell_angle_alpha    90
_cell_angle_beta     90
_cell_angle_gamma    90

_space_group_name_H-M_alt    "P 1"
_space_group_IT_number       1

loop_
  _space_group_symop_operation_xyz
  'x, y, z'

loop_
  _atom_site_type_symbol
  _atom_site_label
  _atom_site_symmetry_multiplicity
  _atom_site_fract_x
  _atom_site_fract_y
  _atom_site_fract_z
  _atom_site_occupancy
  Bi  Bi1       1.0  0.56700  0.10900  0.25000  1.0000
  Bi  Bi2       1.0  0.06730  0.39100  0.25000  1.0000
  Bi  Bi3       1.0  0.60300  0.59700  0.25000  1.0000
  Bi  Bi4       1.0  0.10300  0.90300  0.25000  1.0000
  Bi  Bi5       1.0  0.89700  0.09680  0.75000  1.0000
  Bi  Bi6       1.0  0.39700  0.40300  0.75000  1.0000
  Bi  Bi7       1.0  0.93300  0.60900  0.75000  1.0000
  Bi  Bi8       1.0  0.43300  0.89100  0.75000  1.0000
  Pb  Pb1       1.0  0.24700  0.65300  0.25000  1.0000
  Pb  Pb2       1.0  0.74700  0.84700  0.25000  1.0000
  Pb  Pb3       1.0  0.25300  0.15300  0.75000  1.0000
  Pb  Pb4       1.0  0.75300  0.34700  0.75000  1.0000
  S   S1        1.0  0.33500  0.01190  0.25000  1.0000
  S   S2        1.0  0.05310  0.09060  0.25000  1.0000
  S   S3        1.0  0.76200  0.20000  0.25000  1.0000
  S   S4        1.0  0.26200  0.30000  0.25000  1.0000
  S   S5        1.0  0.55300  0.40900  0.25000  1.0000
  S   S6        1.0  0.83500  0.48800  0.25000  1.0000
  S   S7        1.0  0.01780  0.71300  0.25000  1.0000
  S   S8        1.0  0.51800  0.78700  0.25000  1.0000
  S   S9        1.0  0.48200  0.21300  0.75000  1.0000
  S   S10       1.0  0.98200  0.28700  0.75000  1.0000
  S   S11       1.0  0.16500  0.51200  0.75000  1.0000
  S   S12       1.0  0.44700  0.59100  0.75000  1.0000
  S   S13       1.0  0.73800  0.70000  0.75000  1.0000
  S   S14       1.0  0.23800  0.80000  0.75000  1.0000
  S   S15       1.0  0.94700  0.90900  0.75000  1.0000
  S   S16       1.0  0.66500  0.98800  0.75000  1.0000
