data_image0
_chemical_formula_structural       Cu4Na4O16P4
_chemical_formula_sum              "Cu4 Na4 O16 P4"
_cell_length_a       9.69894
_cell_length_b       4.7854
_cell_length_c       7.02554
_cell_angle_alpha    90
_cell_angle_beta     90
_cell_angle_gamma    90

_space_group_name_H-M_alt    "P 1"
_space_group_IT_number       1

loop_
  _space_group_symop_operation_xyz
  'x, y, z'

loop_
  _atom_site_type_symbol
  _atom_site_label
  _atom_site_symmetry_multiplicity
  _atom_site_fract_x
  _atom_site_fract_y
  _atom_site_fract_z
  _atom_site_occupancy
  Cu  Cu1       1.0  0.04020  0.00915  0.06260  1.0000
  Cu  Cu2       1.0  0.96000  0.50900  0.43700  1.0000
  Cu  Cu3       1.0  0.46000  0.99100  0.56300  1.0000
  Cu  Cu4       1.0  0.54000  0.49100  0.93700  1.0000
  Na  Na1       1.0  0.69000  0.00843  0.22900  1.0000
  Na  Na2       1.0  0.31000  0.50800  0.27100  1.0000
  Na  Na3       1.0  0.81000  0.99200  0.72900  1.0000
  Na  Na4       1.0  0.19000  0.49200  0.77100  1.0000
  O   O1        1.0  0.86800  0.75900  0.02320  1.0000
  O   O2        1.0  0.21900  0.17500  0.02810  1.0000
  O   O3        1.0  0.46900  0.19700  0.11700  1.0000
  O   O4        1.0  0.90100  0.30200  0.22200  1.0000
  O   O5        1.0  0.09950  0.80200  0.27800  1.0000
  O   O6        1.0  0.53100  0.69700  0.38300  1.0000
  O   O7        1.0  0.78100  0.67500  0.47200  1.0000
  O   O8        1.0  0.13200  0.25900  0.47700  1.0000
  O   O9        1.0  0.63200  0.24100  0.52300  1.0000
  O   O10       1.0  0.28100  0.82500  0.52800  1.0000
  O   O11       1.0  0.03110  0.80300  0.61700  1.0000
  O   O12       1.0  0.59900  0.69800  0.72200  1.0000
  O   O13       1.0  0.40100  0.19800  0.77800  1.0000
  O   O14       1.0  0.96900  0.30300  0.88300  1.0000
  O   O15       1.0  0.71900  0.32500  0.97200  1.0000
  O   O16       1.0  0.36800  0.74100  0.97700  1.0000
  P   P1        1.0  0.86400  0.43900  0.02350  1.0000
  P   P2        1.0  0.13600  0.93900  0.47600  1.0000
  P   P3        1.0  0.63600  0.56100  0.52400  1.0000
  P   P4        1.0  0.36400  0.06120  0.97600  1.0000
