data_image0
_chemical_formula_structural       Ag2Au6I16Rb4
_chemical_formula_sum              "Ag2 Au6 I16 Rb4"
_cell_length_a       7.67241
_cell_length_b       7.83746
_cell_length_c       21.7027
_cell_angle_alpha    100.388
_cell_angle_beta     90
_cell_angle_gamma    119.306

_space_group_name_H-M_alt    "P 1"
_space_group_IT_number       1

loop_
  _space_group_symop_operation_xyz
  'x, y, z'

loop_
  _atom_site_type_symbol
  _atom_site_label
  _atom_site_symmetry_multiplicity
  _atom_site_fract_x
  _atom_site_fract_y
  _atom_site_fract_z
  _atom_site_occupancy
  Ag  Ag1       1.0  0.01300  0.00000  0.25000  1.0000
  Ag  Ag2       1.0  0.98700  0.00000  0.75000  1.0000
  Au  Au1       1.0  0.00000  0.00000  0.00000  1.0000
  Au  Au2       1.0  0.40100  0.80800  0.19800  1.0000
  Au  Au3       1.0  0.59300  0.19200  0.30200  1.0000
  Au  Au4       1.0  0.00000  0.00000  0.50000  1.0000
  Au  Au5       1.0  0.40700  0.80800  0.69800  1.0000
  Au  Au6       1.0  0.59900  0.19200  0.80200  1.0000
  I   I1        1.0  0.22300  0.38200  0.06200  1.0000
  I   I2        1.0  0.22700  0.90000  0.06360  1.0000
  I   I3        1.0  0.73500  0.92700  0.14500  1.0000
  I   I4        1.0  0.06370  0.66000  0.25000  1.0000
  I   I5        1.0  0.40400  0.34000  0.25000  1.0000
  I   I6        1.0  0.80800  0.07310  0.35500  1.0000
  I   I7        1.0  0.32700  0.09970  0.43600  1.0000
  I   I8        1.0  0.84100  0.61800  0.43800  1.0000
  I   I9        1.0  0.15900  0.38200  0.56200  1.0000
  I   I10       1.0  0.67300  0.90000  0.56400  1.0000
  I   I11       1.0  0.19200  0.92700  0.64500  1.0000
  I   I12       1.0  0.59600  0.66000  0.75000  1.0000
  I   I13       1.0  0.93600  0.34000  0.75000  1.0000
  I   I14       1.0  0.26500  0.07310  0.85500  1.0000
  I   I15       1.0  0.77300  0.09970  0.93600  1.0000
  I   I16       1.0  0.77700  0.61800  0.93800  1.0000
  Rb  Rb1       1.0  0.73300  0.40700  0.09430  1.0000
  Rb  Rb2       1.0  0.32600  0.59300  0.40600  1.0000
  Rb  Rb3       1.0  0.67400  0.40700  0.59400  1.0000
  Rb  Rb4       1.0  0.26700  0.59300  0.90600  1.0000
