data_image0
_chemical_formula_structural       Hg4N24
_chemical_formula_sum              "Hg4 N24"
_cell_length_a       10.366
_cell_length_b       6.10618
_cell_length_c       6.06694
_cell_angle_alpha    90
_cell_angle_beta     90
_cell_angle_gamma    90

_space_group_name_H-M_alt    "P 1"
_space_group_IT_number       1

loop_
  _space_group_symop_operation_xyz
  'x, y, z'

loop_
  _atom_site_type_symbol
  _atom_site_label
  _atom_site_symmetry_multiplicity
  _atom_site_fract_x
  _atom_site_fract_y
  _atom_site_fract_z
  _atom_site_occupancy
  Hg  Hg1       1.0  0.03830  0.23900  0.27600  1.0000
  Hg  Hg2       1.0  0.53800  0.76100  0.27600  1.0000
  Hg  Hg3       1.0  0.46200  0.23900  0.77600  1.0000
  Hg  Hg4       1.0  0.96200  0.76100  0.77600  1.0000
  N   N1        1.0  0.79400  0.20200  0.10400  1.0000
  N   N2        1.0  0.29400  0.79800  0.10400  1.0000
  N   N3        1.0  0.58200  0.05670  0.10900  1.0000
  N   N4        1.0  0.08210  0.94300  0.10900  1.0000
  N   N5        1.0  0.69200  0.12500  0.11300  1.0000
  N   N6        1.0  0.19200  0.87500  0.11300  1.0000
  N   N7        1.0  0.30100  0.30200  0.16000  1.0000
  N   N8        1.0  0.80100  0.69800  0.16000  1.0000
  N   N9        1.0  0.37800  0.38300  0.27400  1.0000
  N   N10       1.0  0.87800  0.61700  0.27400  1.0000
  N   N11       1.0  0.45900  0.45800  0.39500  1.0000
  N   N12       1.0  0.95900  0.54200  0.39500  1.0000
  N   N13       1.0  0.70600  0.20200  0.60400  1.0000
  N   N14       1.0  0.20600  0.79800  0.60400  1.0000
  N   N15       1.0  0.91800  0.05670  0.60900  1.0000
  N   N16       1.0  0.41800  0.94300  0.60900  1.0000
  N   N17       1.0  0.80800  0.12500  0.61300  1.0000
  N   N18       1.0  0.30800  0.87500  0.61300  1.0000
  N   N19       1.0  0.19900  0.30200  0.66000  1.0000
  N   N20       1.0  0.69900  0.69800  0.66000  1.0000
  N   N21       1.0  0.12200  0.38300  0.77400  1.0000
  N   N22       1.0  0.62200  0.61700  0.77400  1.0000
  N   N23       1.0  0.04100  0.45800  0.89500  1.0000
  N   N24       1.0  0.54100  0.54200  0.89500  1.0000
