data_image0
_chemical_formula_structural       Cu12O4Ti12
_chemical_formula_sum              "Cu12 O4 Ti12"
_cell_length_a       7.93718
_cell_length_b       7.93718
_cell_length_c       7.93718
_cell_angle_alpha    120
_cell_angle_beta     90
_cell_angle_gamma    120

_space_group_name_H-M_alt    "P 1"
_space_group_IT_number       1

loop_
  _space_group_symop_operation_xyz
  'x, y, z'

loop_
  _atom_site_type_symbol
  _atom_site_label
  _atom_site_symmetry_multiplicity
  _atom_site_fract_x
  _atom_site_fract_y
  _atom_site_fract_z
  _atom_site_occupancy
  Cu  Cu1       1.0  0.37500  0.75000  0.12500  1.0000
  Cu  Cu2       1.0  0.58300  0.16700  0.41700  1.0000
  Cu  Cu3       1.0  0.25000  0.83300  0.41700  1.0000
  Cu  Cu4       1.0  0.58300  0.83300  0.41700  1.0000
  Cu  Cu5       1.0  0.16700  0.33300  0.50000  1.0000
  Cu  Cu6       1.0  0.87500  0.25000  0.62500  1.0000
  Cu  Cu7       1.0  0.37500  0.25000  0.62500  1.0000
  Cu  Cu8       1.0  0.37500  0.75000  0.62500  1.0000
  Cu  Cu9       1.0  0.58300  0.16700  0.75000  1.0000
  Cu  Cu10      1.0  0.16700  0.33300  0.83300  1.0000
  Cu  Cu11      1.0  0.16700  0.66700  0.83300  1.0000
  Cu  Cu12      1.0  0.50000  0.66700  0.83300  1.0000
  O   O1        1.0  0.37500  0.25000  0.12500  1.0000
  O   O2        1.0  0.87500  0.25000  0.12500  1.0000
  O   O3        1.0  0.87500  0.75000  0.12500  1.0000
  O   O4        1.0  0.87500  0.75000  0.62500  1.0000
  Ti  Ti1       1.0  0.56800  0.13500  0.06760  1.0000
  Ti  Ti2       1.0  0.56800  0.50000  0.06760  1.0000
  Ti  Ti3       1.0  0.93200  0.50000  0.06760  1.0000
  Ti  Ti4       1.0  0.81800  0.00000  0.18200  1.0000
  Ti  Ti5       1.0  0.18200  0.00000  0.18200  1.0000
  Ti  Ti6       1.0  0.18200  0.36500  0.18200  1.0000
  Ti  Ti7       1.0  0.93200  0.50000  0.43200  1.0000
  Ti  Ti8       1.0  0.93200  0.86500  0.43200  1.0000
  Ti  Ti9       1.0  0.56800  0.50000  0.43200  1.0000
  Ti  Ti10      1.0  0.18200  0.00000  0.81800  1.0000
  Ti  Ti11      1.0  0.81800  0.00000  0.81800  1.0000
  Ti  Ti12      1.0  0.81800  0.63500  0.81800  1.0000
