data_image0
_chemical_formula_structural       Mn8O16Si4
_chemical_formula_sum              "Mn8 O16 Si4"
_cell_length_a       4.90517
_cell_length_b       10.5834
_cell_length_c       6.26213
_cell_angle_alpha    90
_cell_angle_beta     90
_cell_angle_gamma    90

_space_group_name_H-M_alt    "P 1"
_space_group_IT_number       1

loop_
  _space_group_symop_operation_xyz
  'x, y, z'

loop_
  _atom_site_type_symbol
  _atom_site_label
  _atom_site_symmetry_multiplicity
  _atom_site_fract_x
  _atom_site_fract_y
  _atom_site_fract_z
  _atom_site_occupancy
  Mn  Mn1       1.0  0.00000  0.00000  0.00000  1.0000
  Mn  Mn2       1.0  0.50000  0.50000  0.00000  1.0000
  Mn  Mn3       1.0  0.98800  0.28000  0.25000  1.0000
  Mn  Mn4       1.0  0.51200  0.78000  0.25000  1.0000
  Mn  Mn5       1.0  0.00000  0.00000  0.50000  1.0000
  Mn  Mn6       1.0  0.50000  0.50000  0.50000  1.0000
  Mn  Mn7       1.0  0.48800  0.22000  0.75000  1.0000
  Mn  Mn8       1.0  0.01210  0.72000  0.75000  1.0000
  O   O1        1.0  0.28600  0.16500  0.03990  1.0000
  O   O2        1.0  0.21400  0.66500  0.03990  1.0000
  O   O3        1.0  0.76000  0.09380  0.25000  1.0000
  O   O4        1.0  0.21100  0.45200  0.25000  1.0000
  O   O5        1.0  0.74000  0.59400  0.25000  1.0000
  O   O6        1.0  0.28900  0.95200  0.25000  1.0000
  O   O7        1.0  0.28600  0.16500  0.46000  1.0000
  O   O8        1.0  0.21400  0.66500  0.46000  1.0000
  O   O9        1.0  0.78600  0.33500  0.54000  1.0000
  O   O10       1.0  0.71400  0.83500  0.54000  1.0000
  O   O11       1.0  0.71100  0.04770  0.75000  1.0000
  O   O12       1.0  0.26000  0.40600  0.75000  1.0000
  O   O13       1.0  0.78900  0.54800  0.75000  1.0000
  O   O14       1.0  0.24000  0.90600  0.75000  1.0000
  O   O15       1.0  0.78600  0.33500  0.96000  1.0000
  O   O16       1.0  0.71400  0.83500  0.96000  1.0000
  Si  Si1       1.0  0.42800  0.09650  0.25000  1.0000
  Si  Si2       1.0  0.07230  0.59700  0.25000  1.0000
  Si  Si3       1.0  0.92800  0.40300  0.75000  1.0000
  Si  Si4       1.0  0.57200  0.90300  0.75000  1.0000
