data_image0
_chemical_formula_structural       Fe12O4Ti12
_chemical_formula_sum              "Fe12 O4 Ti12"
_cell_length_a       8.02662
_cell_length_b       8.02662
_cell_length_c       8.02662
_cell_angle_alpha    120
_cell_angle_beta     90
_cell_angle_gamma    120

_space_group_name_H-M_alt    "P 1"
_space_group_IT_number       1

loop_
  _space_group_symop_operation_xyz
  'x, y, z'

loop_
  _atom_site_type_symbol
  _atom_site_label
  _atom_site_symmetry_multiplicity
  _atom_site_fract_x
  _atom_site_fract_y
  _atom_site_fract_z
  _atom_site_occupancy
  Fe  Fe1       1.0  0.37500  0.75000  0.12500  1.0000
  Fe  Fe2       1.0  0.58300  0.16700  0.41700  1.0000
  Fe  Fe3       1.0  0.25000  0.83300  0.41700  1.0000
  Fe  Fe4       1.0  0.58300  0.83300  0.41700  1.0000
  Fe  Fe5       1.0  0.16700  0.33300  0.50000  1.0000
  Fe  Fe6       1.0  0.87500  0.25000  0.62500  1.0000
  Fe  Fe7       1.0  0.37500  0.25000  0.62500  1.0000
  Fe  Fe8       1.0  0.37500  0.75000  0.62500  1.0000
  Fe  Fe9       1.0  0.58300  0.16700  0.75000  1.0000
  Fe  Fe10      1.0  0.16700  0.33300  0.83300  1.0000
  Fe  Fe11      1.0  0.16700  0.66700  0.83300  1.0000
  Fe  Fe12      1.0  0.50000  0.66700  0.83300  1.0000
  O   O1        1.0  0.37500  0.25000  0.12500  1.0000
  O   O2        1.0  0.87500  0.25000  0.12500  1.0000
  O   O3        1.0  0.87500  0.75000  0.12500  1.0000
  O   O4        1.0  0.87500  0.75000  0.62500  1.0000
  Ti  Ti1       1.0  0.56400  0.12800  0.06410  1.0000
  Ti  Ti2       1.0  0.56400  0.50000  0.06410  1.0000
  Ti  Ti3       1.0  0.93600  0.50000  0.06410  1.0000
  Ti  Ti4       1.0  0.81400  0.00000  0.18600  1.0000
  Ti  Ti5       1.0  0.18600  0.00000  0.18600  1.0000
  Ti  Ti6       1.0  0.18600  0.37200  0.18600  1.0000
  Ti  Ti7       1.0  0.93600  0.50000  0.43600  1.0000
  Ti  Ti8       1.0  0.93600  0.87200  0.43600  1.0000
  Ti  Ti9       1.0  0.56400  0.50000  0.43600  1.0000
  Ti  Ti10      1.0  0.18600  0.00000  0.81400  1.0000
  Ti  Ti11      1.0  0.81400  0.62800  0.81400  1.0000
  Ti  Ti12      1.0  0.81400  0.00000  0.81400  1.0000
