data_image0
_chemical_formula_structural       C8N8S8Zn4
_chemical_formula_sum              "C8 N8 S8 Zn4"
_cell_length_a       7.79731
_cell_length_b       10.802
_cell_length_c       7.71561
_cell_angle_alpha    113.024
_cell_angle_beta     92.797
_cell_angle_gamma    103.492

_space_group_name_H-M_alt    "P 1"
_space_group_IT_number       1

loop_
  _space_group_symop_operation_xyz
  'x, y, z'

loop_
  _atom_site_type_symbol
  _atom_site_label
  _atom_site_symmetry_multiplicity
  _atom_site_fract_x
  _atom_site_fract_y
  _atom_site_fract_z
  _atom_site_occupancy
  C   C1        1.0  0.41800  0.69000  0.08620  1.0000
  C   C2        1.0  0.70800  0.12000  0.24800  1.0000
  C   C3        1.0  0.11100  0.89100  0.32200  1.0000
  C   C4        1.0  0.25600  0.38300  0.38000  1.0000
  C   C5        1.0  0.74400  0.61700  0.62000  1.0000
  C   C6        1.0  0.88900  0.10900  0.67800  1.0000
  C   C7        1.0  0.29200  0.88000  0.75200  1.0000
  C   C8        1.0  0.58200  0.31000  0.91400  1.0000
  N   N1        1.0  0.49900  0.75600  0.24100  1.0000
  N   N2        1.0  0.59000  0.13400  0.33800  1.0000
  N   N3        1.0  0.21000  0.00248  0.40800  1.0000
  N   N4        1.0  0.31900  0.31200  0.43200  1.0000
  N   N5        1.0  0.68100  0.68800  0.56800  1.0000
  N   N6        1.0  0.79000  0.99800  0.59200  1.0000
  N   N7        1.0  0.41000  0.86600  0.66200  1.0000
  N   N8        1.0  0.50100  0.24400  0.75900  1.0000
  S   S1        1.0  0.87000  0.09590  0.12400  1.0000
  S   S2        1.0  0.68800  0.40400  0.13100  1.0000
  S   S3        1.0  0.96900  0.73600  0.20900  1.0000
  S   S4        1.0  0.17200  0.48800  0.31700  1.0000
  S   S5        1.0  0.82800  0.51200  0.68300  1.0000
  S   S6        1.0  0.03060  0.26400  0.79100  1.0000
  S   S7        1.0  0.31200  0.59600  0.86900  1.0000
  S   S8        1.0  0.13000  0.90400  0.87600  1.0000
  Zn  Zn1       1.0  0.93400  0.30800  0.09050  1.0000
  Zn  Zn2       1.0  0.40200  0.17400  0.49200  1.0000
  Zn  Zn3       1.0  0.59800  0.82600  0.50800  1.0000
  Zn  Zn4       1.0  0.06580  0.69200  0.91000  1.0000
