data_image0
_chemical_formula_structural       Mn8S16Si4
_chemical_formula_sum              "Mn8 S16 Si4"
_cell_length_a       12.6669
_cell_length_b       7.42376
_cell_length_c       5.92316
_cell_angle_alpha    90
_cell_angle_beta     90
_cell_angle_gamma    90

_space_group_name_H-M_alt    "P 1"
_space_group_IT_number       1

loop_
  _space_group_symop_operation_xyz
  'x, y, z'

loop_
  _atom_site_type_symbol
  _atom_site_label
  _atom_site_symmetry_multiplicity
  _atom_site_fract_x
  _atom_site_fract_y
  _atom_site_fract_z
  _atom_site_occupancy
  Mn  Mn1       1.0  0.00000  0.00000  0.00000  1.0000
  Mn  Mn2       1.0  0.00000  0.50000  0.00000  1.0000
  Mn  Mn3       1.0  0.27000  0.75000  0.01310  1.0000
  Mn  Mn4       1.0  0.77000  0.75000  0.48700  1.0000
  Mn  Mn5       1.0  0.50000  0.00000  0.50000  1.0000
  Mn  Mn6       1.0  0.50000  0.50000  0.50000  1.0000
  Mn  Mn7       1.0  0.23000  0.25000  0.51300  1.0000
  Mn  Mn8       1.0  0.73000  0.25000  0.98700  1.0000
  S   S1        1.0  0.09270  0.75000  0.23500  1.0000
  S   S2        1.0  0.56600  0.25000  0.23700  1.0000
  S   S3        1.0  0.33200  0.02370  0.24900  1.0000
  S   S4        1.0  0.33200  0.47600  0.24900  1.0000
  S   S5        1.0  0.83200  0.02370  0.25100  1.0000
  S   S6        1.0  0.83200  0.47600  0.25100  1.0000
  S   S7        1.0  0.06590  0.25000  0.26300  1.0000
  S   S8        1.0  0.59300  0.75000  0.26500  1.0000
  S   S9        1.0  0.40700  0.25000  0.73500  1.0000
  S   S10       1.0  0.93400  0.75000  0.73700  1.0000
  S   S11       1.0  0.16800  0.52400  0.74900  1.0000
  S   S12       1.0  0.16800  0.97600  0.74900  1.0000
  S   S13       1.0  0.66800  0.52400  0.75100  1.0000
  S   S14       1.0  0.66800  0.97600  0.75100  1.0000
  S   S15       1.0  0.43400  0.75000  0.76300  1.0000
  S   S16       1.0  0.90700  0.25000  0.76500  1.0000
  Si  Si1       1.0  0.41000  0.25000  0.09350  1.0000
  Si  Si2       1.0  0.91000  0.25000  0.40700  1.0000
  Si  Si3       1.0  0.09030  0.75000  0.59300  1.0000
  Si  Si4       1.0  0.59000  0.75000  0.90700  1.0000
