data_image0
_chemical_formula_structural       Ru16Si12
_chemical_formula_sum              "Ru16 Si12"
_cell_length_a       5.22968
_cell_length_b       4.03737
_cell_length_c       17.319
_cell_angle_alpha    90
_cell_angle_beta     90
_cell_angle_gamma    90

_space_group_name_H-M_alt    "P 1"
_space_group_IT_number       1

loop_
  _space_group_symop_operation_xyz
  'x, y, z'

loop_
  _atom_site_type_symbol
  _atom_site_label
  _atom_site_symmetry_multiplicity
  _atom_site_fract_x
  _atom_site_fract_y
  _atom_site_fract_z
  _atom_site_occupancy
  Ru  Ru1       1.0  0.32600  0.75000  0.02890  1.0000
  Ru  Ru2       1.0  0.01030  0.25000  0.10700  1.0000
  Ru  Ru3       1.0  0.65900  0.75000  0.16400  1.0000
  Ru  Ru4       1.0  0.34600  0.25000  0.23600  1.0000
  Ru  Ru5       1.0  0.84600  0.25000  0.26400  1.0000
  Ru  Ru6       1.0  0.15900  0.75000  0.33600  1.0000
  Ru  Ru7       1.0  0.51000  0.25000  0.39300  1.0000
  Ru  Ru8       1.0  0.82600  0.75000  0.47100  1.0000
  Ru  Ru9       1.0  0.17400  0.25000  0.52900  1.0000
  Ru  Ru10      1.0  0.49000  0.75000  0.60700  1.0000
  Ru  Ru11      1.0  0.84100  0.25000  0.66400  1.0000
  Ru  Ru12      1.0  0.15400  0.75000  0.73600  1.0000
  Ru  Ru13      1.0  0.65400  0.75000  0.76400  1.0000
  Ru  Ru14      1.0  0.34100  0.25000  0.83600  1.0000
  Ru  Ru15      1.0  0.99000  0.75000  0.89300  1.0000
  Ru  Ru16      1.0  0.67400  0.25000  0.97100  1.0000
  Si  Si1       1.0  0.85000  0.75000  0.03400  1.0000
  Si  Si2       1.0  0.50300  0.25000  0.10400  1.0000
  Si  Si3       1.0  0.12100  0.75000  0.19100  1.0000
  Si  Si4       1.0  0.62100  0.75000  0.30900  1.0000
  Si  Si5       1.0  0.00327  0.25000  0.39600  1.0000
  Si  Si6       1.0  0.35000  0.75000  0.46600  1.0000
  Si  Si7       1.0  0.65000  0.25000  0.53400  1.0000
  Si  Si8       1.0  0.99700  0.75000  0.60400  1.0000
  Si  Si9       1.0  0.37900  0.25000  0.69100  1.0000
  Si  Si10      1.0  0.87900  0.25000  0.80900  1.0000
  Si  Si11      1.0  0.49700  0.75000  0.89600  1.0000
  Si  Si12      1.0  0.15000  0.25000  0.96600  1.0000
