data_image0
_chemical_formula_structural       Cu4N24
_chemical_formula_sum              "Cu4 N24"
_cell_length_a       13.0345
_cell_length_b       3.05012
_cell_length_c       8.70308
_cell_angle_alpha    90
_cell_angle_beta     90
_cell_angle_gamma    90

_space_group_name_H-M_alt    "P 1"
_space_group_IT_number       1

loop_
  _space_group_symop_operation_xyz
  'x, y, z'

loop_
  _atom_site_type_symbol
  _atom_site_label
  _atom_site_symmetry_multiplicity
  _atom_site_fract_x
  _atom_site_fract_y
  _atom_site_fract_z
  _atom_site_occupancy
  Cu  Cu1       1.0  0.10800  0.75000  0.08570  1.0000
  Cu  Cu2       1.0  0.60800  0.75000  0.41400  1.0000
  Cu  Cu3       1.0  0.39200  0.25000  0.58600  1.0000
  Cu  Cu4       1.0  0.89200  0.25000  0.91400  1.0000
  N   N1        1.0  0.81700  0.75000  0.01130  1.0000
  N   N2        1.0  0.74600  0.75000  0.09950  1.0000
  N   N3        1.0  0.40900  0.25000  0.12700  1.0000
  N   N4        1.0  0.01560  0.25000  0.15100  1.0000
  N   N5        1.0  0.67500  0.75000  0.18000  1.0000
  N   N6        1.0  0.46300  0.25000  0.23300  1.0000
  N   N7        1.0  0.96300  0.25000  0.26700  1.0000
  N   N8        1.0  0.17500  0.75000  0.32000  1.0000
  N   N9        1.0  0.51600  0.25000  0.34900  1.0000
  N   N10       1.0  0.90900  0.25000  0.37300  1.0000
  N   N11       1.0  0.24600  0.75000  0.40000  1.0000
  N   N12       1.0  0.31700  0.75000  0.48900  1.0000
  N   N13       1.0  0.68300  0.25000  0.51100  1.0000
  N   N14       1.0  0.75400  0.25000  0.60000  1.0000
  N   N15       1.0  0.09120  0.75000  0.62700  1.0000
  N   N16       1.0  0.48400  0.75000  0.65100  1.0000
  N   N17       1.0  0.82500  0.25000  0.68000  1.0000
  N   N18       1.0  0.03730  0.75000  0.73300  1.0000
  N   N19       1.0  0.53700  0.75000  0.76700  1.0000
  N   N20       1.0  0.32500  0.25000  0.82000  1.0000
  N   N21       1.0  0.98400  0.75000  0.84900  1.0000
  N   N22       1.0  0.59100  0.75000  0.87300  1.0000
  N   N23       1.0  0.25400  0.25000  0.90000  1.0000
  N   N24       1.0  0.18300  0.25000  0.98900  1.0000
