data_image0
_chemical_formula_structural       Be6F18K2Zn2
_chemical_formula_sum              "Be6 F18 K2 Zn2"
_cell_length_a       6.45499
_cell_length_b       6.45492
_cell_length_c       9.32985
_cell_angle_alpha    90
_cell_angle_beta     90
_cell_angle_gamma    120

_space_group_name_H-M_alt    "P 1"
_space_group_IT_number       1

loop_
  _space_group_symop_operation_xyz
  'x, y, z'

loop_
  _atom_site_type_symbol
  _atom_site_label
  _atom_site_symmetry_multiplicity
  _atom_site_fract_x
  _atom_site_fract_y
  _atom_site_fract_z
  _atom_site_occupancy
  Be  Be1       1.0  0.04990  0.27500  0.25000  1.0000
  Be  Be2       1.0  0.72500  0.77500  0.25000  1.0000
  Be  Be3       1.0  0.22500  0.95000  0.25000  1.0000
  Be  Be4       1.0  0.22500  0.27500  0.75000  1.0000
  Be  Be5       1.0  0.04990  0.77500  0.75000  1.0000
  Be  Be6       1.0  0.72500  0.95000  0.75000  1.0000
  F   F1        1.0  0.06260  0.41100  0.11500  1.0000
  F   F2        1.0  0.58900  0.65200  0.11500  1.0000
  F   F3        1.0  0.34800  0.93700  0.11500  1.0000
  F   F4        1.0  0.79600  0.04380  0.25000  1.0000
  F   F5        1.0  0.24700  0.20400  0.25000  1.0000
  F   F6        1.0  0.95600  0.75300  0.25000  1.0000
  F   F7        1.0  0.06260  0.41100  0.38500  1.0000
  F   F8        1.0  0.58900  0.65200  0.38500  1.0000
  F   F9        1.0  0.34800  0.93700  0.38500  1.0000
  F   F10       1.0  0.34800  0.41100  0.61500  1.0000
  F   F11       1.0  0.06260  0.65200  0.61500  1.0000
  F   F12       1.0  0.58900  0.93700  0.61500  1.0000
  F   F13       1.0  0.24700  0.04380  0.75000  1.0000
  F   F14       1.0  0.95600  0.20400  0.75000  1.0000
  F   F15       1.0  0.79600  0.75300  0.75000  1.0000
  F   F16       1.0  0.34800  0.41100  0.88500  1.0000
  F   F17       1.0  0.58900  0.93700  0.88500  1.0000
  F   F18       1.0  0.06260  0.65200  0.88500  1.0000
  K   K1        1.0  0.66700  0.33300  0.00000  1.0000
  K   K2        1.0  0.66700  0.33300  0.50000  1.0000
  Zn  Zn1       1.0  0.33300  0.66700  0.00000  1.0000
  Zn  Zn2       1.0  0.33300  0.66700  0.50000  1.0000
