data_image0
_chemical_formula_structural       O16Pb8Sn4
_chemical_formula_sum              "O16 Pb8 Sn4"
_cell_length_a       8.60647
_cell_length_b       8.58487
_cell_length_c       6.37005
_cell_angle_alpha    90
_cell_angle_beta     90
_cell_angle_gamma    90

_space_group_name_H-M_alt    "P 1"
_space_group_IT_number       1

loop_
  _space_group_symop_operation_xyz
  'x, y, z'

loop_
  _atom_site_type_symbol
  _atom_site_label
  _atom_site_symmetry_multiplicity
  _atom_site_fract_x
  _atom_site_fract_y
  _atom_site_fract_z
  _atom_site_occupancy
  O   O1        1.0  0.39700  0.13000  0.00000  1.0000
  O   O2        1.0  0.89700  0.37000  0.00000  1.0000
  O   O3        1.0  0.10300  0.63000  0.00000  1.0000
  O   O4        1.0  0.60300  0.87000  0.00000  1.0000
  O   O5        1.0  0.66500  0.17300  0.25700  1.0000
  O   O6        1.0  0.16500  0.32700  0.25700  1.0000
  O   O7        1.0  0.83500  0.67300  0.25700  1.0000
  O   O8        1.0  0.33500  0.82700  0.25700  1.0000
  O   O9        1.0  0.37000  0.09650  0.50000  1.0000
  O   O10       1.0  0.87000  0.40300  0.50000  1.0000
  O   O11       1.0  0.13000  0.59700  0.50000  1.0000
  O   O12       1.0  0.63000  0.90300  0.50000  1.0000
  O   O13       1.0  0.66500  0.17300  0.74300  1.0000
  O   O14       1.0  0.16500  0.32700  0.74300  1.0000
  O   O15       1.0  0.83500  0.67300  0.74300  1.0000
  O   O16       1.0  0.33500  0.82700  0.74300  1.0000
  Pb  Pb1       1.0  0.13600  0.14700  0.00000  1.0000
  Pb  Pb2       1.0  0.63600  0.35300  0.00000  1.0000
  Pb  Pb3       1.0  0.36400  0.64700  0.00000  1.0000
  Pb  Pb4       1.0  0.86400  0.85300  0.00000  1.0000
  Pb  Pb5       1.0  0.84400  0.13800  0.50000  1.0000
  Pb  Pb6       1.0  0.34400  0.36200  0.50000  1.0000
  Pb  Pb7       1.0  0.65600  0.63800  0.50000  1.0000
  Pb  Pb8       1.0  0.15600  0.86200  0.50000  1.0000
  Sn  Sn1       1.0  0.50000  0.00000  0.25100  1.0000
  Sn  Sn2       1.0  0.00000  0.50000  0.25100  1.0000
  Sn  Sn3       1.0  0.50000  0.00000  0.74900  1.0000
  Sn  Sn4       1.0  0.00000  0.50000  0.74900  1.0000
