data_image0
_chemical_formula_structural       Be4F16K8
_chemical_formula_sum              "Be4 F16 K8"
_cell_length_a       6.94202
_cell_length_b       5.28503
_cell_length_c       9.20634
_cell_angle_alpha    90
_cell_angle_beta     90
_cell_angle_gamma    90

_space_group_name_H-M_alt    "P 1"
_space_group_IT_number       1

loop_
  _space_group_symop_operation_xyz
  'x, y, z'

loop_
  _atom_site_type_symbol
  _atom_site_label
  _atom_site_symmetry_multiplicity
  _atom_site_fract_x
  _atom_site_fract_y
  _atom_site_fract_z
  _atom_site_occupancy
  Be  Be1       1.0  0.76400  0.75000  0.58200  1.0000
  Be  Be2       1.0  0.73600  0.25000  0.08220  1.0000
  Be  Be3       1.0  0.26400  0.75000  0.91800  1.0000
  Be  Be4       1.0  0.23600  0.25000  0.41800  1.0000
  F   F1        1.0  0.68700  0.75000  0.42600  1.0000
  F   F2        1.0  0.81300  0.25000  0.92600  1.0000
  F   F3        1.0  0.18700  0.75000  0.07430  1.0000
  F   F4        1.0  0.31300  0.25000  0.57400  1.0000
  F   F5        1.0  0.48400  0.75000  0.90500  1.0000
  F   F6        1.0  0.01580  0.25000  0.40500  1.0000
  F   F7        1.0  0.31800  0.48500  0.34400  1.0000
  F   F8        1.0  0.18200  0.51500  0.84400  1.0000
  F   F9        1.0  0.81800  0.01500  0.15600  1.0000
  F   F10       1.0  0.68200  0.98500  0.65600  1.0000
  F   F11       1.0  0.68200  0.51500  0.65600  1.0000
  F   F12       1.0  0.81800  0.48500  0.15600  1.0000
  F   F13       1.0  0.18200  0.98500  0.84400  1.0000
  F   F14       1.0  0.31800  0.01500  0.34400  1.0000
  F   F15       1.0  0.98400  0.75000  0.59500  1.0000
  F   F16       1.0  0.51600  0.25000  0.09500  1.0000
  K   K1        1.0  0.84900  0.75000  0.90300  1.0000
  K   K2        1.0  0.65100  0.25000  0.40300  1.0000
  K   K3        1.0  0.34900  0.75000  0.59700  1.0000
  K   K4        1.0  0.15100  0.25000  0.09720  1.0000
  K   K5        1.0  0.01840  0.75000  0.31800  1.0000
  K   K6        1.0  0.48200  0.25000  0.81800  1.0000
  K   K7        1.0  0.51800  0.75000  0.18200  1.0000
  K   K8        1.0  0.98200  0.25000  0.68200  1.0000
