data_image0
_chemical_formula_structural       S20Th8
_chemical_formula_sum              "S20 Th8"
_cell_length_a       7.60858
_cell_length_b       7.63611
_cell_length_c       10.2456
_cell_angle_alpha    90
_cell_angle_beta     90
_cell_angle_gamma    90

_space_group_name_H-M_alt    "P 1"
_space_group_IT_number       1

loop_
  _space_group_symop_operation_xyz
  'x, y, z'

loop_
  _atom_site_type_symbol
  _atom_site_label
  _atom_site_symmetry_multiplicity
  _atom_site_fract_x
  _atom_site_fract_y
  _atom_site_fract_z
  _atom_site_occupancy
  S   S1        1.0  0.40000  0.64900  0.10200  1.0000
  S   S2        1.0  0.60000  0.85100  0.10200  1.0000
  S   S3        1.0  0.86300  0.11200  0.10800  1.0000
  S   S4        1.0  0.13700  0.38800  0.10800  1.0000
  S   S5        1.0  0.00000  0.75000  0.24900  1.0000
  S   S6        1.0  0.50000  0.25000  0.25100  1.0000
  S   S7        1.0  0.63700  0.61200  0.39200  1.0000
  S   S8        1.0  0.36300  0.88800  0.39200  1.0000
  S   S9        1.0  0.10000  0.14900  0.39800  1.0000
  S   S10       1.0  0.90000  0.35100  0.39800  1.0000
  S   S11       1.0  0.10000  0.64900  0.60200  1.0000
  S   S12       1.0  0.90000  0.85100  0.60200  1.0000
  S   S13       1.0  0.63700  0.11200  0.60800  1.0000
  S   S14       1.0  0.36300  0.38800  0.60800  1.0000
  S   S15       1.0  0.50000  0.75000  0.74900  1.0000
  S   S16       1.0  0.00000  0.25000  0.75100  1.0000
  S   S17       1.0  0.86300  0.61200  0.89200  1.0000
  S   S18       1.0  0.13700  0.88800  0.89200  1.0000
  S   S19       1.0  0.40000  0.14900  0.89800  1.0000
  S   S20       1.0  0.60000  0.35100  0.89800  1.0000
  Th  Th1       1.0  0.23400  0.01710  0.14600  1.0000
  Th  Th2       1.0  0.76600  0.48300  0.14600  1.0000
  Th  Th3       1.0  0.26600  0.51700  0.35400  1.0000
  Th  Th4       1.0  0.73400  0.98300  0.35400  1.0000
  Th  Th5       1.0  0.26600  0.01710  0.64600  1.0000
  Th  Th6       1.0  0.73400  0.48300  0.64600  1.0000
  Th  Th7       1.0  0.23400  0.51700  0.85400  1.0000
  Th  Th8       1.0  0.76600  0.98300  0.85400  1.0000
