data_image0
_chemical_formula_structural       C8Cd4N8S8
_chemical_formula_sum              "C8 Cd4 N8 S8"
_cell_length_a       7.40171
_cell_length_b       13.1264
_cell_length_c       5.88907
_cell_angle_alpha    90
_cell_angle_beta     112.225
_cell_angle_gamma    90

_space_group_name_H-M_alt    "P 1"
_space_group_IT_number       1

loop_
  _space_group_symop_operation_xyz
  'x, y, z'

loop_
  _atom_site_type_symbol
  _atom_site_label
  _atom_site_symmetry_multiplicity
  _atom_site_fract_x
  _atom_site_fract_y
  _atom_site_fract_z
  _atom_site_occupancy
  C   C1        1.0  0.77400  0.98800  0.00313  1.0000
  C   C2        1.0  0.98300  0.75200  0.10400  1.0000
  C   C3        1.0  0.51700  0.25200  0.39600  1.0000
  C   C4        1.0  0.72600  0.48800  0.49700  1.0000
  C   C5        1.0  0.27400  0.51200  0.50300  1.0000
  C   C6        1.0  0.48300  0.74800  0.60400  1.0000
  C   C7        1.0  0.01710  0.24800  0.89600  1.0000
  C   C8        1.0  0.22600  0.01240  0.99700  1.0000
  Cd  Cd1       1.0  0.38300  0.63100  0.05800  1.0000
  Cd  Cd2       1.0  0.11700  0.13100  0.44200  1.0000
  Cd  Cd3       1.0  0.88300  0.86900  0.55800  1.0000
  Cd  Cd4       1.0  0.61700  0.36900  0.94200  1.0000
  N   N1        1.0  0.21600  0.04640  0.17600  1.0000
  N   N2        1.0  0.52900  0.28500  0.21700  1.0000
  N   N3        1.0  0.97100  0.78500  0.28300  1.0000
  N   N4        1.0  0.28400  0.54600  0.32400  1.0000
  N   N5        1.0  0.71600  0.45400  0.67600  1.0000
  N   N6        1.0  0.02910  0.21500  0.71700  1.0000
  N   N7        1.0  0.47100  0.71500  0.78300  1.0000
  N   N8        1.0  0.78400  0.95400  0.82400  1.0000
  S   S1        1.0  0.00187  0.29700  0.14400  1.0000
  S   S2        1.0  0.75300  0.03620  0.24800  1.0000
  S   S3        1.0  0.74700  0.53600  0.25200  1.0000
  S   S4        1.0  0.49800  0.79700  0.35600  1.0000
  S   S5        1.0  0.50200  0.20300  0.64400  1.0000
  S   S6        1.0  0.25300  0.46400  0.74800  1.0000
  S   S7        1.0  0.24700  0.96400  0.75200  1.0000
  S   S8        1.0  0.99800  0.70300  0.85600  1.0000
