data_image0
_chemical_formula_structural       B6Ni8
_chemical_formula_sum              "B6 Ni8"
_cell_length_a       4.02769
_cell_length_b       4.02769
_cell_length_c       7.8303
_cell_angle_alpha    99.8377
_cell_angle_beta     80.1623
_cell_angle_gamma    105.163

_space_group_name_H-M_alt    "P 1"
_space_group_IT_number       1

loop_
  _space_group_symop_operation_xyz
  'x, y, z'

loop_
  _atom_site_type_symbol
  _atom_site_label
  _atom_site_symmetry_multiplicity
  _atom_site_fract_x
  _atom_site_fract_y
  _atom_site_fract_z
  _atom_site_occupancy
  B   B1        1.0  0.31200  0.84500  0.05910  1.0000
  B   B2        1.0  0.07350  0.07350  0.25000  1.0000
  B   B3        1.0  0.84500  0.31200  0.44100  1.0000
  B   B4        1.0  0.15500  0.68800  0.55900  1.0000
  B   B5        1.0  0.92600  0.92600  0.75000  1.0000
  B   B6        1.0  0.68800  0.15500  0.94100  1.0000
  Ni  Ni1       1.0  0.79700  0.70800  0.01200  1.0000
  Ni  Ni2       1.0  0.63200  0.22200  0.21200  1.0000
  Ni  Ni3       1.0  0.22200  0.63200  0.28800  1.0000
  Ni  Ni4       1.0  0.70800  0.79700  0.48800  1.0000
  Ni  Ni5       1.0  0.29200  0.20300  0.51200  1.0000
  Ni  Ni6       1.0  0.77800  0.36800  0.71200  1.0000
  Ni  Ni7       1.0  0.36800  0.77800  0.78800  1.0000
  Ni  Ni8       1.0  0.20300  0.29200  0.98800  1.0000
