data_image0
_chemical_formula_structural       O20U4V4
_chemical_formula_sum              "O20 U4 V4"
_cell_length_a       4.15632
_cell_length_b       12.4436
_cell_length_c       7.2446
_cell_angle_alpha    90
_cell_angle_beta     90
_cell_angle_gamma    90

_space_group_name_H-M_alt    "P 1"
_space_group_IT_number       1

loop_
  _space_group_symop_operation_xyz
  'x, y, z'

loop_
  _atom_site_type_symbol
  _atom_site_label
  _atom_site_symmetry_multiplicity
  _atom_site_fract_x
  _atom_site_fract_y
  _atom_site_fract_z
  _atom_site_occupancy
  O   O1        1.0  0.50200  0.25000  0.00000  1.0000
  O   O2        1.0  0.49800  0.75000  0.00000  1.0000
  O   O3        1.0  0.01560  0.39600  0.04130  1.0000
  O   O4        1.0  0.98400  0.89600  0.04130  1.0000
  O   O5        1.0  0.48400  0.02510  0.25000  1.0000
  O   O6        1.0  0.02050  0.21700  0.25000  1.0000
  O   O7        1.0  0.51600  0.52500  0.25000  1.0000
  O   O8        1.0  0.97900  0.71700  0.25000  1.0000
  O   O9        1.0  0.01560  0.39600  0.45900  1.0000
  O   O10       1.0  0.98400  0.89600  0.45900  1.0000
  O   O11       1.0  0.50200  0.25000  0.50000  1.0000
  O   O12       1.0  0.49800  0.75000  0.50000  1.0000
  O   O13       1.0  0.01560  0.10400  0.54100  1.0000
  O   O14       1.0  0.98400  0.60400  0.54100  1.0000
  O   O15       1.0  0.02050  0.28300  0.75000  1.0000
  O   O16       1.0  0.48400  0.47500  0.75000  1.0000
  O   O17       1.0  0.97900  0.78300  0.75000  1.0000
  O   O18       1.0  0.51600  0.97500  0.75000  1.0000
  O   O19       1.0  0.01560  0.10400  0.95900  1.0000
  O   O20       1.0  0.98400  0.60400  0.95900  1.0000
  U   U1        1.0  0.98300  0.02730  0.25000  1.0000
  U   U2        1.0  0.01730  0.52700  0.25000  1.0000
  U   U3        1.0  0.98300  0.47300  0.75000  1.0000
  U   U4        1.0  0.01730  0.97300  0.75000  1.0000
  V   V1        1.0  0.11200  0.25000  0.00000  1.0000
  V   V2        1.0  0.88800  0.75000  0.00000  1.0000
  V   V3        1.0  0.11200  0.25000  0.50000  1.0000
  V   V4        1.0  0.88800  0.75000  0.50000  1.0000
