data_image0
_chemical_formula_structural       F20K2Yb6
_chemical_formula_sum              "F20 K2 Yb6"
_cell_length_a       7.89791
_cell_length_b       7.89791
_cell_length_c       7.89791
_cell_angle_alpha    120
_cell_angle_beta     90
_cell_angle_gamma    120

_space_group_name_H-M_alt    "P 1"
_space_group_IT_number       1

loop_
  _space_group_symop_operation_xyz
  'x, y, z'

loop_
  _atom_site_type_symbol
  _atom_site_label
  _atom_site_symmetry_multiplicity
  _atom_site_fract_x
  _atom_site_fract_y
  _atom_site_fract_z
  _atom_site_occupancy
  F   F1        1.0  0.88400  0.76900  0.11600  1.0000
  F   F2        1.0  0.34700  0.23100  0.11600  1.0000
  F   F3        1.0  0.88400  0.23100  0.11600  1.0000
  F   F4        1.0  0.50000  0.00000  0.15600  1.0000
  F   F5        1.0  0.15600  0.65600  0.15600  1.0000
  F   F6        1.0  0.50000  0.65600  0.15600  1.0000
  F   F7        1.0  0.11600  0.23100  0.34700  1.0000
  F   F8        1.0  0.84400  0.00000  0.50000  1.0000
  F   F9        1.0  0.84400  0.34400  0.50000  1.0000
  F   F10       1.0  0.15600  0.00000  0.50000  1.0000
  F   F11       1.0  0.50000  0.34400  0.50000  1.0000
  F   F12       1.0  0.15600  0.65600  0.50000  1.0000
  F   F13       1.0  0.50000  0.65600  0.50000  1.0000
  F   F14       1.0  0.88400  0.76900  0.65300  1.0000
  F   F15       1.0  0.50000  0.00000  0.84400  1.0000
  F   F16       1.0  0.50000  0.34400  0.84400  1.0000
  F   F17       1.0  0.84400  0.34400  0.84400  1.0000
  F   F18       1.0  0.11600  0.76900  0.88400  1.0000
  F   F19       1.0  0.65300  0.76900  0.88400  1.0000
  F   F20       1.0  0.11600  0.23100  0.88400  1.0000
  K   K1        1.0  0.75000  0.50000  0.25000  1.0000
  K   K2        1.0  0.25000  0.50000  0.75000  1.0000
  Yb  Yb1       1.0  0.23000  0.00000  0.23000  1.0000
  Yb  Yb2       1.0  0.23000  0.45900  0.23000  1.0000
  Yb  Yb3       1.0  0.77000  0.00000  0.23000  1.0000
  Yb  Yb4       1.0  0.23000  0.00000  0.77000  1.0000
  Yb  Yb5       1.0  0.77000  0.54100  0.77000  1.0000
  Yb  Yb6       1.0  0.77000  0.00000  0.77000  1.0000
