data_image0
_chemical_formula_structural       O12P8S8
_chemical_formula_sum              "O12 P8 S8"
_cell_length_a       8.93577
_cell_length_b       8.93577
_cell_length_c       9.17958
_cell_angle_alpha    119.125
_cell_angle_beta     119.125
_cell_angle_gamma    90

_space_group_name_H-M_alt    "P 1"
_space_group_IT_number       1

loop_
  _space_group_symop_operation_xyz
  'x, y, z'

loop_
  _atom_site_type_symbol
  _atom_site_label
  _atom_site_symmetry_multiplicity
  _atom_site_fract_x
  _atom_site_fract_y
  _atom_site_fract_z
  _atom_site_occupancy
  O   O1        1.0  0.82500  0.09600  0.00185  1.0000
  O   O2        1.0  0.32500  0.40600  0.00185  1.0000
  O   O3        1.0  0.67600  0.59600  0.00185  1.0000
  O   O4        1.0  0.17600  0.90600  0.00185  1.0000
  O   O5        1.0  0.13400  0.13400  0.26900  1.0000
  O   O6        1.0  0.63400  0.63400  0.26900  1.0000
  O   O7        1.0  0.36600  0.36600  0.73100  1.0000
  O   O8        1.0  0.86600  0.86600  0.73100  1.0000
  O   O9        1.0  0.09410  0.17500  0.99800  1.0000
  O   O10       1.0  0.59400  0.32400  0.99800  1.0000
  O   O11       1.0  0.40400  0.67500  0.99800  1.0000
  O   O12       1.0  0.90400  0.82400  0.99800  1.0000
  P   P1        1.0  0.03160  0.23100  0.15300  1.0000
  P   P2        1.0  0.53200  0.42200  0.15300  1.0000
  P   P3        1.0  0.62100  0.73100  0.15300  1.0000
  P   P4        1.0  0.12100  0.92200  0.15300  1.0000
  P   P5        1.0  0.57800  0.37900  0.84700  1.0000
  P   P6        1.0  0.26900  0.46800  0.84700  1.0000
  P   P7        1.0  0.76900  0.87900  0.84700  1.0000
  P   P8        1.0  0.07850  0.96800  0.84700  1.0000
  S   S1        1.0  0.56500  0.33700  0.31400  1.0000
  S   S2        1.0  0.06530  0.47700  0.31400  1.0000
  S   S3        1.0  0.24900  0.83700  0.31400  1.0000
  S   S4        1.0  0.74900  0.97700  0.31400  1.0000
  S   S5        1.0  0.66300  0.25100  0.68600  1.0000
  S   S6        1.0  0.02290  0.43500  0.68600  1.0000
  S   S7        1.0  0.52300  0.75100  0.68600  1.0000
  S   S8        1.0  0.16300  0.93500  0.68600  1.0000
