data_image0
_chemical_formula_structural       Br4C6CdHg4N6S6
_chemical_formula_sum              "Br4 C6 Cd1 Hg4 N6 S6"
_cell_length_a       6.37396
_cell_length_b       9.62243
_cell_length_c       12.1896
_cell_angle_alpha    94.9677
_cell_angle_beta     74.8438
_cell_angle_gamma    109.342

_space_group_name_H-M_alt    "P 1"
_space_group_IT_number       1

loop_
  _space_group_symop_operation_xyz
  'x, y, z'

loop_
  _atom_site_type_symbol
  _atom_site_label
  _atom_site_symmetry_multiplicity
  _atom_site_fract_x
  _atom_site_fract_y
  _atom_site_fract_z
  _atom_site_occupancy
  Br  Br1       1.0  0.92500  0.30800  0.40200  1.0000
  Br  Br2       1.0  0.61800  0.69200  0.40200  1.0000
  Br  Br3       1.0  0.32700  0.30800  0.59800  1.0000
  Br  Br4       1.0  0.01930  0.69200  0.59800  1.0000
  C   C1        1.0  0.33000  0.26000  0.14800  1.0000
  C   C2        1.0  0.07040  0.74000  0.14800  1.0000
  C   C3        1.0  0.52000  0.00000  0.22600  1.0000
  C   C4        1.0  0.74600  0.00000  0.77400  1.0000
  C   C5        1.0  0.47800  0.26000  0.85200  1.0000
  C   C6        1.0  0.21800  0.74000  0.85200  1.0000
  Cd  Cd1       1.0  0.97700  0.00000  0.00000  1.0000
  Hg  Hg1       1.0  0.44700  0.30500  0.38100  1.0000
  Hg  Hg2       1.0  0.14200  0.69500  0.38100  1.0000
  Hg  Hg3       1.0  0.82900  0.30500  0.61900  1.0000
  Hg  Hg4       1.0  0.52400  0.69500  0.61900  1.0000
  N   N1        1.0  0.17000  0.17700  0.12100  1.0000
  N   N2        1.0  0.99300  0.82300  0.12100  1.0000
  N   N3        1.0  0.64600  0.00000  0.13600  1.0000
  N   N4        1.0  0.78200  0.00000  0.86400  1.0000
  N   N5        1.0  0.29100  0.17700  0.87900  1.0000
  N   N6        1.0  0.11400  0.82300  0.87900  1.0000
  S   S1        1.0  0.55800  0.38100  0.18200  1.0000
  S   S2        1.0  0.17700  0.61900  0.18200  1.0000
  S   S3        1.0  0.34200  0.00000  0.35100  1.0000
  S   S4        1.0  0.69300  0.00000  0.64900  1.0000
  S   S5        1.0  0.74000  0.38100  0.81800  1.0000
  S   S6        1.0  0.35900  0.61900  0.81800  1.0000
