data_image0
_chemical_formula_structural       Mn12O4Ti12
_chemical_formula_sum              "Mn12 O4 Ti12"
_cell_length_a       8.34908
_cell_length_b       8.34908
_cell_length_c       8.34908
_cell_angle_alpha    120
_cell_angle_beta     90
_cell_angle_gamma    120

_space_group_name_H-M_alt    "P 1"
_space_group_IT_number       1

loop_
  _space_group_symop_operation_xyz
  'x, y, z'

loop_
  _atom_site_type_symbol
  _atom_site_label
  _atom_site_symmetry_multiplicity
  _atom_site_fract_x
  _atom_site_fract_y
  _atom_site_fract_z
  _atom_site_occupancy
  Mn  Mn1       1.0  0.37500  0.75000  0.12500  1.0000
  Mn  Mn2       1.0  0.58900  0.17800  0.41100  1.0000
  Mn  Mn3       1.0  0.23300  0.82200  0.41100  1.0000
  Mn  Mn4       1.0  0.58900  0.82200  0.41100  1.0000
  Mn  Mn5       1.0  0.16100  0.32200  0.48300  1.0000
  Mn  Mn6       1.0  0.87500  0.25000  0.62500  1.0000
  Mn  Mn7       1.0  0.37500  0.25000  0.62500  1.0000
  Mn  Mn8       1.0  0.37500  0.75000  0.62500  1.0000
  Mn  Mn9       1.0  0.58900  0.17800  0.76700  1.0000
  Mn  Mn10      1.0  0.16100  0.32200  0.83900  1.0000
  Mn  Mn11      1.0  0.16100  0.67800  0.83900  1.0000
  Mn  Mn12      1.0  0.51700  0.67800  0.83900  1.0000
  O   O1        1.0  0.37500  0.25000  0.12500  1.0000
  O   O2        1.0  0.87500  0.25000  0.12500  1.0000
  O   O3        1.0  0.87500  0.75000  0.12500  1.0000
  O   O4        1.0  0.87500  0.75000  0.62500  1.0000
  Ti  Ti1       1.0  0.56700  0.13500  0.06730  1.0000
  Ti  Ti2       1.0  0.56700  0.50000  0.06730  1.0000
  Ti  Ti3       1.0  0.93300  0.50000  0.06730  1.0000
  Ti  Ti4       1.0  0.18300  0.00000  0.18300  1.0000
  Ti  Ti5       1.0  0.81700  0.00000  0.18300  1.0000
  Ti  Ti6       1.0  0.18300  0.36500  0.18300  1.0000
  Ti  Ti7       1.0  0.56700  0.50000  0.43300  1.0000
  Ti  Ti8       1.0  0.93300  0.50000  0.43300  1.0000
  Ti  Ti9       1.0  0.93300  0.86500  0.43300  1.0000
  Ti  Ti10      1.0  0.18300  0.00000  0.81700  1.0000
  Ti  Ti11      1.0  0.81700  0.00000  0.81700  1.0000
  Ti  Ti12      1.0  0.81700  0.63500  0.81700  1.0000
