data_image0
_chemical_formula_structural       K8Mn4O16
_chemical_formula_sum              "K8 Mn4 O16"
_cell_length_a       7.58197
_cell_length_b       5.79555
_cell_length_c       10.246
_cell_angle_alpha    90
_cell_angle_beta     90
_cell_angle_gamma    90

_space_group_name_H-M_alt    "P 1"
_space_group_IT_number       1

loop_
  _space_group_symop_operation_xyz
  'x, y, z'

loop_
  _atom_site_type_symbol
  _atom_site_label
  _atom_site_symmetry_multiplicity
  _atom_site_fract_x
  _atom_site_fract_y
  _atom_site_fract_z
  _atom_site_occupancy
  K   K1        1.0  0.16000  0.25000  0.08710  1.0000
  K   K2        1.0  0.51500  0.75000  0.19500  1.0000
  K   K3        1.0  0.01450  0.75000  0.30500  1.0000
  K   K4        1.0  0.66000  0.25000  0.41300  1.0000
  K   K5        1.0  0.34000  0.75000  0.58700  1.0000
  K   K6        1.0  0.98500  0.25000  0.69500  1.0000
  K   K7        1.0  0.48500  0.25000  0.80500  1.0000
  K   K8        1.0  0.84000  0.75000  0.91300  1.0000
  Mn  Mn1       1.0  0.73000  0.25000  0.07950  1.0000
  Mn  Mn2       1.0  0.23000  0.25000  0.42000  1.0000
  Mn  Mn3       1.0  0.77000  0.75000  0.58000  1.0000
  Mn  Mn4       1.0  0.27000  0.75000  0.92000  1.0000
  O   O1        1.0  0.20000  0.75000  0.07450  1.0000
  O   O2        1.0  0.51100  0.25000  0.08140  1.0000
  O   O3        1.0  0.80900  0.01830  0.15400  1.0000
  O   O4        1.0  0.80900  0.48200  0.15400  1.0000
  O   O5        1.0  0.30900  0.01830  0.34600  1.0000
  O   O6        1.0  0.30900  0.48200  0.34600  1.0000
  O   O7        1.0  0.01140  0.25000  0.41900  1.0000
  O   O8        1.0  0.70000  0.75000  0.42500  1.0000
  O   O9        1.0  0.30000  0.25000  0.57500  1.0000
  O   O10       1.0  0.98900  0.75000  0.58100  1.0000
  O   O11       1.0  0.69100  0.51800  0.65400  1.0000
  O   O12       1.0  0.69100  0.98200  0.65400  1.0000
  O   O13       1.0  0.19100  0.51800  0.84600  1.0000
  O   O14       1.0  0.19100  0.98200  0.84600  1.0000
  O   O15       1.0  0.48900  0.75000  0.91900  1.0000
  O   O16       1.0  0.80000  0.25000  0.92500  1.0000
