data_image0
_chemical_formula_structural       Al4As12Ca12
_chemical_formula_sum              "Al4 As12 Ca12"
_cell_length_a       12.2711
_cell_length_b       4.21632
_cell_length_c       13.4633
_cell_angle_alpha    90
_cell_angle_beta     90
_cell_angle_gamma    90

_space_group_name_H-M_alt    "P 1"
_space_group_IT_number       1

loop_
  _space_group_symop_operation_xyz
  'x, y, z'

loop_
  _atom_site_type_symbol
  _atom_site_label
  _atom_site_symmetry_multiplicity
  _atom_site_fract_x
  _atom_site_fract_y
  _atom_site_fract_z
  _atom_site_occupancy
  Al  Al1       1.0  0.43900  0.75000  0.20200  1.0000
  Al  Al2       1.0  0.93900  0.75000  0.29800  1.0000
  Al  Al3       1.0  0.06090  0.25000  0.70200  1.0000
  Al  Al4       1.0  0.56100  0.25000  0.79800  1.0000
  As  As1       1.0  0.89500  0.75000  0.11400  1.0000
  As  As2       1.0  0.25200  0.75000  0.12400  1.0000
  As  As3       1.0  0.54100  0.25000  0.14900  1.0000
  As  As4       1.0  0.04140  0.25000  0.35100  1.0000
  As  As5       1.0  0.75200  0.75000  0.37600  1.0000
  As  As6       1.0  0.39500  0.75000  0.38600  1.0000
  As  As7       1.0  0.60500  0.25000  0.61400  1.0000
  As  As8       1.0  0.24800  0.25000  0.62400  1.0000
  As  As9       1.0  0.95900  0.75000  0.64900  1.0000
  As  As10      1.0  0.45900  0.75000  0.85100  1.0000
  As  As11      1.0  0.74800  0.25000  0.87600  1.0000
  As  As12      1.0  0.10500  0.25000  0.88600  1.0000
  Ca  Ca1       1.0  0.64800  0.75000  0.00015  1.0000
  Ca  Ca2       1.0  0.06560  0.25000  0.10700  1.0000
  Ca  Ca3       1.0  0.77200  0.25000  0.21400  1.0000
  Ca  Ca4       1.0  0.27200  0.25000  0.28600  1.0000
  Ca  Ca5       1.0  0.56600  0.25000  0.39300  1.0000
  Ca  Ca6       1.0  0.14800  0.75000  0.50000  1.0000
  Ca  Ca7       1.0  0.85200  0.25000  0.50000  1.0000
  Ca  Ca8       1.0  0.43400  0.75000  0.60700  1.0000
  Ca  Ca9       1.0  0.72800  0.75000  0.71400  1.0000
  Ca  Ca10      1.0  0.22800  0.75000  0.78600  1.0000
  Ca  Ca11      1.0  0.93400  0.75000  0.89300  1.0000
  Ca  Ca12      1.0  0.35200  0.25000  0.00000  1.0000
