data_image0
_chemical_formula_structural       B2Hf18Mo8
_chemical_formula_sum              "B2 Hf18 Mo8"
_cell_length_a       8.55506
_cell_length_b       8.55518
_cell_length_c       8.51576
_cell_angle_alpha    90
_cell_angle_beta     90
_cell_angle_gamma    120

_space_group_name_H-M_alt    "P 1"
_space_group_IT_number       1

loop_
  _space_group_symop_operation_xyz
  'x, y, z'

loop_
  _atom_site_type_symbol
  _atom_site_label
  _atom_site_symmetry_multiplicity
  _atom_site_fract_x
  _atom_site_fract_y
  _atom_site_fract_z
  _atom_site_occupancy
  B   B1        1.0  0.33300  0.66700  0.25000  1.0000
  B   B2        1.0  0.66700  0.33300  0.75000  1.0000
  Hf  Hf1       1.0  0.20400  0.40700  0.05550  1.0000
  Hf  Hf2       1.0  0.20400  0.79600  0.05550  1.0000
  Hf  Hf3       1.0  0.59300  0.79600  0.05550  1.0000
  Hf  Hf4       1.0  0.54000  0.08050  0.25000  1.0000
  Hf  Hf5       1.0  0.54000  0.46000  0.25000  1.0000
  Hf  Hf6       1.0  0.92000  0.46000  0.25000  1.0000
  Hf  Hf7       1.0  0.20400  0.79600  0.44400  1.0000
  Hf  Hf8       1.0  0.59300  0.79600  0.44400  1.0000
  Hf  Hf9       1.0  0.20400  0.40700  0.44400  1.0000
  Hf  Hf10      1.0  0.79600  0.59300  0.55600  1.0000
  Hf  Hf11      1.0  0.40700  0.20400  0.55600  1.0000
  Hf  Hf12      1.0  0.79600  0.20400  0.55600  1.0000
  Hf  Hf13      1.0  0.08050  0.54000  0.75000  1.0000
  Hf  Hf14      1.0  0.46000  0.54000  0.75000  1.0000
  Hf  Hf15      1.0  0.46000  0.92000  0.75000  1.0000
  Hf  Hf16      1.0  0.40700  0.20400  0.94400  1.0000
  Hf  Hf17      1.0  0.79600  0.20400  0.94400  1.0000
  Hf  Hf18      1.0  0.79600  0.59300  0.94400  1.0000
  Mo  Mo1       1.0  0.00000  0.00000  0.00000  1.0000
  Mo  Mo2       1.0  0.22300  0.11100  0.25000  1.0000
  Mo  Mo3       1.0  0.88900  0.11100  0.25000  1.0000
  Mo  Mo4       1.0  0.88900  0.77700  0.25000  1.0000
  Mo  Mo5       1.0  0.00000  0.00000  0.50000  1.0000
  Mo  Mo6       1.0  0.11100  0.22300  0.75000  1.0000
  Mo  Mo7       1.0  0.11100  0.88900  0.75000  1.0000
  Mo  Mo8       1.0  0.77700  0.88900  0.75000  1.0000
