data_image0
_chemical_formula_structural       C2Na6O14P2Sr2
_chemical_formula_sum              "C2 Na6 O14 P2 Sr2"
_cell_length_a       9.04078
_cell_length_b       5.25942
_cell_length_c       6.79366
_cell_angle_alpha    90.0002
_cell_angle_beta     90.002
_cell_angle_gamma    88.9996

_space_group_name_H-M_alt    "P 1"
_space_group_IT_number       1

loop_
  _space_group_symop_operation_xyz
  'x, y, z'

loop_
  _atom_site_type_symbol
  _atom_site_label
  _atom_site_symmetry_multiplicity
  _atom_site_fract_x
  _atom_site_fract_y
  _atom_site_fract_z
  _atom_site_occupancy
  C   C1        1.0  0.84600  0.52700  0.25100  1.0000
  C   C2        1.0  0.15400  0.47300  0.75100  1.0000
  Na  Na1       1.0  0.52600  0.47200  0.00531  1.0000
  Na  Na2       1.0  0.16400  0.51500  0.18400  1.0000
  Na  Na3       1.0  0.03240  0.98900  0.44900  1.0000
  Na  Na4       1.0  0.47400  0.52800  0.50500  1.0000
  Na  Na5       1.0  0.83600  0.48500  0.68400  1.0000
  Na  Na6       1.0  0.96800  0.01130  0.94900  1.0000
  O   O1        1.0  0.18400  0.04140  0.10600  1.0000
  O   O2        1.0  0.44200  0.85300  0.11700  1.0000
  O   O3        1.0  0.91200  0.73600  0.20600  1.0000
  O   O4        1.0  0.92000  0.31600  0.26300  1.0000
  O   O5        1.0  0.38900  0.27700  0.26900  1.0000
  O   O6        1.0  0.70300  0.53200  0.28800  1.0000
  O   O7        1.0  0.28400  0.86300  0.42400  1.0000
  O   O8        1.0  0.81600  0.95900  0.60600  1.0000
  O   O9        1.0  0.55800  0.14700  0.61700  1.0000
  O   O10       1.0  0.08770  0.26500  0.70600  1.0000
  O   O11       1.0  0.07990  0.68400  0.76300  1.0000
  O   O12       1.0  0.61100  0.72300  0.76900  1.0000
  O   O13       1.0  0.29600  0.46800  0.78800  1.0000
  O   O14       1.0  0.71600  0.13700  0.92400  1.0000
  P   P1        1.0  0.32500  0.01090  0.23400  1.0000
  P   P2        1.0  0.67500  0.98900  0.73400  1.0000
  Sr  Sr1       1.0  0.67800  0.03160  0.27600  1.0000
  Sr  Sr2       1.0  0.32200  0.96800  0.77600  1.0000
