data_image0
_chemical_formula_structural       Ge4Na4O16Sm4
_chemical_formula_sum              "Ge4 Na4 O16 Sm4"
_cell_length_a       5.307
_cell_length_b       11.6127
_cell_length_c       6.53614
_cell_angle_alpha    89.9994
_cell_angle_beta     90
_cell_angle_gamma    90

_space_group_name_H-M_alt    "P 1"
_space_group_IT_number       1

loop_
  _space_group_symop_operation_xyz
  'x, y, z'

loop_
  _atom_site_type_symbol
  _atom_site_label
  _atom_site_symmetry_multiplicity
  _atom_site_fract_x
  _atom_site_fract_y
  _atom_site_fract_z
  _atom_site_occupancy
  Ge  Ge1       1.0  0.56400  0.40600  0.00029  1.0000
  Ge  Ge2       1.0  0.93600  0.90600  0.00029  1.0000
  Ge  Ge3       1.0  0.43600  0.59400  0.50000  1.0000
  Ge  Ge4       1.0  0.06390  0.09400  0.50000  1.0000
  Na  Na1       1.0  0.00016  0.50000  0.25000  1.0000
  Na  Na2       1.0  0.50000  0.00037  0.25000  1.0000
  Na  Na3       1.0  0.00000  0.50000  0.75000  1.0000
  Na  Na4       1.0  0.50000  1.00000  0.75000  1.0000
  O   O1        1.0  0.81100  0.04590  0.00000  1.0000
  O   O2        1.0  0.68900  0.54600  0.00000  1.0000
  O   O3        1.0  0.23800  0.39300  0.00011  1.0000
  O   O4        1.0  0.26200  0.89300  0.00011  1.0000
  O   O5        1.0  0.78400  0.83100  0.20800  1.0000
  O   O6        1.0  0.71600  0.33100  0.20800  1.0000
  O   O7        1.0  0.21700  0.16900  0.29300  1.0000
  O   O8        1.0  0.28300  0.66900  0.29300  1.0000
  O   O9        1.0  0.18900  0.95400  0.50000  1.0000
  O   O10       1.0  0.31100  0.45400  0.50000  1.0000
  O   O11       1.0  0.76200  0.60700  0.50000  1.0000
  O   O12       1.0  0.73800  0.10700  0.50000  1.0000
  O   O13       1.0  0.28400  0.66900  0.70800  1.0000
  O   O14       1.0  0.21600  0.16900  0.70800  1.0000
  O   O15       1.0  0.78300  0.83100  0.79300  1.0000
  O   O16       1.0  0.71700  0.33100  0.79300  1.0000
  Sm  Sm1       1.0  0.00219  0.22100  0.00038  1.0000
  Sm  Sm2       1.0  0.49800  0.72100  0.00039  1.0000
  Sm  Sm3       1.0  0.99800  0.77900  0.50000  1.0000
  Sm  Sm4       1.0  0.50200  0.27900  0.50000  1.0000
