data_image0
_chemical_formula_structural       Cl16Co4Cs8
_chemical_formula_sum              "Cl16 Co4 Cs8"
_cell_length_a       9.80422
_cell_length_b       7.43415
_cell_length_c       13.012
_cell_angle_alpha    90
_cell_angle_beta     90
_cell_angle_gamma    90

_space_group_name_H-M_alt    "P 1"
_space_group_IT_number       1

loop_
  _space_group_symop_operation_xyz
  'x, y, z'

loop_
  _atom_site_type_symbol
  _atom_site_label
  _atom_site_symmetry_multiplicity
  _atom_site_fract_x
  _atom_site_fract_y
  _atom_site_fract_z
  _atom_site_occupancy
  Cl  Cl1       1.0  0.17700  0.75000  0.08010  1.0000
  Cl  Cl2       1.0  0.50400  0.25000  0.09550  1.0000
  Cl  Cl3       1.0  0.81700  0.00216  0.15700  1.0000
  Cl  Cl4       1.0  0.81700  0.49800  0.15700  1.0000
  Cl  Cl5       1.0  0.31700  0.00216  0.34300  1.0000
  Cl  Cl6       1.0  0.31700  0.49800  0.34300  1.0000
  Cl  Cl7       1.0  0.00408  0.25000  0.40500  1.0000
  Cl  Cl8       1.0  0.67700  0.75000  0.42000  1.0000
  Cl  Cl9       1.0  0.32300  0.25000  0.58000  1.0000
  Cl  Cl10      1.0  0.99600  0.75000  0.59500  1.0000
  Cl  Cl11      1.0  0.68300  0.50200  0.65700  1.0000
  Cl  Cl12      1.0  0.68300  0.99800  0.65700  1.0000
  Cl  Cl13      1.0  0.18300  0.50200  0.84300  1.0000
  Cl  Cl14      1.0  0.18300  0.99800  0.84300  1.0000
  Cl  Cl15      1.0  0.49600  0.75000  0.90500  1.0000
  Cl  Cl16      1.0  0.82300  0.25000  0.92000  1.0000
  Co  Co1       1.0  0.73300  0.25000  0.08010  1.0000
  Co  Co2       1.0  0.23300  0.25000  0.42000  1.0000
  Co  Co3       1.0  0.76700  0.75000  0.58000  1.0000
  Co  Co4       1.0  0.26700  0.75000  0.92000  1.0000
  Cs  Cs1       1.0  0.13800  0.25000  0.09560  1.0000
  Cs  Cs2       1.0  0.51300  0.75000  0.17300  1.0000
  Cs  Cs3       1.0  0.01310  0.75000  0.32700  1.0000
  Cs  Cs4       1.0  0.63800  0.25000  0.40400  1.0000
  Cs  Cs5       1.0  0.36200  0.75000  0.59600  1.0000
  Cs  Cs6       1.0  0.98700  0.25000  0.67300  1.0000
  Cs  Cs7       1.0  0.48700  0.25000  0.82700  1.0000
  Cs  Cs8       1.0  0.86200  0.75000  0.90400  1.0000
