data_image0
_chemical_formula_structural       Pb4S16Sc8
_chemical_formula_sum              "Pb4 S16 Sc8"
_cell_length_a       11.7422
_cell_length_b       13.7414
_cell_length_c       3.77333
_cell_angle_alpha    90
_cell_angle_beta     90
_cell_angle_gamma    90

_space_group_name_H-M_alt    "P 1"
_space_group_IT_number       1

loop_
  _space_group_symop_operation_xyz
  'x, y, z'

loop_
  _atom_site_type_symbol
  _atom_site_label
  _atom_site_symmetry_multiplicity
  _atom_site_fract_x
  _atom_site_fract_y
  _atom_site_fract_z
  _atom_site_occupancy
  Pb  Pb1       1.0  0.76000  0.67100  0.25000  1.0000
  Pb  Pb2       1.0  0.26000  0.82900  0.25000  1.0000
  Pb  Pb3       1.0  0.74000  0.17100  0.75000  1.0000
  Pb  Pb4       1.0  0.24000  0.32900  0.75000  1.0000
  S   S1        1.0  0.62200  0.02840  0.25000  1.0000
  S   S2        1.0  0.91300  0.07310  0.25000  1.0000
  S   S3        1.0  0.20400  0.15800  0.25000  1.0000
  S   S4        1.0  0.70400  0.34200  0.25000  1.0000
  S   S5        1.0  0.41300  0.42700  0.25000  1.0000
  S   S6        1.0  0.12200  0.47200  0.25000  1.0000
  S   S7        1.0  0.03080  0.71600  0.25000  1.0000
  S   S8        1.0  0.53100  0.78400  0.25000  1.0000
  S   S9        1.0  0.46900  0.21600  0.75000  1.0000
  S   S10       1.0  0.96900  0.28400  0.75000  1.0000
  S   S11       1.0  0.87800  0.52800  0.75000  1.0000
  S   S12       1.0  0.58700  0.57300  0.75000  1.0000
  S   S13       1.0  0.29600  0.65800  0.75000  1.0000
  S   S14       1.0  0.79600  0.84200  0.75000  1.0000
  S   S15       1.0  0.08720  0.92700  0.75000  1.0000
  S   S16       1.0  0.37800  0.97200  0.75000  1.0000
  Sc  Sc1       1.0  0.41800  0.09670  0.25000  1.0000
  Sc  Sc2       1.0  0.91800  0.40300  0.25000  1.0000
  Sc  Sc3       1.0  0.44300  0.61100  0.25000  1.0000
  Sc  Sc4       1.0  0.94300  0.88900  0.25000  1.0000
  Sc  Sc5       1.0  0.05720  0.11100  0.75000  1.0000
  Sc  Sc6       1.0  0.55700  0.38900  0.75000  1.0000
  Sc  Sc7       1.0  0.08200  0.59700  0.75000  1.0000
  Sc  Sc8       1.0  0.58200  0.90300  0.75000  1.0000
