data_image0
_chemical_formula_structural       Br16Cs8Zn4
_chemical_formula_sum              "Br16 Cs8 Zn4"
_cell_length_a       10.4049
_cell_length_b       7.76112
_cell_length_c       13.8614
_cell_angle_alpha    90
_cell_angle_beta     90
_cell_angle_gamma    90

_space_group_name_H-M_alt    "P 1"
_space_group_IT_number       1

loop_
  _space_group_symop_operation_xyz
  'x, y, z'

loop_
  _atom_site_type_symbol
  _atom_site_label
  _atom_site_symmetry_multiplicity
  _atom_site_fract_x
  _atom_site_fract_y
  _atom_site_fract_z
  _atom_site_occupancy
  Br  Br1       1.0  0.19100  0.75000  0.09030  1.0000
  Br  Br2       1.0  0.50300  0.25000  0.09830  1.0000
  Br  Br3       1.0  0.82700  0.50300  0.15400  1.0000
  Br  Br4       1.0  0.82700  0.99700  0.15400  1.0000
  Br  Br5       1.0  0.32700  0.50300  0.34600  1.0000
  Br  Br6       1.0  0.32700  0.99700  0.34600  1.0000
  Br  Br7       1.0  0.00263  0.25000  0.40200  1.0000
  Br  Br8       1.0  0.69100  0.75000  0.41000  1.0000
  Br  Br9       1.0  0.30900  0.25000  0.59000  1.0000
  Br  Br10      1.0  0.99700  0.75000  0.59800  1.0000
  Br  Br11      1.0  0.67300  0.00312  0.65400  1.0000
  Br  Br12      1.0  0.67300  0.49700  0.65400  1.0000
  Br  Br13      1.0  0.17300  0.00312  0.84600  1.0000
  Br  Br14      1.0  0.17300  0.49700  0.84600  1.0000
  Br  Br15      1.0  0.49700  0.75000  0.90200  1.0000
  Br  Br16      1.0  0.80900  0.25000  0.91000  1.0000
  Cs  Cs1       1.0  0.13700  0.25000  0.10100  1.0000
  Cs  Cs2       1.0  0.52200  0.75000  0.16900  1.0000
  Cs  Cs3       1.0  0.02250  0.75000  0.33100  1.0000
  Cs  Cs4       1.0  0.63700  0.25000  0.39900  1.0000
  Cs  Cs5       1.0  0.36300  0.75000  0.60100  1.0000
  Cs  Cs6       1.0  0.97800  0.25000  0.66900  1.0000
  Cs  Cs7       1.0  0.47800  0.25000  0.83100  1.0000
  Cs  Cs8       1.0  0.86300  0.75000  0.89900  1.0000
  Zn  Zn1       1.0  0.73500  0.25000  0.07600  1.0000
  Zn  Zn2       1.0  0.23500  0.25000  0.42400  1.0000
  Zn  Zn3       1.0  0.76500  0.75000  0.57600  1.0000
  Zn  Zn4       1.0  0.26500  0.75000  0.92400  1.0000
