data_image0
_chemical_formula_structural       F20O4Os4
_chemical_formula_sum              "F20 O4 Os4"
_cell_length_a       8.69159
_cell_length_b       7.97967
_cell_length_c       4.63136
_cell_angle_alpha    90
_cell_angle_beta     90
_cell_angle_gamma    90

_space_group_name_H-M_alt    "P 1"
_space_group_IT_number       1

loop_
  _space_group_symop_operation_xyz
  'x, y, z'

loop_
  _atom_site_type_symbol
  _atom_site_label
  _atom_site_symmetry_multiplicity
  _atom_site_fract_x
  _atom_site_fract_y
  _atom_site_fract_z
  _atom_site_occupancy
  F   F1        1.0  0.75000  0.58600  0.06350  1.0000
  F   F2        1.0  0.75000  0.91400  0.06350  1.0000
  F   F3        1.0  0.73800  0.25000  0.09180  1.0000
  F   F4        1.0  0.50300  0.08460  0.23900  1.0000
  F   F5        1.0  0.50300  0.41500  0.23900  1.0000
  F   F6        1.0  0.00251  0.08460  0.26100  1.0000
  F   F7        1.0  0.00251  0.41500  0.26100  1.0000
  F   F8        1.0  0.23800  0.25000  0.40800  1.0000
  F   F9        1.0  0.25000  0.58600  0.43600  1.0000
  F   F10       1.0  0.25000  0.91400  0.43600  1.0000
  F   F11       1.0  0.75000  0.08590  0.56400  1.0000
  F   F12       1.0  0.75000  0.41400  0.56400  1.0000
  F   F13       1.0  0.76200  0.75000  0.59200  1.0000
  F   F14       1.0  0.99700  0.58500  0.73900  1.0000
  F   F15       1.0  0.99700  0.91500  0.73900  1.0000
  F   F16       1.0  0.49700  0.58500  0.76100  1.0000
  F   F17       1.0  0.49700  0.91500  0.76100  1.0000
  F   F18       1.0  0.26200  0.75000  0.90800  1.0000
  F   F19       1.0  0.25000  0.08590  0.93600  1.0000
  F   F20       1.0  0.25000  0.41400  0.93600  1.0000
  O   O1        1.0  0.00000  0.75000  0.22700  1.0000
  O   O2        1.0  0.50000  0.75000  0.27300  1.0000
  O   O3        1.0  0.50000  0.25000  0.72700  1.0000
  O   O4        1.0  0.00013  0.25000  0.77300  1.0000
  Os  Os1       1.0  0.11500  0.25000  0.06720  1.0000
  Os  Os2       1.0  0.61500  0.25000  0.43300  1.0000
  Os  Os3       1.0  0.38500  0.75000  0.56700  1.0000
  Os  Os4       1.0  0.88500  0.75000  0.93300  1.0000
