data_image0
_chemical_formula_structural       Al4B4Ca4O16
_chemical_formula_sum              "Al4 B4 Ca4 O16"
_cell_length_a       5.73391
_cell_length_b       8.23223
_cell_length_c       8.61329
_cell_angle_alpha    61.453
_cell_angle_beta     90
_cell_angle_gamma    90

_space_group_name_H-M_alt    "P 1"
_space_group_IT_number       1

loop_
  _space_group_symop_operation_xyz
  'x, y, z'

loop_
  _atom_site_type_symbol
  _atom_site_label
  _atom_site_symmetry_multiplicity
  _atom_site_fract_x
  _atom_site_fract_y
  _atom_site_fract_z
  _atom_site_occupancy
  Al  Al1       1.0  0.23800  0.28100  0.41200  1.0000
  Al  Al2       1.0  0.73800  0.30700  0.41200  1.0000
  Al  Al3       1.0  0.73800  0.69300  0.58800  1.0000
  Al  Al4       1.0  0.23800  0.71900  0.58800  1.0000
  B   B1        1.0  0.97600  0.15400  0.21800  1.0000
  B   B2        1.0  0.47600  0.62700  0.21800  1.0000
  B   B3        1.0  0.47600  0.37300  0.78200  1.0000
  B   B4        1.0  0.97600  0.84600  0.78200  1.0000
  Ca  Ca1       1.0  0.50900  0.05050  0.18600  1.0000
  Ca  Ca2       1.0  0.00921  0.76400  0.18600  1.0000
  Ca  Ca3       1.0  0.00921  0.23600  0.81400  1.0000
  Ca  Ca4       1.0  0.50900  0.95000  0.81400  1.0000
  O   O1        1.0  0.94700  0.07270  0.11400  1.0000
  O   O2        1.0  0.44700  0.81300  0.11400  1.0000
  O   O3        1.0  0.77700  0.21600  0.26400  1.0000
  O   O4        1.0  0.27700  0.52000  0.26400  1.0000
  O   O5        1.0  0.19500  0.17500  0.27500  1.0000
  O   O6        1.0  0.69500  0.55000  0.27500  1.0000
  O   O7        1.0  0.99100  0.73700  0.46300  1.0000
  O   O8        1.0  0.49100  0.79900  0.46300  1.0000
  O   O9        1.0  0.49100  0.20100  0.53700  1.0000
  O   O10       1.0  0.99100  0.26300  0.53700  1.0000
  O   O11       1.0  0.69500  0.45000  0.72500  1.0000
  O   O12       1.0  0.19500  0.82500  0.72500  1.0000
  O   O13       1.0  0.27700  0.48000  0.73600  1.0000
  O   O14       1.0  0.77700  0.78400  0.73600  1.0000
  O   O15       1.0  0.44700  0.18700  0.88600  1.0000
  O   O16       1.0  0.94700  0.92700  0.88600  1.0000
