data_image0
_chemical_formula_structural       Al4Ba12Sb12
_chemical_formula_sum              "Al4 Ba12 Sb12"
_cell_length_a       7.27033
_cell_length_b       11.3003
_cell_length_c       14.2487
_cell_angle_alpha    90
_cell_angle_beta     90
_cell_angle_gamma    108.765

_space_group_name_H-M_alt    "P 1"
_space_group_IT_number       1

loop_
  _space_group_symop_operation_xyz
  'x, y, z'

loop_
  _atom_site_type_symbol
  _atom_site_label
  _atom_site_symmetry_multiplicity
  _atom_site_fract_x
  _atom_site_fract_y
  _atom_site_fract_z
  _atom_site_occupancy
  Al  Al1       1.0  0.08520  0.17000  0.00000  1.0000
  Al  Al2       1.0  0.91500  0.83000  0.00000  1.0000
  Al  Al3       1.0  0.58500  0.17000  0.50000  1.0000
  Al  Al4       1.0  0.41500  0.83000  0.50000  1.0000
  Ba  Ba1       1.0  0.87000  0.34900  0.12900  1.0000
  Ba  Ba2       1.0  0.52100  0.65100  0.12900  1.0000
  Ba  Ba3       1.0  0.31400  0.00000  0.14800  1.0000
  Ba  Ba4       1.0  0.81400  0.00000  0.35200  1.0000
  Ba  Ba5       1.0  0.37000  0.34900  0.37100  1.0000
  Ba  Ba6       1.0  0.02070  0.65100  0.37100  1.0000
  Ba  Ba7       1.0  0.97900  0.34900  0.62900  1.0000
  Ba  Ba8       1.0  0.63000  0.65100  0.62900  1.0000
  Ba  Ba9       1.0  0.18600  0.00000  0.64800  1.0000
  Ba  Ba10      1.0  0.68600  0.00000  0.85200  1.0000
  Ba  Ba11      1.0  0.47900  0.34900  0.87100  1.0000
  Ba  Ba12      1.0  0.13000  0.65100  0.87100  1.0000
  Sb  Sb1       1.0  0.79500  0.00000  0.10100  1.0000
  Sb  Sb2       1.0  0.35900  0.31800  0.12000  1.0000
  Sb  Sb3       1.0  0.04100  0.68200  0.12000  1.0000
  Sb  Sb4       1.0  0.85900  0.31800  0.38000  1.0000
  Sb  Sb5       1.0  0.54100  0.68200  0.38000  1.0000
  Sb  Sb6       1.0  0.29500  0.00000  0.39900  1.0000
  Sb  Sb7       1.0  0.70500  0.00000  0.60100  1.0000
  Sb  Sb8       1.0  0.45900  0.31800  0.62000  1.0000
  Sb  Sb9       1.0  0.14100  0.68200  0.62000  1.0000
  Sb  Sb10      1.0  0.95900  0.31800  0.88000  1.0000
  Sb  Sb11      1.0  0.64100  0.68200  0.88000  1.0000
  Sb  Sb12      1.0  0.20500  0.00000  0.89900  1.0000
