data_image0
_chemical_formula_structural       Ba4K4O16P4
_chemical_formula_sum              "Ba4 K4 O16 P4"
_cell_length_a       5.64006
_cell_length_b       9.95579
_cell_length_c       7.68265
_cell_angle_alpha    90
_cell_angle_beta     90
_cell_angle_gamma    90

_space_group_name_H-M_alt    "P 1"
_space_group_IT_number       1

loop_
  _space_group_symop_operation_xyz
  'x, y, z'

loop_
  _atom_site_type_symbol
  _atom_site_label
  _atom_site_symmetry_multiplicity
  _atom_site_fract_x
  _atom_site_fract_y
  _atom_site_fract_z
  _atom_site_occupancy
  Ba  Ba1       1.0  0.75000  0.30800  0.01370  1.0000
  Ba  Ba2       1.0  0.25000  0.80800  0.48600  1.0000
  Ba  Ba3       1.0  0.75000  0.19200  0.51400  1.0000
  Ba  Ba4       1.0  0.25000  0.69200  0.98600  1.0000
  K   K1        1.0  0.25000  0.08830  0.16000  1.0000
  K   K2        1.0  0.75000  0.58800  0.34000  1.0000
  K   K3        1.0  0.25000  0.41200  0.66000  1.0000
  K   K4        1.0  0.75000  0.91200  0.84000  1.0000
  O   O1        1.0  0.25000  0.41200  0.03650  1.0000
  O   O2        1.0  0.52400  0.84800  0.19100  1.0000
  O   O3        1.0  0.97600  0.84800  0.19100  1.0000
  O   O4        1.0  0.75000  0.06750  0.19900  1.0000
  O   O5        1.0  0.25000  0.56700  0.30100  1.0000
  O   O6        1.0  0.02400  0.34800  0.30900  1.0000
  O   O7        1.0  0.47600  0.34800  0.30900  1.0000
  O   O8        1.0  0.75000  0.91200  0.46300  1.0000
  O   O9        1.0  0.25000  0.08840  0.53700  1.0000
  O   O10       1.0  0.52400  0.65200  0.69100  1.0000
  O   O11       1.0  0.97600  0.65200  0.69100  1.0000
  O   O12       1.0  0.75000  0.43300  0.69900  1.0000
  O   O13       1.0  0.25000  0.93300  0.80100  1.0000
  O   O14       1.0  0.02400  0.15200  0.80900  1.0000
  O   O15       1.0  0.47600  0.15200  0.80900  1.0000
  O   O16       1.0  0.75000  0.58800  0.96300  1.0000
  P   P1        1.0  0.25000  0.41800  0.23900  1.0000
  P   P2        1.0  0.75000  0.91800  0.26100  1.0000
  P   P3        1.0  0.25000  0.08190  0.73900  1.0000
  P   P4        1.0  0.75000  0.58200  0.76100  1.0000
