data_image0
_chemical_formula_structural       Lu8S16Zn4
_chemical_formula_sum              "Lu8 S16 Zn4"
_cell_length_a       13.2616
_cell_length_b       7.70001
_cell_length_c       6.25995
_cell_angle_alpha    90
_cell_angle_beta     90
_cell_angle_gamma    90

_space_group_name_H-M_alt    "P 1"
_space_group_IT_number       1

loop_
  _space_group_symop_operation_xyz
  'x, y, z'

loop_
  _atom_site_type_symbol
  _atom_site_label
  _atom_site_symmetry_multiplicity
  _atom_site_fract_x
  _atom_site_fract_y
  _atom_site_fract_z
  _atom_site_occupancy
  Lu  Lu1       1.0  0.00000  0.00000  0.00000  1.0000
  Lu  Lu2       1.0  0.00000  0.50000  0.00000  1.0000
  Lu  Lu3       1.0  0.73500  0.75000  0.00186  1.0000
  Lu  Lu4       1.0  0.23500  0.75000  0.49800  1.0000
  Lu  Lu5       1.0  0.50000  0.00000  0.50000  1.0000
  Lu  Lu6       1.0  0.50000  0.50000  0.50000  1.0000
  Lu  Lu7       1.0  0.76500  0.25000  0.50200  1.0000
  Lu  Lu8       1.0  0.26500  0.25000  0.99800  1.0000
  S   S1        1.0  0.90900  0.75000  0.22100  1.0000
  S   S2        1.0  0.16900  0.00917  0.24100  1.0000
  S   S3        1.0  0.16900  0.49100  0.24100  1.0000
  S   S4        1.0  0.42800  0.25000  0.24600  1.0000
  S   S5        1.0  0.92800  0.25000  0.25400  1.0000
  S   S6        1.0  0.66900  0.00917  0.25900  1.0000
  S   S7        1.0  0.66900  0.49100  0.25900  1.0000
  S   S8        1.0  0.40900  0.75000  0.27900  1.0000
  S   S9        1.0  0.59100  0.25000  0.72100  1.0000
  S   S10       1.0  0.33100  0.50900  0.74100  1.0000
  S   S11       1.0  0.33100  0.99100  0.74100  1.0000
  S   S12       1.0  0.07150  0.75000  0.74600  1.0000
  S   S13       1.0  0.57200  0.75000  0.75400  1.0000
  S   S14       1.0  0.83100  0.50900  0.75900  1.0000
  S   S15       1.0  0.83100  0.99100  0.75900  1.0000
  S   S16       1.0  0.09060  0.25000  0.77900  1.0000
  Zn  Zn1       1.0  0.59200  0.25000  0.08780  1.0000
  Zn  Zn2       1.0  0.09200  0.25000  0.41200  1.0000
  Zn  Zn3       1.0  0.90800  0.75000  0.58800  1.0000
  Zn  Zn4       1.0  0.40800  0.75000  0.91200  1.0000
