data_image0
_chemical_formula_structural       Ge8I8S12
_chemical_formula_sum              "Ge8 I8 S12"
_cell_length_a       11.0407
_cell_length_b       11.0407
_cell_length_c       9.78802
_cell_angle_alpha    89.9996
_cell_angle_beta     89.9965
_cell_angle_gamma    120.004

_space_group_name_H-M_alt    "P 1"
_space_group_IT_number       1

loop_
  _space_group_symop_operation_xyz
  'x, y, z'

loop_
  _atom_site_type_symbol
  _atom_site_label
  _atom_site_symmetry_multiplicity
  _atom_site_fract_x
  _atom_site_fract_y
  _atom_site_fract_z
  _atom_site_occupancy
  Ge  Ge1       1.0  0.66700  0.33300  0.05820  1.0000
  Ge  Ge2       1.0  0.28200  0.46500  0.23100  1.0000
  Ge  Ge3       1.0  0.18300  0.71800  0.23100  1.0000
  Ge  Ge4       1.0  0.53500  0.81700  0.23100  1.0000
  Ge  Ge5       1.0  0.46500  0.18300  0.76900  1.0000
  Ge  Ge6       1.0  0.81700  0.28200  0.76900  1.0000
  Ge  Ge7       1.0  0.71800  0.53500  0.76900  1.0000
  Ge  Ge8       1.0  0.33300  0.66700  0.94200  1.0000
  I   I1        1.0  0.00614  0.78300  0.31400  1.0000
  I   I2        1.0  0.21700  0.22300  0.31400  1.0000
  I   I3        1.0  0.77700  0.99400  0.31400  1.0000
  I   I4        1.0  0.66700  0.33300  0.31600  1.0000
  I   I5        1.0  0.33300  0.66700  0.68400  1.0000
  I   I6        1.0  0.99400  0.21700  0.68600  1.0000
  I   I7        1.0  0.22300  0.00614  0.68600  1.0000
  I   I8        1.0  0.78300  0.77700  0.68600  1.0000
  S   S1        1.0  0.27800  0.44900  0.00249  1.0000
  S   S2        1.0  0.55100  0.83000  0.00249  1.0000
  S   S3        1.0  0.17000  0.72200  0.00249  1.0000
  S   S4        1.0  0.11600  0.50500  0.31700  1.0000
  S   S5        1.0  0.49500  0.61100  0.31700  1.0000
  S   S6        1.0  0.38900  0.88400  0.31700  1.0000
  S   S7        1.0  0.61100  0.11600  0.68300  1.0000
  S   S8        1.0  0.50500  0.38900  0.68300  1.0000
  S   S9        1.0  0.88400  0.49500  0.68300  1.0000
  S   S10       1.0  0.44900  0.17000  0.99800  1.0000
  S   S11       1.0  0.83000  0.27800  0.99800  1.0000
  S   S12       1.0  0.72200  0.55100  0.99800  1.0000
