data_image0
_chemical_formula_structural       Br8C4Se16
_chemical_formula_sum              "Br8 C4 Se16"
_cell_length_a       21.4352
_cell_length_b       4.83676
_cell_length_c       8.68624
_cell_angle_alpha    90
_cell_angle_beta     90
_cell_angle_gamma    90

_space_group_name_H-M_alt    "P 1"
_space_group_IT_number       1

loop_
  _space_group_symop_operation_xyz
  'x, y, z'

loop_
  _atom_site_type_symbol
  _atom_site_label
  _atom_site_symmetry_multiplicity
  _atom_site_fract_x
  _atom_site_fract_y
  _atom_site_fract_z
  _atom_site_occupancy
  Br  Br1       1.0  0.50800  0.63300  0.25400  1.0000
  Br  Br2       1.0  0.00839  0.86700  0.25400  1.0000
  Br  Br3       1.0  0.67300  0.03520  0.41000  1.0000
  Br  Br4       1.0  0.17300  0.46500  0.41000  1.0000
  Br  Br5       1.0  0.99200  0.13300  0.75400  1.0000
  Br  Br6       1.0  0.49200  0.36700  0.75400  1.0000
  Br  Br7       1.0  0.82700  0.53500  0.91000  1.0000
  Br  Br8       1.0  0.32700  0.96500  0.91000  1.0000
  C   C1        1.0  0.87800  0.58200  0.24700  1.0000
  C   C2        1.0  0.37800  0.91800  0.24700  1.0000
  C   C3        1.0  0.62200  0.08150  0.74700  1.0000
  C   C4        1.0  0.12200  0.41800  0.74700  1.0000
  Se  Se1       1.0  0.18800  0.62300  0.01380  1.0000
  Se  Se2       1.0  0.68800  0.87700  0.01380  1.0000
  Se  Se3       1.0  0.92100  0.71400  0.07410  1.0000
  Se  Se4       1.0  0.42100  0.78600  0.07410  1.0000
  Se  Se5       1.0  0.30100  0.09350  0.23800  1.0000
  Se  Se6       1.0  0.80100  0.40700  0.23800  1.0000
  Se  Se7       1.0  0.90800  0.60700  0.44600  1.0000
  Se  Se8       1.0  0.40800  0.89300  0.44600  1.0000
  Se  Se9       1.0  0.31200  0.12300  0.51400  1.0000
  Se  Se10      1.0  0.81200  0.37700  0.51400  1.0000
  Se  Se11      1.0  0.57900  0.21400  0.57400  1.0000
  Se  Se12      1.0  0.07880  0.28600  0.57400  1.0000
  Se  Se13      1.0  0.19900  0.59300  0.73800  1.0000
  Se  Se14      1.0  0.69900  0.90700  0.73800  1.0000
  Se  Se15      1.0  0.59200  0.10700  0.94600  1.0000
  Se  Se16      1.0  0.09200  0.39300  0.94600  1.0000
