data_image0
_chemical_formula_structural       B20Gd8
_chemical_formula_sum              "B20 Gd8"
_cell_length_a       7.13521
_cell_length_b       7.14152
_cell_length_c       7.1697
_cell_angle_alpha    90
_cell_angle_beta     102.714
_cell_angle_gamma    90

_space_group_name_H-M_alt    "P 1"
_space_group_IT_number       1

loop_
  _space_group_symop_operation_xyz
  'x, y, z'

loop_
  _atom_site_type_symbol
  _atom_site_label
  _atom_site_symmetry_multiplicity
  _atom_site_fract_x
  _atom_site_fract_y
  _atom_site_fract_z
  _atom_site_occupancy
  B   B1        1.0  0.68500  0.49800  0.03940  1.0000
  B   B2        1.0  0.50300  0.67300  0.04000  1.0000
  B   B3        1.0  0.92400  0.49100  0.07220  1.0000
  B   B4        1.0  0.49900  0.91000  0.08990  1.0000
  B   B5        1.0  0.50300  0.46100  0.17400  1.0000
  B   B6        1.0  0.49700  0.96100  0.32600  1.0000
  B   B7        1.0  0.50100  0.41000  0.41000  1.0000
  B   B8        1.0  0.07610  0.99100  0.42800  1.0000
  B   B9        1.0  0.49700  0.17300  0.46000  1.0000
  B   B10       1.0  0.31500  0.99800  0.46100  1.0000
  B   B11       1.0  0.68500  0.00160  0.53900  1.0000
  B   B12       1.0  0.50300  0.82700  0.54000  1.0000
  B   B13       1.0  0.92400  0.00865  0.57200  1.0000
  B   B14       1.0  0.49900  0.59000  0.59000  1.0000
  B   B15       1.0  0.50300  0.03870  0.67400  1.0000
  B   B16       1.0  0.49700  0.53900  0.82600  1.0000
  B   B17       1.0  0.50100  0.08980  0.91000  1.0000
  B   B18       1.0  0.07610  0.50900  0.92800  1.0000
  B   B19       1.0  0.49700  0.32700  0.96000  1.0000
  B   B20       1.0  0.31500  0.50200  0.96100  1.0000
  Gd  Gd1       1.0  0.23300  0.19100  0.12800  1.0000
  Gd  Gd2       1.0  0.75900  0.18400  0.24400  1.0000
  Gd  Gd3       1.0  0.24100  0.68400  0.25600  1.0000
  Gd  Gd4       1.0  0.76700  0.69100  0.37200  1.0000
  Gd  Gd5       1.0  0.23300  0.30900  0.62800  1.0000
  Gd  Gd6       1.0  0.75900  0.31600  0.74400  1.0000
  Gd  Gd7       1.0  0.24100  0.81600  0.75600  1.0000
  Gd  Gd8       1.0  0.76700  0.80900  0.87200  1.0000
