data_image0
_chemical_formula_structural       Ge4Pb8S16
_chemical_formula_sum              "Ge4 Pb8 S16"
_cell_length_a       8.12527
_cell_length_b       9.33121
_cell_length_c       10.8901
_cell_angle_alpha    89.9988
_cell_angle_beta     114.154
_cell_angle_gamma    90.0029

_space_group_name_H-M_alt    "P 1"
_space_group_IT_number       1

loop_
  _space_group_symop_operation_xyz
  'x, y, z'

loop_
  _atom_site_type_symbol
  _atom_site_label
  _atom_site_symmetry_multiplicity
  _atom_site_fract_x
  _atom_site_fract_y
  _atom_site_fract_z
  _atom_site_occupancy
  Ge  Ge1       1.0  0.71600  0.19100  0.00639  1.0000
  Ge  Ge2       1.0  0.28400  0.69100  0.49400  1.0000
  Ge  Ge3       1.0  0.71600  0.30900  0.50600  1.0000
  Ge  Ge4       1.0  0.28400  0.80900  0.99400  1.0000
  Pb  Pb1       1.0  0.40700  0.45100  0.15200  1.0000
  Pb  Pb2       1.0  0.96300  0.82600  0.16100  1.0000
  Pb  Pb3       1.0  0.03700  0.32600  0.33900  1.0000
  Pb  Pb4       1.0  0.59300  0.95100  0.34800  1.0000
  Pb  Pb5       1.0  0.40700  0.04860  0.65200  1.0000
  Pb  Pb6       1.0  0.96300  0.67400  0.66100  1.0000
  Pb  Pb7       1.0  0.03700  0.17400  0.83900  1.0000
  Pb  Pb8       1.0  0.59400  0.54900  0.84800  1.0000
  S   S1        1.0  0.91700  0.36800  0.05560  1.0000
  S   S2        1.0  0.55400  0.70400  0.09580  1.0000
  S   S3        1.0  0.24800  0.97800  0.12800  1.0000
  S   S4        1.0  0.78100  0.08860  0.20500  1.0000
  S   S5        1.0  0.21900  0.58900  0.29500  1.0000
  S   S6        1.0  0.75200  0.47800  0.37200  1.0000
  S   S7        1.0  0.44600  0.20400  0.40400  1.0000
  S   S8        1.0  0.08330  0.86800  0.44400  1.0000
  S   S9        1.0  0.91700  0.13200  0.55600  1.0000
  S   S10       1.0  0.55400  0.79600  0.59600  1.0000
  S   S11       1.0  0.24800  0.52200  0.62800  1.0000
  S   S12       1.0  0.78100  0.41100  0.70500  1.0000
  S   S13       1.0  0.21900  0.91100  0.79500  1.0000
  S   S14       1.0  0.75200  0.02240  0.87200  1.0000
  S   S15       1.0  0.44600  0.29600  0.90400  1.0000
  S   S16       1.0  0.08330  0.63200  0.94400  1.0000
