data_image0
_chemical_formula_structural       Al8C4Ni4Ti12
_chemical_formula_sum              "Al8 C4 Ni4 Ti12"
_cell_length_a       8.09884
_cell_length_b       8.09884
_cell_length_c       8.09884
_cell_angle_alpha    120
_cell_angle_beta     90
_cell_angle_gamma    120

_space_group_name_H-M_alt    "P 1"
_space_group_IT_number       1

loop_
  _space_group_symop_operation_xyz
  'x, y, z'

loop_
  _atom_site_type_symbol
  _atom_site_label
  _atom_site_symmetry_multiplicity
  _atom_site_fract_x
  _atom_site_fract_y
  _atom_site_fract_z
  _atom_site_occupancy
  Al  Al1       1.0  0.58300  0.16600  0.41700  1.0000
  Al  Al2       1.0  0.25100  0.83400  0.41700  1.0000
  Al  Al3       1.0  0.58300  0.83400  0.41700  1.0000
  Al  Al4       1.0  0.16700  0.33400  0.50100  1.0000
  Al  Al5       1.0  0.58300  0.16600  0.74900  1.0000
  Al  Al6       1.0  0.16700  0.33400  0.83300  1.0000
  Al  Al7       1.0  0.16700  0.66600  0.83300  1.0000
  Al  Al8       1.0  0.49900  0.66600  0.83300  1.0000
  C   C1        1.0  0.37500  0.25000  0.12500  1.0000
  C   C2        1.0  0.87500  0.25000  0.12500  1.0000
  C   C3        1.0  0.87500  0.75000  0.12500  1.0000
  C   C4        1.0  0.87500  0.75000  0.62500  1.0000
  Ni  Ni1       1.0  0.37500  0.75000  0.12500  1.0000
  Ni  Ni2       1.0  0.37500  0.25000  0.62500  1.0000
  Ni  Ni3       1.0  0.87500  0.25000  0.62500  1.0000
  Ni  Ni4       1.0  0.37500  0.75000  0.62500  1.0000
  Ti  Ti1       1.0  0.93900  0.50000  0.06120  1.0000
  Ti  Ti2       1.0  0.56100  0.12200  0.06120  1.0000
  Ti  Ti3       1.0  0.56100  0.50000  0.06120  1.0000
  Ti  Ti4       1.0  0.81100  0.00000  0.18900  1.0000
  Ti  Ti5       1.0  0.18900  0.00000  0.18900  1.0000
  Ti  Ti6       1.0  0.18900  0.37800  0.18900  1.0000
  Ti  Ti7       1.0  0.56100  0.50000  0.43900  1.0000
  Ti  Ti8       1.0  0.93900  0.50000  0.43900  1.0000
  Ti  Ti9       1.0  0.93900  0.87800  0.43900  1.0000
  Ti  Ti10      1.0  0.18900  0.00000  0.81100  1.0000
  Ti  Ti11      1.0  0.81100  0.62200  0.81100  1.0000
  Ti  Ti12      1.0  0.81100  0.00000  0.81100  1.0000
