data_image0
_chemical_formula_structural       Br18Os4Rb6
_chemical_formula_sum              "Br18 Os4 Rb6"
_cell_length_a       7.35744
_cell_length_b       7.35858
_cell_length_c       17.8837
_cell_angle_alpha    90
_cell_angle_beta     90
_cell_angle_gamma    120.061

_space_group_name_H-M_alt    "P 1"
_space_group_IT_number       1

loop_
  _space_group_symop_operation_xyz
  'x, y, z'

loop_
  _atom_site_type_symbol
  _atom_site_label
  _atom_site_symmetry_multiplicity
  _atom_site_fract_x
  _atom_site_fract_y
  _atom_site_fract_z
  _atom_site_occupancy
  Br  Br1       1.0  0.49900  0.99500  0.75000  1.0000
  Br  Br2       1.0  0.50100  0.00462  0.25000  1.0000
  Br  Br3       1.0  0.00456  0.50300  0.75000  1.0000
  Br  Br4       1.0  0.49600  0.50100  0.75000  1.0000
  Br  Br5       1.0  0.50400  0.49900  0.25000  1.0000
  Br  Br6       1.0  0.99500  0.49700  0.25000  1.0000
  Br  Br7       1.0  0.82600  0.65300  0.59200  1.0000
  Br  Br8       1.0  0.17400  0.34700  0.09200  1.0000
  Br  Br9       1.0  0.34700  0.17300  0.59200  1.0000
  Br  Br10      1.0  0.82700  0.17400  0.59200  1.0000
  Br  Br11      1.0  0.17300  0.82600  0.09210  1.0000
  Br  Br12      1.0  0.65300  0.82700  0.09190  1.0000
  Br  Br13      1.0  0.17400  0.34700  0.40800  1.0000
  Br  Br14      1.0  0.82600  0.65300  0.90800  1.0000
  Br  Br15      1.0  0.65300  0.82700  0.40800  1.0000
  Br  Br16      1.0  0.17300  0.82600  0.40800  1.0000
  Br  Br17      1.0  0.82700  0.17400  0.90800  1.0000
  Br  Br18      1.0  0.34700  0.17300  0.90800  1.0000
  Os  Os1       1.0  0.66700  0.33300  0.67400  1.0000
  Os  Os2       1.0  0.33300  0.66700  0.17400  1.0000
  Os  Os3       1.0  0.33300  0.66700  0.32600  1.0000
  Os  Os4       1.0  0.66700  0.33300  0.82600  1.0000
  Rb  Rb1       1.0  0.33300  0.66700  0.93100  1.0000
  Rb  Rb2       1.0  0.66700  0.33300  0.43100  1.0000
  Rb  Rb3       1.0  0.66700  0.33300  0.06850  1.0000
  Rb  Rb4       1.0  0.33300  0.66700  0.56900  1.0000
  Rb  Rb5       1.0  0.00021  0.99900  0.75000  1.0000
  Rb  Rb6       1.0  0.00000  0.00058  0.25000  1.0000
