data_image0
_chemical_formula_structural       Nd4Re16Si8
_chemical_formula_sum              "Nd4 Re16 Si8"
_cell_length_a       7.35077
_cell_length_b       15.453
_cell_length_c       4.16559
_cell_angle_alpha    90
_cell_angle_beta     90
_cell_angle_gamma    90

_space_group_name_H-M_alt    "P 1"
_space_group_IT_number       1

loop_
  _space_group_symop_operation_xyz
  'x, y, z'

loop_
  _atom_site_type_symbol
  _atom_site_label
  _atom_site_symmetry_multiplicity
  _atom_site_fract_x
  _atom_site_fract_y
  _atom_site_fract_z
  _atom_site_occupancy
  Nd  Nd1       1.0  0.57600  0.11800  0.00000  1.0000
  Nd  Nd2       1.0  0.42400  0.88200  0.00000  1.0000
  Nd  Nd3       1.0  0.07640  0.38200  0.50000  1.0000
  Nd  Nd4       1.0  0.92400  0.61800  0.50000  1.0000
  Re  Re1       1.0  0.13600  0.05230  0.00000  1.0000
  Re  Re2       1.0  0.98700  0.20600  0.00000  1.0000
  Re  Re3       1.0  0.73000  0.32100  0.00000  1.0000
  Re  Re4       1.0  0.43300  0.41800  0.00000  1.0000
  Re  Re5       1.0  0.56700  0.58200  0.00000  1.0000
  Re  Re6       1.0  0.27000  0.67900  0.00000  1.0000
  Re  Re7       1.0  0.01320  0.79400  0.00000  1.0000
  Re  Re8       1.0  0.86400  0.94800  0.00000  1.0000
  Re  Re9       1.0  0.93300  0.08190  0.50000  1.0000
  Re  Re10      1.0  0.23000  0.17900  0.50000  1.0000
  Re  Re11      1.0  0.48700  0.29400  0.50000  1.0000
  Re  Re12      1.0  0.63600  0.44800  0.50000  1.0000
  Re  Re13      1.0  0.36400  0.55200  0.50000  1.0000
  Re  Re14      1.0  0.51300  0.70600  0.50000  1.0000
  Re  Re15      1.0  0.77000  0.82100  0.50000  1.0000
  Re  Re16      1.0  0.06720  0.91800  0.50000  1.0000
  Si  Si1       1.0  0.28900  0.27300  0.00000  1.0000
  Si  Si2       1.0  0.82800  0.47600  0.00000  1.0000
  Si  Si3       1.0  0.17200  0.52400  0.00000  1.0000
  Si  Si4       1.0  0.71100  0.72700  0.00000  1.0000
  Si  Si5       1.0  0.32800  0.02410  0.50000  1.0000
  Si  Si6       1.0  0.78900  0.22700  0.50000  1.0000
  Si  Si7       1.0  0.21100  0.77300  0.50000  1.0000
  Si  Si8       1.0  0.67200  0.97600  0.50000  1.0000
