data_image0
_chemical_formula_structural       Fe4Na4O16Ti4
_chemical_formula_sum              "Fe4 Na4 O16 Ti4"
_cell_length_a       9.11842
_cell_length_b       2.97059
_cell_length_c       11.1665
_cell_angle_alpha    90
_cell_angle_beta     90
_cell_angle_gamma    90

_space_group_name_H-M_alt    "P 1"
_space_group_IT_number       1

loop_
  _space_group_symop_operation_xyz
  'x, y, z'

loop_
  _atom_site_type_symbol
  _atom_site_label
  _atom_site_symmetry_multiplicity
  _atom_site_fract_x
  _atom_site_fract_y
  _atom_site_fract_z
  _atom_site_occupancy
  Fe  Fe1       1.0  0.01100  0.25000  0.11800  1.0000
  Fe  Fe2       1.0  0.51100  0.25000  0.38200  1.0000
  Fe  Fe3       1.0  0.48900  0.75000  0.61800  1.0000
  Fe  Fe4       1.0  0.98900  0.75000  0.88200  1.0000
  Na  Na1       1.0  0.38600  0.75000  0.10800  1.0000
  Na  Na2       1.0  0.88600  0.75000  0.39200  1.0000
  Na  Na3       1.0  0.11400  0.25000  0.60800  1.0000
  Na  Na4       1.0  0.61400  0.25000  0.89200  1.0000
  O   O1        1.0  0.88200  0.75000  0.03860  1.0000
  O   O2        1.0  0.61200  0.25000  0.09310  1.0000
  O   O3        1.0  0.12100  0.75000  0.18800  1.0000
  O   O4        1.0  0.84700  0.25000  0.23300  1.0000
  O   O5        1.0  0.34700  0.25000  0.26700  1.0000
  O   O6        1.0  0.62100  0.75000  0.31200  1.0000
  O   O7        1.0  0.11200  0.25000  0.40700  1.0000
  O   O8        1.0  0.38200  0.75000  0.46100  1.0000
  O   O9        1.0  0.61800  0.25000  0.53900  1.0000
  O   O10       1.0  0.88800  0.75000  0.59300  1.0000
  O   O11       1.0  0.37900  0.25000  0.68800  1.0000
  O   O12       1.0  0.65300  0.75000  0.73300  1.0000
  O   O13       1.0  0.15300  0.75000  0.76700  1.0000
  O   O14       1.0  0.87900  0.25000  0.81200  1.0000
  O   O15       1.0  0.38800  0.75000  0.90700  1.0000
  O   O16       1.0  0.11800  0.25000  0.96100  1.0000
  Ti  Ti1       1.0  0.72100  0.75000  0.16100  1.0000
  Ti  Ti2       1.0  0.22100  0.75000  0.33900  1.0000
  Ti  Ti3       1.0  0.77900  0.25000  0.66100  1.0000
  Ti  Ti4       1.0  0.27900  0.25000  0.83900  1.0000
