data_image0
_chemical_formula_structural       Cs2Mo12Se14
_chemical_formula_sum              "Cs2 Mo12 Se14"
_cell_length_a       9.98651
_cell_length_b       9.98651
_cell_length_c       9.98651
_cell_angle_alpha    58.3639
_cell_angle_beta     58.3639
_cell_angle_gamma    58.3639

_space_group_name_H-M_alt    "P 1"
_space_group_IT_number       1

loop_
  _space_group_symop_operation_xyz
  'x, y, z'

loop_
  _atom_site_type_symbol
  _atom_site_label
  _atom_site_symmetry_multiplicity
  _atom_site_fract_x
  _atom_site_fract_y
  _atom_site_fract_z
  _atom_site_occupancy
  Cs  Cs1       1.0  0.37400  0.37400  0.37400  1.0000
  Cs  Cs2       1.0  0.62600  0.62600  0.62600  1.0000
  Mo  Mo1       1.0  0.69400  0.88400  0.00692  1.0000
  Mo  Mo2       1.0  0.19500  0.87700  0.06150  1.0000
  Mo  Mo3       1.0  0.99300  0.30600  0.11600  1.0000
  Mo  Mo4       1.0  0.93800  0.80500  0.12300  1.0000
  Mo  Mo5       1.0  0.87700  0.06150  0.19500  1.0000
  Mo  Mo6       1.0  0.11600  0.99300  0.30600  1.0000
  Mo  Mo7       1.0  0.88400  0.00692  0.69400  1.0000
  Mo  Mo8       1.0  0.12300  0.93800  0.80500  1.0000
  Mo  Mo9       1.0  0.06150  0.19500  0.87700  1.0000
  Mo  Mo10      1.0  0.00692  0.69400  0.88400  1.0000
  Mo  Mo11      1.0  0.80500  0.12300  0.93800  1.0000
  Mo  Mo12      1.0  0.30600  0.11600  0.99300  1.0000
  Se  Se1       1.0  0.75700  0.37300  0.01290  1.0000
  Se  Se2       1.0  0.42000  0.80200  0.17000  1.0000
  Se  Se3       1.0  0.83000  0.58000  0.19800  1.0000
  Se  Se4       1.0  0.22000  0.22000  0.22000  1.0000
  Se  Se5       1.0  0.62700  0.98700  0.24300  1.0000
  Se  Se6       1.0  0.01290  0.75700  0.37300  1.0000
  Se  Se7       1.0  0.80200  0.17000  0.42000  1.0000
  Se  Se8       1.0  0.19800  0.83000  0.58000  1.0000
  Se  Se9       1.0  0.98700  0.24300  0.62700  1.0000
  Se  Se10      1.0  0.37300  0.01290  0.75700  1.0000
  Se  Se11      1.0  0.78000  0.78000  0.78000  1.0000
  Se  Se12      1.0  0.17000  0.42000  0.80200  1.0000
  Se  Se13      1.0  0.58000  0.19800  0.83000  1.0000
  Se  Se14      1.0  0.24300  0.62700  0.98700  1.0000
