data_image0
_chemical_formula_structural       Ga8La12Ni8
_chemical_formula_sum              "Ga8 La12 Ni8"
_cell_length_a       5.75138
_cell_length_b       8.3185
_cell_length_c       13.2018
_cell_angle_alpha    90
_cell_angle_beta     90
_cell_angle_gamma    90

_space_group_name_H-M_alt    "P 1"
_space_group_IT_number       1

loop_
  _space_group_symop_operation_xyz
  'x, y, z'

loop_
  _atom_site_type_symbol
  _atom_site_label
  _atom_site_symmetry_multiplicity
  _atom_site_fract_x
  _atom_site_fract_y
  _atom_site_fract_z
  _atom_site_occupancy
  Ga  Ga1       1.0  0.64400  0.25000  0.00000  1.0000
  Ga  Ga2       1.0  0.35600  0.75000  0.00000  1.0000
  Ga  Ga3       1.0  0.16900  0.39900  0.25000  1.0000
  Ga  Ga4       1.0  0.83100  0.89900  0.25000  1.0000
  Ga  Ga5       1.0  0.64400  0.25000  0.50000  1.0000
  Ga  Ga6       1.0  0.35600  0.75000  0.50000  1.0000
  Ga  Ga7       1.0  0.16900  0.10100  0.75000  1.0000
  Ga  Ga8       1.0  0.83100  0.60100  0.75000  1.0000
  La  La1       1.0  0.15500  0.10400  0.09600  1.0000
  La  La2       1.0  0.84500  0.60400  0.09600  1.0000
  La  La3       1.0  0.65800  0.25200  0.25000  1.0000
  La  La4       1.0  0.34200  0.75200  0.25000  1.0000
  La  La5       1.0  0.15500  0.10400  0.40400  1.0000
  La  La6       1.0  0.84500  0.60400  0.40400  1.0000
  La  La7       1.0  0.15500  0.39600  0.59600  1.0000
  La  La8       1.0  0.84500  0.89600  0.59600  1.0000
  La  La9       1.0  0.65800  0.24800  0.75000  1.0000
  La  La10      1.0  0.34200  0.74800  0.75000  1.0000
  La  La11      1.0  0.15500  0.39600  0.90400  1.0000
  La  La12      1.0  0.84500  0.89600  0.90400  1.0000
  Ni  Ni1       1.0  0.38700  0.46700  0.08750  1.0000
  Ni  Ni2       1.0  0.61300  0.96700  0.08750  1.0000
  Ni  Ni3       1.0  0.38700  0.46700  0.41200  1.0000
  Ni  Ni4       1.0  0.61300  0.96700  0.41200  1.0000
  Ni  Ni5       1.0  0.38700  0.03320  0.58800  1.0000
  Ni  Ni6       1.0  0.61300  0.53300  0.58800  1.0000
  Ni  Ni7       1.0  0.38700  0.03320  0.91200  1.0000
  Ni  Ni8       1.0  0.61300  0.53300  0.91200  1.0000
