data_image0
_chemical_formula_structural       O4SnSr2
_chemical_formula_sum              "O4 Sn1 Sr2"
_cell_length_a       4.06159
_cell_length_b       4.06159
_cell_length_c       6.9185
_cell_angle_alpha    107.069
_cell_angle_beta     107.069
_cell_angle_gamma    90

_space_group_name_H-M_alt    "P 1"
_space_group_IT_number       1

loop_
  _space_group_symop_operation_xyz
  'x, y, z'

loop_
  _atom_site_type_symbol
  _atom_site_label
  _atom_site_symmetry_multiplicity
  _atom_site_fract_x
  _atom_site_fract_y
  _atom_site_fract_z
  _atom_site_occupancy
  O   O1        1.0  0.50000  0.00000  0.00000  1.0000
  O   O2        1.0  0.00000  0.50000  0.00000  1.0000
  O   O3        1.0  0.16500  0.16500  0.32900  1.0000
  O   O4        1.0  0.83500  0.83500  0.67100  1.0000
  Sn  Sn1       1.0  0.00000  0.00000  0.00000  1.0000
  Sr  Sr1       1.0  0.64700  0.64700  0.29300  1.0000
  Sr  Sr2       1.0  0.35300  0.35300  0.70700  1.0000
