data_image0
_chemical_formula_structural       Mn8Na8S12
_chemical_formula_sum              "Mn8 Na8 S12"
_cell_length_a       6.89953
_cell_length_b       9.97765
_cell_length_c       9.97765
_cell_angle_alpha    96.3066
_cell_angle_beta     109.707
_cell_angle_gamma    70.2931

_space_group_name_H-M_alt    "P 1"
_space_group_IT_number       1

loop_
  _space_group_symop_operation_xyz
  'x, y, z'

loop_
  _atom_site_type_symbol
  _atom_site_label
  _atom_site_symmetry_multiplicity
  _atom_site_fract_x
  _atom_site_fract_y
  _atom_site_fract_z
  _atom_site_occupancy
  Mn  Mn1       1.0  0.74600  0.44500  0.08380  1.0000
  Mn  Mn2       1.0  0.20100  0.63600  0.21500  1.0000
  Mn  Mn3       1.0  0.70100  0.78500  0.36400  1.0000
  Mn  Mn4       1.0  0.75400  0.08380  0.44500  1.0000
  Mn  Mn5       1.0  0.24600  0.91600  0.55500  1.0000
  Mn  Mn6       1.0  0.29900  0.21500  0.63600  1.0000
  Mn  Mn7       1.0  0.79900  0.36400  0.78500  1.0000
  Mn  Mn8       1.0  0.25400  0.55500  0.91600  1.0000
  Na  Na1       1.0  0.62600  0.81400  0.01280  1.0000
  Na  Na2       1.0  0.12600  0.98700  0.18600  1.0000
  Na  Na3       1.0  0.25000  0.28200  0.28200  1.0000
  Na  Na4       1.0  0.75000  0.42900  0.42900  1.0000
  Na  Na5       1.0  0.25000  0.57100  0.57100  1.0000
  Na  Na6       1.0  0.75000  0.71800  0.71800  1.0000
  Na  Na7       1.0  0.87400  0.01280  0.81400  1.0000
  Na  Na8       1.0  0.37400  0.18600  0.98700  1.0000
  S   S1        1.0  0.95200  0.22900  0.00053  1.0000
  S   S2        1.0  0.44500  0.42000  0.14400  1.0000
  S   S3        1.0  0.54800  0.00053  0.22900  1.0000
  S   S4        1.0  0.93400  0.57000  0.28000  1.0000
  S   S5        1.0  0.05490  0.14400  0.42000  1.0000
  S   S6        1.0  0.43400  0.72000  0.43000  1.0000
  S   S7        1.0  0.56600  0.28000  0.57000  1.0000
  S   S8        1.0  0.94500  0.85600  0.58000  1.0000
  S   S9        1.0  0.06580  0.43000  0.72000  1.0000
  S   S10       1.0  0.45200  0.99900  0.77100  1.0000
  S   S11       1.0  0.55500  0.58000  0.85600  1.0000
  S   S12       1.0  0.04750  0.77100  0.99900  1.0000
