data_image0
_chemical_formula_structural       Mn2S8Sb4
_chemical_formula_sum              "Mn2 S8 Sb4"
_cell_length_a       3.82174
_cell_length_b       6.60836
_cell_length_c       13.9962
_cell_angle_alpha    92.9564
_cell_angle_beta     97.8469
_cell_angle_gamma    73.1924

_space_group_name_H-M_alt    "P 1"
_space_group_IT_number       1

loop_
  _space_group_symop_operation_xyz
  'x, y, z'

loop_
  _atom_site_type_symbol
  _atom_site_label
  _atom_site_symmetry_multiplicity
  _atom_site_fract_x
  _atom_site_fract_y
  _atom_site_fract_z
  _atom_site_occupancy
  Mn  Mn1       1.0  0.00000  0.00000  0.00000  1.0000
  Mn  Mn2       1.0  0.00000  0.50000  0.50000  1.0000
  S   S1        1.0  0.65600  0.72700  0.03900  1.0000
  S   S2        1.0  0.00579  0.15400  0.16500  1.0000
  S   S3        1.0  0.84100  0.64900  0.33000  1.0000
  S   S4        1.0  0.61200  0.23400  0.45800  1.0000
  S   S5        1.0  0.38800  0.76600  0.54200  1.0000
  S   S6        1.0  0.15900  0.35100  0.67000  1.0000
  S   S7        1.0  0.99400  0.84600  0.83500  1.0000
  S   S8        1.0  0.34400  0.27300  0.96100  1.0000
  Sb  Sb1       1.0  0.35300  0.42400  0.12900  1.0000
  Sb  Sb2       1.0  0.23000  0.91400  0.37400  1.0000
  Sb  Sb3       1.0  0.77000  0.08600  0.62600  1.0000
  Sb  Sb4       1.0  0.64700  0.57600  0.87100  1.0000
