data_image0
_chemical_formula_structural       Ga4K4Na8O12
_chemical_formula_sum              "Ga4 K4 Na8 O12"
_cell_length_a       6.48037
_cell_length_b       6.15301
_cell_length_c       10.1629
_cell_angle_alpha    90
_cell_angle_beta     90
_cell_angle_gamma    90

_space_group_name_H-M_alt    "P 1"
_space_group_IT_number       1

loop_
  _space_group_symop_operation_xyz
  'x, y, z'

loop_
  _atom_site_type_symbol
  _atom_site_label
  _atom_site_symmetry_multiplicity
  _atom_site_fract_x
  _atom_site_fract_y
  _atom_site_fract_z
  _atom_site_occupancy
  Ga  Ga1       1.0  0.17100  0.75000  0.00819  1.0000
  Ga  Ga2       1.0  0.67100  0.75000  0.49200  1.0000
  Ga  Ga3       1.0  0.32900  0.25000  0.50800  1.0000
  Ga  Ga4       1.0  0.82900  0.25000  0.99200  1.0000
  K   K1        1.0  0.65900  0.75000  0.02740  1.0000
  K   K2        1.0  0.15900  0.75000  0.47300  1.0000
  K   K3        1.0  0.84100  0.25000  0.52700  1.0000
  K   K4        1.0  0.34100  0.25000  0.97300  1.0000
  Na  Na1       1.0  0.99100  0.00778  0.23100  1.0000
  Na  Na2       1.0  0.99100  0.49200  0.23100  1.0000
  Na  Na3       1.0  0.49100  0.00778  0.26900  1.0000
  Na  Na4       1.0  0.49100  0.49200  0.26900  1.0000
  Na  Na5       1.0  0.50900  0.50800  0.73100  1.0000
  Na  Na6       1.0  0.50900  0.99200  0.73100  1.0000
  Na  Na7       1.0  0.00902  0.50800  0.76900  1.0000
  Na  Na8       1.0  0.00902  0.99200  0.76900  1.0000
  O   O1        1.0  0.00000  0.00000  0.00000  1.0000
  O   O2        1.0  0.00000  0.50000  0.00000  1.0000
  O   O3        1.0  0.67300  0.25000  0.14200  1.0000
  O   O4        1.0  0.28700  0.75000  0.17300  1.0000
  O   O5        1.0  0.78700  0.75000  0.32700  1.0000
  O   O6        1.0  0.17300  0.25000  0.35800  1.0000
  O   O7        1.0  0.50000  0.00000  0.50000  1.0000
  O   O8        1.0  0.50000  0.50000  0.50000  1.0000
  O   O9        1.0  0.82700  0.75000  0.64200  1.0000
  O   O10       1.0  0.21300  0.25000  0.67300  1.0000
  O   O11       1.0  0.71300  0.25000  0.82700  1.0000
  O   O12       1.0  0.32700  0.75000  0.85800  1.0000
