data_image0
_chemical_formula_structural       As4O20P4
_chemical_formula_sum              "As4 O20 P4"
_cell_length_a       8.43046
_cell_length_b       8.14743
_cell_length_c       4.55163
_cell_angle_alpha    90
_cell_angle_beta     90
_cell_angle_gamma    90

_space_group_name_H-M_alt    "P 1"
_space_group_IT_number       1

loop_
  _space_group_symop_operation_xyz
  'x, y, z'

loop_
  _atom_site_type_symbol
  _atom_site_label
  _atom_site_symmetry_multiplicity
  _atom_site_fract_x
  _atom_site_fract_y
  _atom_site_fract_z
  _atom_site_occupancy
  As  As1       1.0  0.15000  0.40000  0.12900  1.0000
  As  As2       1.0  0.85000  0.90000  0.37100  1.0000
  As  As3       1.0  0.35000  0.60000  0.62900  1.0000
  As  As4       1.0  0.65000  0.09970  0.87100  1.0000
  O   O1        1.0  0.49700  0.96100  0.03640  1.0000
  O   O2        1.0  0.57000  0.27500  0.08120  1.0000
  O   O3        1.0  0.00029  0.85200  0.08780  1.0000
  O   O4        1.0  0.79000  0.07530  0.16400  1.0000
  O   O5        1.0  0.71300  0.75100  0.20100  1.0000
  O   O6        1.0  0.28700  0.25100  0.29900  1.0000
  O   O7        1.0  0.21000  0.57500  0.33600  1.0000
  O   O8        1.0  0.00000  0.35200  0.41200  1.0000
  O   O9        1.0  0.43000  0.77500  0.41900  1.0000
  O   O10       1.0  0.50300  0.46100  0.46400  1.0000
  O   O11       1.0  0.00261  0.03860  0.53600  1.0000
  O   O12       1.0  0.93000  0.72500  0.58100  1.0000
  O   O13       1.0  0.50000  0.14800  0.58800  1.0000
  O   O14       1.0  0.71000  0.92500  0.66400  1.0000
  O   O15       1.0  0.78700  0.24900  0.70100  1.0000
  O   O16       1.0  0.21300  0.74900  0.79900  1.0000
  O   O17       1.0  0.29000  0.42500  0.83600  1.0000
  O   O18       1.0  0.50000  0.64800  0.91200  1.0000
  O   O19       1.0  0.06980  0.22500  0.91900  1.0000
  O   O20       1.0  0.99700  0.53900  0.96400  1.0000
  P   P1        1.0  0.53400  0.78300  0.13900  1.0000
  P   P2        1.0  0.46600  0.28300  0.36100  1.0000
  P   P3        1.0  0.96600  0.21700  0.63900  1.0000
  P   P4        1.0  0.03360  0.71700  0.86100  1.0000
