data_image0
_chemical_formula_structural       P10Pd10Sr8
_chemical_formula_sum              "P10 Pd10 Sr8"
_cell_length_a       4.20481
_cell_length_b       8.68459
_cell_length_c       15.9262
_cell_angle_alpha    90
_cell_angle_beta     82.4143
_cell_angle_gamma    90

_space_group_name_H-M_alt    "P 1"
_space_group_IT_number       1

loop_
  _space_group_symop_operation_xyz
  'x, y, z'

loop_
  _atom_site_type_symbol
  _atom_site_label
  _atom_site_symmetry_multiplicity
  _atom_site_fract_x
  _atom_site_fract_y
  _atom_site_fract_z
  _atom_site_occupancy
  P   P1        1.0  0.95800  0.25000  0.08500  1.0000
  P   P2        1.0  0.95600  0.75000  0.08710  1.0000
  P   P3        1.0  0.34400  0.25000  0.31200  1.0000
  P   P4        1.0  0.34300  0.75000  0.31400  1.0000
  P   P5        1.0  0.27100  0.75000  0.45800  1.0000
  P   P6        1.0  0.72900  0.25000  0.54200  1.0000
  P   P7        1.0  0.65700  0.25000  0.68600  1.0000
  P   P8        1.0  0.65600  0.75000  0.68800  1.0000
  P   P9        1.0  0.04350  0.25000  0.91300  1.0000
  P   P10       1.0  0.04250  0.75000  0.91500  1.0000
  Pd  Pd1       1.0  0.00000  0.00000  0.00000  1.0000
  Pd  Pd2       1.0  0.50000  0.25000  0.00000  1.0000
  Pd  Pd3       1.0  0.00000  0.50000  0.00000  1.0000
  Pd  Pd4       1.0  0.50000  0.75000  0.00000  1.0000
  Pd  Pd5       1.0  0.88100  0.25000  0.23700  1.0000
  Pd  Pd6       1.0  0.88000  0.75000  0.24000  1.0000
  Pd  Pd7       1.0  0.26600  0.25000  0.46700  1.0000
  Pd  Pd8       1.0  0.73400  0.75000  0.53300  1.0000
  Pd  Pd9       1.0  0.12000  0.25000  0.76000  1.0000
  Pd  Pd10      1.0  0.11900  0.75000  0.76300  1.0000
  Sr  Sr1       1.0  0.42100  0.00048  0.15800  1.0000
  Sr  Sr2       1.0  0.42100  0.50000  0.15800  1.0000
  Sr  Sr3       1.0  0.80600  0.00443  0.38700  1.0000
  Sr  Sr4       1.0  0.80600  0.49600  0.38700  1.0000
  Sr  Sr5       1.0  0.19400  0.50400  0.61300  1.0000
  Sr  Sr6       1.0  0.19400  0.99600  0.61300  1.0000
  Sr  Sr7       1.0  0.57900  0.50000  0.84200  1.0000
  Sr  Sr8       1.0  0.57900  0.00000  0.84200  1.0000
