data_image0
_chemical_formula_structural       Cl16Hg4K8
_chemical_formula_sum              "Cl16 Hg4 K8"
_cell_length_a       8.04366
_cell_length_b       12.0247
_cell_length_c       9.48296
_cell_angle_alpha    90
_cell_angle_beta     90
_cell_angle_gamma    90

_space_group_name_H-M_alt    "P 1"
_space_group_IT_number       1

loop_
  _space_group_symop_operation_xyz
  'x, y, z'

loop_
  _atom_site_type_symbol
  _atom_site_label
  _atom_site_symmetry_multiplicity
  _atom_site_fract_x
  _atom_site_fract_y
  _atom_site_fract_z
  _atom_site_occupancy
  Cl  Cl1       1.0  0.26900  0.22300  0.00298  1.0000
  Cl  Cl2       1.0  0.23100  0.72300  0.00298  1.0000
  Cl  Cl3       1.0  0.74900  0.03070  0.25000  1.0000
  Cl  Cl4       1.0  0.25100  0.47100  0.25000  1.0000
  Cl  Cl5       1.0  0.75100  0.53100  0.25000  1.0000
  Cl  Cl6       1.0  0.24900  0.97100  0.25000  1.0000
  Cl  Cl7       1.0  0.26900  0.22300  0.49700  1.0000
  Cl  Cl8       1.0  0.23100  0.72300  0.49700  1.0000
  Cl  Cl9       1.0  0.76900  0.27700  0.50300  1.0000
  Cl  Cl10      1.0  0.73100  0.77700  0.50300  1.0000
  Cl  Cl11      1.0  0.75100  0.02940  0.75000  1.0000
  Cl  Cl12      1.0  0.24900  0.46900  0.75000  1.0000
  Cl  Cl13      1.0  0.74900  0.52900  0.75000  1.0000
  Cl  Cl14      1.0  0.25100  0.96900  0.75000  1.0000
  Cl  Cl15      1.0  0.76900  0.27700  0.99700  1.0000
  Cl  Cl16      1.0  0.73100  0.77700  0.99700  1.0000
  Hg  Hg1       1.0  0.26900  0.23400  0.25000  1.0000
  Hg  Hg2       1.0  0.23100  0.73400  0.25000  1.0000
  Hg  Hg3       1.0  0.76900  0.26600  0.75000  1.0000
  Hg  Hg4       1.0  0.73100  0.76600  0.75000  1.0000
  K   K1        1.0  0.00000  0.00000  0.00000  1.0000
  K   K2        1.0  0.50000  0.00000  0.00000  1.0000
  K   K3        1.0  0.00000  0.50000  0.00000  1.0000
  K   K4        1.0  0.50000  0.50000  0.00000  1.0000
  K   K5        1.0  0.00000  0.00000  0.50000  1.0000
  K   K6        1.0  0.50000  0.00000  0.50000  1.0000
  K   K7        1.0  0.00000  0.50000  0.50000  1.0000
  K   K8        1.0  0.50000  0.50000  0.50000  1.0000
