data_image0
_chemical_formula_structural       O12Rb12Tl4
_chemical_formula_sum              "O12 Rb12 Tl4"
_cell_length_a       11.4981
_cell_length_b       7.10957
_cell_length_c       7.81526
_cell_angle_alpha    90
_cell_angle_beta     93.5453
_cell_angle_gamma    90

_space_group_name_H-M_alt    "P 1"
_space_group_IT_number       1

loop_
  _space_group_symop_operation_xyz
  'x, y, z'

loop_
  _atom_site_type_symbol
  _atom_site_label
  _atom_site_symmetry_multiplicity
  _atom_site_fract_x
  _atom_site_fract_y
  _atom_site_fract_z
  _atom_site_occupancy
  O   O1        1.0  0.89300  0.96400  0.11000  1.0000
  O   O2        1.0  0.39300  0.53600  0.11000  1.0000
  O   O3        1.0  0.03730  0.37000  0.26200  1.0000
  O   O4        1.0  0.53700  0.13000  0.26200  1.0000
  O   O5        1.0  0.19700  0.93100  0.31000  1.0000
  O   O6        1.0  0.69700  0.56900  0.31000  1.0000
  O   O7        1.0  0.30300  0.43100  0.69000  1.0000
  O   O8        1.0  0.80300  0.06930  0.69000  1.0000
  O   O9        1.0  0.46300  0.87000  0.73800  1.0000
  O   O10       1.0  0.96300  0.63000  0.73800  1.0000
  O   O11       1.0  0.10700  0.03620  0.89000  1.0000
  O   O12       1.0  0.60700  0.46400  0.89000  1.0000
  Rb  Rb1       1.0  0.65500  0.87200  0.05760  1.0000
  Rb  Rb2       1.0  0.15500  0.62800  0.05760  1.0000
  Rb  Rb3       1.0  0.42600  0.81500  0.36100  1.0000
  Rb  Rb4       1.0  0.92600  0.68500  0.36100  1.0000
  Rb  Rb5       1.0  0.81000  0.20300  0.37000  1.0000
  Rb  Rb6       1.0  0.31000  0.29700  0.37000  1.0000
  Rb  Rb7       1.0  0.19000  0.79700  0.63000  1.0000
  Rb  Rb8       1.0  0.69000  0.70300  0.63000  1.0000
  Rb  Rb9       1.0  0.07440  0.31500  0.63900  1.0000
  Rb  Rb10      1.0  0.57400  0.18500  0.63900  1.0000
  Rb  Rb11      1.0  0.34500  0.12800  0.94200  1.0000
  Rb  Rb12      1.0  0.84500  0.37200  0.94200  1.0000
  Tl  Tl1       1.0  0.07010  0.09500  0.16600  1.0000
  Tl  Tl2       1.0  0.57000  0.40500  0.16600  1.0000
  Tl  Tl3       1.0  0.43000  0.59500  0.83400  1.0000
  Tl  Tl4       1.0  0.93000  0.90500  0.83400  1.0000
