data_image0
_chemical_formula_structural       Cr4Cs8O16
_chemical_formula_sum              "Cr4 Cs8 O16"
_cell_length_a       6.23563
_cell_length_b       11.0354
_cell_length_c       8.31278
_cell_angle_alpha    90
_cell_angle_beta     90
_cell_angle_gamma    90

_space_group_name_H-M_alt    "P 1"
_space_group_IT_number       1

loop_
  _space_group_symop_operation_xyz
  'x, y, z'

loop_
  _atom_site_type_symbol
  _atom_site_label
  _atom_site_symmetry_multiplicity
  _atom_site_fract_x
  _atom_site_fract_y
  _atom_site_fract_z
  _atom_site_occupancy
  Cr  Cr1       1.0  0.75000  0.91800  0.24800  1.0000
  Cr  Cr2       1.0  0.25000  0.41800  0.25200  1.0000
  Cr  Cr3       1.0  0.75000  0.58200  0.74800  1.0000
  Cr  Cr4       1.0  0.25000  0.08240  0.75200  1.0000
  Cs  Cs1       1.0  0.25000  0.81000  0.01720  1.0000
  Cs  Cs2       1.0  0.75000  0.59000  0.17600  1.0000
  Cs  Cs3       1.0  0.25000  0.08980  0.32400  1.0000
  Cs  Cs4       1.0  0.75000  0.31000  0.48300  1.0000
  Cs  Cs5       1.0  0.25000  0.69000  0.51700  1.0000
  Cs  Cs6       1.0  0.75000  0.91000  0.67600  1.0000
  Cs  Cs7       1.0  0.25000  0.41000  0.82400  1.0000
  Cs  Cs8       1.0  0.75000  0.19000  0.98300  1.0000
  O   O1        1.0  0.75000  0.91300  0.04790  1.0000
  O   O2        1.0  0.03210  0.34800  0.18400  1.0000
  O   O3        1.0  0.46800  0.34800  0.18400  1.0000
  O   O4        1.0  0.25000  0.56100  0.19000  1.0000
  O   O5        1.0  0.75000  0.06090  0.31000  1.0000
  O   O6        1.0  0.53200  0.84800  0.31600  1.0000
  O   O7        1.0  0.96800  0.84800  0.31600  1.0000
  O   O8        1.0  0.25000  0.41300  0.45200  1.0000
  O   O9        1.0  0.75000  0.58700  0.54800  1.0000
  O   O10       1.0  0.03210  0.15200  0.68400  1.0000
  O   O11       1.0  0.46800  0.15200  0.68400  1.0000
  O   O12       1.0  0.25000  0.93900  0.69000  1.0000
  O   O13       1.0  0.75000  0.43900  0.81000  1.0000
  O   O14       1.0  0.53200  0.65200  0.81600  1.0000
  O   O15       1.0  0.96800  0.65200  0.81600  1.0000
  O   O16       1.0  0.25000  0.08660  0.95200  1.0000
