data_image0
_chemical_formula_structural       As16Cd8Ge4
_chemical_formula_sum              "As16 Cd8 Ge4"
_cell_length_a       7.32334
_cell_length_b       7.53372
_cell_length_c       12.9025
_cell_angle_alpha    90
_cell_angle_beta     90
_cell_angle_gamma    90

_space_group_name_H-M_alt    "P 1"
_space_group_IT_number       1

loop_
  _space_group_symop_operation_xyz
  'x, y, z'

loop_
  _atom_site_type_symbol
  _atom_site_label
  _atom_site_symmetry_multiplicity
  _atom_site_fract_x
  _atom_site_fract_y
  _atom_site_fract_z
  _atom_site_occupancy
  As  As1       1.0  0.59200  0.75000  0.03980  1.0000
  As  As2       1.0  0.88500  0.25000  0.07710  1.0000
  As  As3       1.0  0.04440  0.01360  0.17400  1.0000
  As  As4       1.0  0.04440  0.48600  0.17400  1.0000
  As  As5       1.0  0.54400  0.01360  0.32600  1.0000
  As  As6       1.0  0.54400  0.48600  0.32600  1.0000
  As  As7       1.0  0.38500  0.25000  0.42300  1.0000
  As  As8       1.0  0.09190  0.75000  0.46000  1.0000
  As  As9       1.0  0.90800  0.25000  0.54000  1.0000
  As  As10      1.0  0.61500  0.75000  0.57700  1.0000
  As  As11      1.0  0.45600  0.51400  0.67400  1.0000
  As  As12      1.0  0.45600  0.98600  0.67400  1.0000
  As  As13      1.0  0.95600  0.51400  0.82600  1.0000
  As  As14      1.0  0.95600  0.98600  0.82600  1.0000
  As  As15      1.0  0.11500  0.75000  0.92300  1.0000
  As  As16      1.0  0.40800  0.25000  0.96000  1.0000
  Cd  Cd1       1.0  0.40700  0.02580  0.13000  1.0000
  Cd  Cd2       1.0  0.40700  0.47400  0.13000  1.0000
  Cd  Cd3       1.0  0.90700  0.02580  0.37000  1.0000
  Cd  Cd4       1.0  0.90700  0.47400  0.37000  1.0000
  Cd  Cd5       1.0  0.09260  0.52600  0.63000  1.0000
  Cd  Cd6       1.0  0.09260  0.97400  0.63000  1.0000
  Cd  Cd7       1.0  0.59300  0.52600  0.87000  1.0000
  Cd  Cd8       1.0  0.59300  0.97400  0.87000  1.0000
  Ge  Ge1       1.0  0.92000  0.75000  0.08180  1.0000
  Ge  Ge2       1.0  0.42000  0.75000  0.41800  1.0000
  Ge  Ge3       1.0  0.58000  0.25000  0.58200  1.0000
  Ge  Ge4       1.0  0.08000  0.25000  0.91800  1.0000
