data_image0
_chemical_formula_structural       Ba12Si16
_chemical_formula_sum              "Ba12 Si16"
_cell_length_a       8.56995
_cell_length_b       8.56995
_cell_length_c       11.9389
_cell_angle_alpha    90
_cell_angle_beta     90
_cell_angle_gamma    90

_space_group_name_H-M_alt    "P 1"
_space_group_IT_number       1

loop_
  _space_group_symop_operation_xyz
  'x, y, z'

loop_
  _atom_site_type_symbol
  _atom_site_label
  _atom_site_symmetry_multiplicity
  _atom_site_fract_x
  _atom_site_fract_y
  _atom_site_fract_z
  _atom_site_occupancy
  Ba  Ba1       1.0  0.33600  0.33600  0.00000  1.0000
  Ba  Ba2       1.0  0.66400  0.66400  0.00000  1.0000
  Ba  Ba3       1.0  0.00000  0.00000  0.16900  1.0000
  Ba  Ba4       1.0  0.50000  0.00000  0.25000  1.0000
  Ba  Ba5       1.0  0.00000  0.50000  0.25000  1.0000
  Ba  Ba6       1.0  0.50000  0.50000  0.33100  1.0000
  Ba  Ba7       1.0  0.83600  0.16400  0.50000  1.0000
  Ba  Ba8       1.0  0.16400  0.83600  0.50000  1.0000
  Ba  Ba9       1.0  0.50000  0.50000  0.66900  1.0000
  Ba  Ba10      1.0  0.50000  0.00000  0.75000  1.0000
  Ba  Ba11      1.0  0.00000  0.50000  0.75000  1.0000
  Ba  Ba12      1.0  0.00000  0.00000  0.83100  1.0000
  Si  Si1       1.0  0.70000  0.10000  0.00000  1.0000
  Si  Si2       1.0  0.90000  0.30000  0.00000  1.0000
  Si  Si3       1.0  0.10000  0.70000  0.00000  1.0000
  Si  Si4       1.0  0.30000  0.90000  0.00000  1.0000
  Si  Si5       1.0  0.69900  0.30100  0.14400  1.0000
  Si  Si6       1.0  0.30100  0.69900  0.14400  1.0000
  Si  Si7       1.0  0.19900  0.19900  0.35600  1.0000
  Si  Si8       1.0  0.80100  0.80100  0.35600  1.0000
  Si  Si9       1.0  0.40000  0.20000  0.50000  1.0000
  Si  Si10      1.0  0.20000  0.40000  0.50000  1.0000
  Si  Si11      1.0  0.80000  0.60000  0.50000  1.0000
  Si  Si12      1.0  0.60000  0.80000  0.50000  1.0000
  Si  Si13      1.0  0.19900  0.19900  0.64400  1.0000
  Si  Si14      1.0  0.80100  0.80100  0.64400  1.0000
  Si  Si15      1.0  0.69900  0.30100  0.85600  1.0000
  Si  Si16      1.0  0.30100  0.69900  0.85600  1.0000
