data_image0
_chemical_formula_structural       Br2Ce6S16Si4
_chemical_formula_sum              "Br2 Ce6 S16 Si4"
_cell_length_a       7.86019
_cell_length_b       8.86647
_cell_length_c       11.0358
_cell_angle_alpha    96.7282
_cell_angle_beta     90
_cell_angle_gamma    116.312

_space_group_name_H-M_alt    "P 1"
_space_group_IT_number       1

loop_
  _space_group_symop_operation_xyz
  'x, y, z'

loop_
  _atom_site_type_symbol
  _atom_site_label
  _atom_site_symmetry_multiplicity
  _atom_site_fract_x
  _atom_site_fract_y
  _atom_site_fract_z
  _atom_site_occupancy
  Br  Br1       1.0  0.00490  0.00000  0.25000  1.0000
  Br  Br2       1.0  0.99500  0.00000  0.75000  1.0000
  Ce  Ce1       1.0  0.31700  0.39100  0.18400  1.0000
  Ce  Ce2       1.0  0.60900  0.00000  0.25000  1.0000
  Ce  Ce3       1.0  0.92600  0.60900  0.31600  1.0000
  Ce  Ce4       1.0  0.07410  0.39100  0.68400  1.0000
  Ce  Ce5       1.0  0.39100  0.00000  0.75000  1.0000
  Ce  Ce6       1.0  0.68300  0.60900  0.81600  1.0000
  S   S1        1.0  0.41300  0.13300  0.04750  1.0000
  S   S2        1.0  0.71000  0.56600  0.08500  1.0000
  S   S3        1.0  0.89300  0.29300  0.14500  1.0000
  S   S4        1.0  0.25700  0.70200  0.15900  1.0000
  S   S5        1.0  0.55400  0.29800  0.34100  1.0000
  S   S6        1.0  0.60000  0.70700  0.35500  1.0000
  S   S7        1.0  0.14500  0.43400  0.41500  1.0000
  S   S8        1.0  0.28000  0.86700  0.45200  1.0000
  S   S9        1.0  0.72000  0.13300  0.54800  1.0000
  S   S10       1.0  0.85500  0.56600  0.58500  1.0000
  S   S11       1.0  0.40000  0.29300  0.64500  1.0000
  S   S12       1.0  0.44600  0.70200  0.65900  1.0000
  S   S13       1.0  0.74300  0.29800  0.84100  1.0000
  S   S14       1.0  0.10700  0.70700  0.85500  1.0000
  S   S15       1.0  0.29000  0.43400  0.91500  1.0000
  S   S16       1.0  0.58700  0.86700  0.95200  1.0000
  Si  Si1       1.0  0.69400  0.32000  0.03000  1.0000
  Si  Si2       1.0  0.37400  0.68000  0.47000  1.0000
  Si  Si3       1.0  0.62600  0.32000  0.53000  1.0000
  Si  Si4       1.0  0.30600  0.68000  0.97000  1.0000
