data_image0
_chemical_formula_structural       Ba12P12Sn4
_chemical_formula_sum              "Ba12 P12 Sn4"
_cell_length_a       8.91107
_cell_length_b       12.879
_cell_length_c       8.69138
_cell_angle_alpha    90
_cell_angle_beta     114.206
_cell_angle_gamma    90

_space_group_name_H-M_alt    "P 1"
_space_group_IT_number       1

loop_
  _space_group_symop_operation_xyz
  'x, y, z'

loop_
  _atom_site_type_symbol
  _atom_site_label
  _atom_site_symmetry_multiplicity
  _atom_site_fract_x
  _atom_site_fract_y
  _atom_site_fract_z
  _atom_site_occupancy
  Ba  Ba1       1.0  0.50400  0.66600  0.00784  1.0000
  Ba  Ba2       1.0  0.05610  0.29500  0.17600  1.0000
  Ba  Ba3       1.0  0.72900  0.06980  0.20000  1.0000
  Ba  Ba4       1.0  0.27100  0.57000  0.30000  1.0000
  Ba  Ba5       1.0  0.94400  0.79500  0.32400  1.0000
  Ba  Ba6       1.0  0.49600  0.16600  0.49200  1.0000
  Ba  Ba7       1.0  0.50400  0.83400  0.50800  1.0000
  Ba  Ba8       1.0  0.05610  0.20500  0.67600  1.0000
  Ba  Ba9       1.0  0.72900  0.43000  0.70000  1.0000
  Ba  Ba10      1.0  0.27100  0.93000  0.80000  1.0000
  Ba  Ba11      1.0  0.94400  0.70500  0.82400  1.0000
  Ba  Ba12      1.0  0.49600  0.33400  0.99200  1.0000
  P   P1        1.0  0.33200  0.13200  0.06630  1.0000
  P   P2        1.0  0.84200  0.53000  0.07930  1.0000
  P   P3        1.0  0.24400  0.80300  0.12600  1.0000
  P   P4        1.0  0.75600  0.30300  0.37400  1.0000
  P   P5        1.0  0.15800  0.02990  0.42100  1.0000
  P   P6        1.0  0.66800  0.63200  0.43400  1.0000
  P   P7        1.0  0.33200  0.36800  0.56600  1.0000
  P   P8        1.0  0.84200  0.97000  0.57900  1.0000
  P   P9        1.0  0.24400  0.69700  0.62600  1.0000
  P   P10       1.0  0.75600  0.19700  0.87400  1.0000
  P   P11       1.0  0.15800  0.47000  0.92100  1.0000
  P   P12       1.0  0.66800  0.86800  0.93400  1.0000
  Sn  Sn1       1.0  0.16500  0.99400  0.13900  1.0000
  Sn  Sn2       1.0  0.83500  0.49400  0.36100  1.0000
  Sn  Sn3       1.0  0.16500  0.50600  0.63900  1.0000
  Sn  Sn4       1.0  0.83500  0.00629  0.86100  1.0000
