data_image0
_chemical_formula_structural       As2F12I2Se12
_chemical_formula_sum              "As2 F12 I2 Se12"
_cell_length_a       10.2632
_cell_length_b       6.71025
_cell_length_c       11.3867
_cell_angle_alpha    90
_cell_angle_beta     131.819
_cell_angle_gamma    90

_space_group_name_H-M_alt    "P 1"
_space_group_IT_number       1

loop_
  _space_group_symop_operation_xyz
  'x, y, z'

loop_
  _atom_site_type_symbol
  _atom_site_label
  _atom_site_symmetry_multiplicity
  _atom_site_fract_x
  _atom_site_fract_y
  _atom_site_fract_z
  _atom_site_occupancy
  As  As1       1.0  0.00000  0.00000  0.00000  1.0000
  As  As2       1.0  0.00000  0.00000  0.50000  1.0000
  F   F1        1.0  0.94200  0.76800  0.03020  1.0000
  F   F2        1.0  0.21400  0.90500  0.10500  1.0000
  F   F3        1.0  0.06370  0.08760  0.17800  1.0000
  F   F4        1.0  0.93600  0.08760  0.32200  1.0000
  F   F5        1.0  0.78600  0.90500  0.39500  1.0000
  F   F6        1.0  0.05770  0.76800  0.47000  1.0000
  F   F7        1.0  0.94200  0.23200  0.53000  1.0000
  F   F8        1.0  0.21400  0.09450  0.60500  1.0000
  F   F9        1.0  0.06370  0.91200  0.67800  1.0000
  F   F10       1.0  0.93600  0.91200  0.82200  1.0000
  F   F11       1.0  0.78600  0.09450  0.89500  1.0000
  F   F12       1.0  0.05770  0.23200  0.97000  1.0000
  I   I1        1.0  0.50000  0.27300  0.25000  1.0000
  I   I2        1.0  0.50000  0.72700  0.75000  1.0000
  Se  Se1       1.0  0.43700  0.76700  0.05770  1.0000
  Se  Se2       1.0  0.67700  0.76100  0.06270  1.0000
  Se  Se3       1.0  0.77900  0.42700  0.15900  1.0000
  Se  Se4       1.0  0.22100  0.42700  0.34100  1.0000
  Se  Se5       1.0  0.32300  0.76100  0.43700  1.0000
  Se  Se6       1.0  0.56300  0.76700  0.44200  1.0000
  Se  Se7       1.0  0.43700  0.23300  0.55800  1.0000
  Se  Se8       1.0  0.67700  0.23900  0.56300  1.0000
  Se  Se9       1.0  0.77900  0.57300  0.65900  1.0000
  Se  Se10      1.0  0.22100  0.57300  0.84100  1.0000
  Se  Se11      1.0  0.32300  0.23900  0.93700  1.0000
  Se  Se12      1.0  0.56300  0.23300  0.94200  1.0000
