data_image0
_chemical_formula_structural       Ag8Mn4O16
_chemical_formula_sum              "Ag8 Mn4 O16"
_cell_length_a       9.68121
_cell_length_b       6.90924
_cell_length_c       5.48977
_cell_angle_alpha    90
_cell_angle_beta     90
_cell_angle_gamma    90

_space_group_name_H-M_alt    "P 1"
_space_group_IT_number       1

loop_
  _space_group_symop_operation_xyz
  'x, y, z'

loop_
  _atom_site_type_symbol
  _atom_site_label
  _atom_site_symmetry_multiplicity
  _atom_site_fract_x
  _atom_site_fract_y
  _atom_site_fract_z
  _atom_site_occupancy
  Ag  Ag1       1.0  0.00000  0.00000  0.00000  1.0000
  Ag  Ag2       1.0  0.00000  0.50000  0.00000  1.0000
  Ag  Ag3       1.0  0.35300  0.75000  0.01120  1.0000
  Ag  Ag4       1.0  0.85300  0.75000  0.48900  1.0000
  Ag  Ag5       1.0  0.50000  0.00000  0.50000  1.0000
  Ag  Ag6       1.0  0.50000  0.50000  0.50000  1.0000
  Ag  Ag7       1.0  0.14700  0.25000  0.51100  1.0000
  Ag  Ag8       1.0  0.64700  0.25000  0.98900  1.0000
  Mn  Mn1       1.0  0.31500  0.25000  0.02570  1.0000
  Mn  Mn2       1.0  0.81500  0.25000  0.47400  1.0000
  Mn  Mn3       1.0  0.18500  0.75000  0.52600  1.0000
  Mn  Mn4       1.0  0.68500  0.75000  0.97400  1.0000
  O   O1        1.0  0.13700  0.25000  0.08590  1.0000
  O   O2        1.0  0.38300  0.04770  0.16500  1.0000
  O   O3        1.0  0.38300  0.45200  0.16500  1.0000
  O   O4        1.0  0.14600  0.75000  0.22500  1.0000
  O   O5        1.0  0.64600  0.75000  0.27500  1.0000
  O   O6        1.0  0.88300  0.04770  0.33500  1.0000
  O   O7        1.0  0.88300  0.45200  0.33500  1.0000
  O   O8        1.0  0.63700  0.25000  0.41400  1.0000
  O   O9        1.0  0.36300  0.75000  0.58600  1.0000
  O   O10       1.0  0.11700  0.54800  0.66500  1.0000
  O   O11       1.0  0.11700  0.95200  0.66500  1.0000
  O   O12       1.0  0.35400  0.25000  0.72500  1.0000
  O   O13       1.0  0.85400  0.25000  0.77500  1.0000
  O   O14       1.0  0.61700  0.54800  0.83500  1.0000
  O   O15       1.0  0.61700  0.95200  0.83500  1.0000
  O   O16       1.0  0.86300  0.75000  0.91400  1.0000
