data_image0
_chemical_formula_structural       B2La6O18W2
_chemical_formula_sum              "B2 La6 O18 W2"
_cell_length_a       8.78509
_cell_length_b       8.78504
_cell_length_c       5.45183
_cell_angle_alpha    90
_cell_angle_beta     90
_cell_angle_gamma    120

_space_group_name_H-M_alt    "P 1"
_space_group_IT_number       1

loop_
  _space_group_symop_operation_xyz
  'x, y, z'

loop_
  _atom_site_type_symbol
  _atom_site_label
  _atom_site_symmetry_multiplicity
  _atom_site_fract_x
  _atom_site_fract_y
  _atom_site_fract_z
  _atom_site_occupancy
  B   B1        1.0  0.00000  0.00000  0.37700  1.0000
  B   B2        1.0  0.00000  0.00000  0.87700  1.0000
  La  La1       1.0  0.72000  0.62900  0.24200  1.0000
  La  La2       1.0  0.90900  0.28000  0.24200  1.0000
  La  La3       1.0  0.37100  0.09100  0.24200  1.0000
  La  La4       1.0  0.09100  0.72000  0.74200  1.0000
  La  La5       1.0  0.28000  0.37100  0.74200  1.0000
  La  La6       1.0  0.62900  0.90900  0.74200  1.0000
  O   O1        1.0  0.16200  0.50200  0.02360  1.0000
  O   O2        1.0  0.49800  0.66100  0.02360  1.0000
  O   O3        1.0  0.33900  0.83800  0.02360  1.0000
  O   O4        1.0  0.04230  0.86700  0.37200  1.0000
  O   O5        1.0  0.13300  0.17500  0.37200  1.0000
  O   O6        1.0  0.82500  0.95800  0.37200  1.0000
  O   O7        1.0  0.15200  0.51200  0.48100  1.0000
  O   O8        1.0  0.48800  0.64000  0.48100  1.0000
  O   O9        1.0  0.36000  0.84800  0.48100  1.0000
  O   O10       1.0  0.66100  0.16200  0.52400  1.0000
  O   O11       1.0  0.50200  0.33900  0.52400  1.0000
  O   O12       1.0  0.83800  0.49800  0.52400  1.0000
  O   O13       1.0  0.17500  0.04230  0.87200  1.0000
  O   O14       1.0  0.95800  0.13300  0.87200  1.0000
  O   O15       1.0  0.86700  0.82500  0.87200  1.0000
  O   O16       1.0  0.84800  0.48800  0.98100  1.0000
  O   O17       1.0  0.64000  0.15200  0.98100  1.0000
  O   O18       1.0  0.51200  0.36000  0.98100  1.0000
  W   W1        1.0  0.33300  0.66700  0.25200  1.0000
  W   W2        1.0  0.66700  0.33300  0.75200  1.0000
