data_image0
_chemical_formula_structural       K8S20
_chemical_formula_sum              "K8 S20"
_cell_length_a       6.53817
_cell_length_b       6.64346
_cell_length_c       17.4443
_cell_angle_alpha    90
_cell_angle_beta     90
_cell_angle_gamma    90

_space_group_name_H-M_alt    "P 1"
_space_group_IT_number       1

loop_
  _space_group_symop_operation_xyz
  'x, y, z'

loop_
  _atom_site_type_symbol
  _atom_site_label
  _atom_site_symmetry_multiplicity
  _atom_site_fract_x
  _atom_site_fract_y
  _atom_site_fract_z
  _atom_site_occupancy
  K   K1        1.0  0.87300  0.58500  0.01140  1.0000
  K   K2        1.0  0.58100  0.23700  0.16500  1.0000
  K   K3        1.0  0.41900  0.73700  0.33500  1.0000
  K   K4        1.0  0.12700  0.08540  0.48900  1.0000
  K   K5        1.0  0.62700  0.41500  0.51100  1.0000
  K   K6        1.0  0.91900  0.76300  0.66500  1.0000
  K   K7        1.0  0.08090  0.26300  0.83500  1.0000
  K   K8        1.0  0.37300  0.91500  0.98900  1.0000
  S   S1        1.0  0.91200  0.08860  0.02710  1.0000
  S   S2        1.0  0.07020  0.13200  0.12800  1.0000
  S   S3        1.0  0.23900  0.65400  0.14700  1.0000
  S   S4        1.0  0.54200  0.73900  0.15500  1.0000
  S   S5        1.0  0.05340  0.87500  0.19700  1.0000
  S   S6        1.0  0.94700  0.37500  0.30300  1.0000
  S   S7        1.0  0.45800  0.23900  0.34500  1.0000
  S   S8        1.0  0.76100  0.15400  0.35300  1.0000
  S   S9        1.0  0.93000  0.63200  0.37200  1.0000
  S   S10       1.0  0.08830  0.58900  0.47300  1.0000
  S   S11       1.0  0.58800  0.91100  0.52700  1.0000
  S   S12       1.0  0.43000  0.86800  0.62800  1.0000
  S   S13       1.0  0.26100  0.34600  0.64700  1.0000
  S   S14       1.0  0.95800  0.26100  0.65500  1.0000
  S   S15       1.0  0.44700  0.12500  0.69700  1.0000
  S   S16       1.0  0.55300  0.62500  0.80300  1.0000
  S   S17       1.0  0.04200  0.76100  0.84500  1.0000
  S   S18       1.0  0.73900  0.84600  0.85300  1.0000
  S   S19       1.0  0.57000  0.36800  0.87200  1.0000
  S   S20       1.0  0.41200  0.41100  0.97300  1.0000
