data_image0
_chemical_formula_structural       K8Se16W4
_chemical_formula_sum              "K8 Se16 W4"
_cell_length_a       9.91811
_cell_length_b       7.26907
_cell_length_c       12.8418
_cell_angle_alpha    90
_cell_angle_beta     90
_cell_angle_gamma    90

_space_group_name_H-M_alt    "P 1"
_space_group_IT_number       1

loop_
  _space_group_symop_operation_xyz
  'x, y, z'

loop_
  _atom_site_type_symbol
  _atom_site_label
  _atom_site_symmetry_multiplicity
  _atom_site_fract_x
  _atom_site_fract_y
  _atom_site_fract_z
  _atom_site_occupancy
  K   K1        1.0  0.34300  0.75000  0.11500  1.0000
  K   K2        1.0  0.95300  0.25000  0.15700  1.0000
  K   K3        1.0  0.45300  0.25000  0.34300  1.0000
  K   K4        1.0  0.84300  0.75000  0.38500  1.0000
  K   K5        1.0  0.15700  0.25000  0.61500  1.0000
  K   K6        1.0  0.54700  0.75000  0.65700  1.0000
  K   K7        1.0  0.04670  0.75000  0.84300  1.0000
  K   K8        1.0  0.65700  0.25000  0.88500  1.0000
  Se  Se1       1.0  0.98300  0.75000  0.11000  1.0000
  Se  Se2       1.0  0.28200  0.25000  0.11300  1.0000
  Se  Se3       1.0  0.64800  0.00786  0.14000  1.0000
  Se  Se4       1.0  0.64800  0.49200  0.14000  1.0000
  Se  Se5       1.0  0.14800  0.00786  0.36000  1.0000
  Se  Se6       1.0  0.14800  0.49200  0.36000  1.0000
  Se  Se7       1.0  0.78200  0.25000  0.38700  1.0000
  Se  Se8       1.0  0.48300  0.75000  0.39000  1.0000
  Se  Se9       1.0  0.51700  0.25000  0.61000  1.0000
  Se  Se10      1.0  0.21800  0.75000  0.61300  1.0000
  Se  Se11      1.0  0.85200  0.50800  0.64000  1.0000
  Se  Se12      1.0  0.85200  0.99200  0.64000  1.0000
  Se  Se13      1.0  0.35200  0.50800  0.86000  1.0000
  Se  Se14      1.0  0.35200  0.99200  0.86000  1.0000
  Se  Se15      1.0  0.71800  0.75000  0.88700  1.0000
  Se  Se16      1.0  0.01720  0.25000  0.89000  1.0000
  W   W1        1.0  0.75200  0.75000  0.06790  1.0000
  W   W2        1.0  0.25200  0.75000  0.43200  1.0000
  W   W3        1.0  0.74800  0.25000  0.56800  1.0000
  W   W4        1.0  0.24800  0.25000  0.93200  1.0000
