data_image0
_chemical_formula_structural       B4Cs2Li10O12
_chemical_formula_sum              "B4 Cs2 Li10 O12"
_cell_length_a       7.48759
_cell_length_b       7.48759
_cell_length_c       7.57389
_cell_angle_alpha    109.944
_cell_angle_beta     116.283
_cell_angle_gamma    101.95

_space_group_name_H-M_alt    "P 1"
_space_group_IT_number       1

loop_
  _space_group_symop_operation_xyz
  'x, y, z'

loop_
  _atom_site_type_symbol
  _atom_site_label
  _atom_site_symmetry_multiplicity
  _atom_site_fract_x
  _atom_site_fract_y
  _atom_site_fract_z
  _atom_site_occupancy
  B   B1        1.0  0.49900  0.83000  0.18900  1.0000
  B   B2        1.0  0.14200  0.31100  0.31100  1.0000
  B   B3        1.0  0.85800  0.68900  0.68900  1.0000
  B   B4        1.0  0.50100  0.17000  0.81100  1.0000
  Cs  Cs1       1.0  0.94300  0.69300  0.25000  1.0000
  Cs  Cs2       1.0  0.05680  0.30700  0.75000  1.0000
  Li  Li1       1.0  0.00000  0.00000  0.00000  1.0000
  Li  Li2       1.0  0.33700  0.07360  0.03910  1.0000
  Li  Li3       1.0  0.49600  0.47200  0.23000  1.0000
  Li  Li4       1.0  0.74200  0.26600  0.27000  1.0000
  Li  Li5       1.0  0.53400  0.29700  0.46100  1.0000
  Li  Li6       1.0  0.50000  0.00000  0.50000  1.0000
  Li  Li7       1.0  0.46600  0.70300  0.53900  1.0000
  Li  Li8       1.0  0.25800  0.73400  0.73000  1.0000
  Li  Li9       1.0  0.50400  0.52800  0.77000  1.0000
  Li  Li10      1.0  0.66300  0.92600  0.96100  1.0000
  O   O1        1.0  0.51200  0.27300  0.00737  1.0000
  O   O2        1.0  0.93000  0.16100  0.20300  1.0000
  O   O3        1.0  0.26000  0.26700  0.21300  1.0000
  O   O4        1.0  0.55400  0.04620  0.28700  1.0000
  O   O5        1.0  0.45800  0.72800  0.29700  1.0000
  O   O6        1.0  0.76600  0.50500  0.49300  1.0000
  O   O7        1.0  0.23400  0.49500  0.50700  1.0000
  O   O8        1.0  0.54200  0.27200  0.70300  1.0000
  O   O9        1.0  0.44600  0.95400  0.71300  1.0000
  O   O10       1.0  0.74000  0.73300  0.78700  1.0000
  O   O11       1.0  0.06970  0.83900  0.79700  1.0000
  O   O12       1.0  0.48800  0.72700  0.99300  1.0000
