data_image0
_chemical_formula_structural       Au4Cl20S4
_chemical_formula_sum              "Au4 Cl20 S4"
_cell_length_a       8.0434
_cell_length_b       12.0173
_cell_length_c       8.2458
_cell_angle_alpha    90
_cell_angle_beta     90
_cell_angle_gamma    101.429

_space_group_name_H-M_alt    "P 1"
_space_group_IT_number       1

loop_
  _space_group_symop_operation_xyz
  'x, y, z'

loop_
  _atom_site_type_symbol
  _atom_site_label
  _atom_site_symmetry_multiplicity
  _atom_site_fract_x
  _atom_site_fract_y
  _atom_site_fract_z
  _atom_site_occupancy
  Au  Au1       1.0  0.06610  0.15600  0.16900  1.0000
  Au  Au2       1.0  0.56600  0.65600  0.33100  1.0000
  Au  Au3       1.0  0.43400  0.34400  0.66900  1.0000
  Au  Au4       1.0  0.93400  0.84400  0.83100  1.0000
  Cl  Cl1       1.0  0.30000  0.54600  0.03060  1.0000
  Cl  Cl2       1.0  0.33800  0.25600  0.11000  1.0000
  Cl  Cl3       1.0  0.15800  0.98300  0.15700  1.0000
  Cl  Cl4       1.0  0.61300  0.12200  0.16600  1.0000
  Cl  Cl5       1.0  0.96900  0.32200  0.19600  1.0000
  Cl  Cl6       1.0  0.46900  0.82200  0.30400  1.0000
  Cl  Cl7       1.0  0.11300  0.62200  0.33400  1.0000
  Cl  Cl8       1.0  0.65800  0.48300  0.34300  1.0000
  Cl  Cl9       1.0  0.83800  0.75600  0.39000  1.0000
  Cl  Cl10      1.0  0.80000  0.04610  0.46900  1.0000
  Cl  Cl11      1.0  0.20000  0.95400  0.53100  1.0000
  Cl  Cl12      1.0  0.16200  0.24400  0.61000  1.0000
  Cl  Cl13      1.0  0.34200  0.51700  0.65700  1.0000
  Cl  Cl14      1.0  0.88700  0.37800  0.66600  1.0000
  Cl  Cl15      1.0  0.53100  0.17800  0.69600  1.0000
  Cl  Cl16      1.0  0.03150  0.67800  0.80400  1.0000
  Cl  Cl17      1.0  0.38700  0.87800  0.83400  1.0000
  Cl  Cl18      1.0  0.84200  0.01710  0.84300  1.0000
  Cl  Cl19      1.0  0.66200  0.74400  0.89000  1.0000
  Cl  Cl20      1.0  0.70000  0.45400  0.96900  1.0000
  S   S1        1.0  0.79800  0.03820  0.22500  1.0000
  S   S2        1.0  0.29800  0.53800  0.27500  1.0000
  S   S3        1.0  0.70200  0.46200  0.72500  1.0000
  S   S4        1.0  0.20200  0.96200  0.77500  1.0000
