data_image0
_chemical_formula_structural       Ge4K8Te16
_chemical_formula_sum              "Ge4 K8 Te16"
_cell_length_a       12.7898
_cell_length_b       8.75098
_cell_length_c       10.2436
_cell_angle_alpha    90
_cell_angle_beta     104.799
_cell_angle_gamma    90

_space_group_name_H-M_alt    "P 1"
_space_group_IT_number       1

loop_
  _space_group_symop_operation_xyz
  'x, y, z'

loop_
  _atom_site_type_symbol
  _atom_site_label
  _atom_site_symmetry_multiplicity
  _atom_site_fract_x
  _atom_site_fract_y
  _atom_site_fract_z
  _atom_site_occupancy
  Ge  Ge1       1.0  0.25800  0.36000  0.03950  1.0000
  Ge  Ge2       1.0  0.74200  0.86000  0.46000  1.0000
  Ge  Ge3       1.0  0.25800  0.14000  0.54000  1.0000
  Ge  Ge4       1.0  0.74200  0.64000  0.96000  1.0000
  K   K1        1.0  0.33900  0.92800  0.19800  1.0000
  K   K2        1.0  0.04400  0.56200  0.21300  1.0000
  K   K3        1.0  0.95600  0.06180  0.28700  1.0000
  K   K4        1.0  0.66100  0.42800  0.30200  1.0000
  K   K5        1.0  0.33900  0.57200  0.69800  1.0000
  K   K6        1.0  0.04400  0.93800  0.71300  1.0000
  K   K7        1.0  0.95600  0.43800  0.78700  1.0000
  K   K8        1.0  0.66100  0.07240  0.80200  1.0000
  Te  Te1       1.0  0.11200  0.15700  0.02580  1.0000
  Te  Te2       1.0  0.79700  0.36200  0.03410  1.0000
  Te  Te3       1.0  0.56900  0.72500  0.04420  1.0000
  Te  Te4       1.0  0.64700  0.96800  0.21600  1.0000
  Te  Te5       1.0  0.35300  0.46800  0.28400  1.0000
  Te  Te6       1.0  0.43100  0.22500  0.45600  1.0000
  Te  Te7       1.0  0.20300  0.86200  0.46600  1.0000
  Te  Te8       1.0  0.88800  0.65700  0.47400  1.0000
  Te  Te9       1.0  0.11200  0.34300  0.52600  1.0000
  Te  Te10      1.0  0.79700  0.13800  0.53400  1.0000
  Te  Te11      1.0  0.56900  0.77500  0.54400  1.0000
  Te  Te12      1.0  0.64700  0.53200  0.71600  1.0000
  Te  Te13      1.0  0.35300  0.03230  0.78400  1.0000
  Te  Te14      1.0  0.43100  0.27500  0.95600  1.0000
  Te  Te15      1.0  0.20300  0.63800  0.96600  1.0000
  Te  Te16      1.0  0.88800  0.84300  0.97400  1.0000
