data_image0
_chemical_formula_structural       Al4Ba4F20
_chemical_formula_sum              "Al4 Ba4 F20"
_cell_length_a       13.4793
_cell_length_b       5.47526
_cell_length_c       4.73575
_cell_angle_alpha    90
_cell_angle_beta     90
_cell_angle_gamma    90

_space_group_name_H-M_alt    "P 1"
_space_group_IT_number       1

loop_
  _space_group_symop_operation_xyz
  'x, y, z'

loop_
  _atom_site_type_symbol
  _atom_site_label
  _atom_site_symmetry_multiplicity
  _atom_site_fract_x
  _atom_site_fract_y
  _atom_site_fract_z
  _atom_site_occupancy
  Al  Al1       1.0  0.16700  0.10400  0.06810  1.0000
  Al  Al2       1.0  0.83300  0.60400  0.43200  1.0000
  Al  Al3       1.0  0.33300  0.89600  0.56800  1.0000
  Al  Al4       1.0  0.66700  0.39600  0.93200  1.0000
  Ba  Ba1       1.0  0.91000  0.09020  0.03570  1.0000
  Ba  Ba2       1.0  0.09020  0.59000  0.46400  1.0000
  Ba  Ba3       1.0  0.59000  0.91000  0.53600  1.0000
  Ba  Ba4       1.0  0.41000  0.41000  0.96400  1.0000
  F   F1        1.0  0.59600  0.65100  0.05820  1.0000
  F   F2        1.0  0.58200  0.18100  0.08410  1.0000
  F   F3        1.0  0.91500  0.59500  0.12600  1.0000
  F   F4        1.0  0.23600  0.35200  0.20900  1.0000
  F   F5        1.0  0.74800  0.39100  0.24600  1.0000
  F   F6        1.0  0.25200  0.89100  0.25400  1.0000
  F   F7        1.0  0.76400  0.85200  0.29100  1.0000
  F   F8        1.0  0.08470  0.09490  0.37400  1.0000
  F   F9        1.0  0.41800  0.68100  0.41600  1.0000
  F   F10       1.0  0.40400  0.15100  0.44200  1.0000
  F   F11       1.0  0.90400  0.34900  0.55800  1.0000
  F   F12       1.0  0.91800  0.81900  0.58400  1.0000
  F   F13       1.0  0.58500  0.40500  0.62600  1.0000
  F   F14       1.0  0.26400  0.64800  0.70900  1.0000
  F   F15       1.0  0.75200  0.60900  0.74600  1.0000
  F   F16       1.0  0.24800  0.10900  0.75400  1.0000
  F   F17       1.0  0.73600  0.14800  0.79100  1.0000
  F   F18       1.0  0.41500  0.90500  0.87400  1.0000
  F   F19       1.0  0.08160  0.31900  0.91600  1.0000
  F   F20       1.0  0.09610  0.84900  0.94200  1.0000
