data_image0
_chemical_formula_structural       Ba4F20Mn4
_chemical_formula_sum              "Ba4 F20 Mn4"
_cell_length_a       13.8729
_cell_length_b       5.66847
_cell_length_c       4.70336
_cell_angle_alpha    90
_cell_angle_beta     90
_cell_angle_gamma    90

_space_group_name_H-M_alt    "P 1"
_space_group_IT_number       1

loop_
  _space_group_symop_operation_xyz
  'x, y, z'

loop_
  _atom_site_type_symbol
  _atom_site_label
  _atom_site_symmetry_multiplicity
  _atom_site_fract_x
  _atom_site_fract_y
  _atom_site_fract_z
  _atom_site_occupancy
  Ba  Ba1       1.0  0.08870  0.12200  0.02560  1.0000
  Ba  Ba2       1.0  0.91100  0.62200  0.47400  1.0000
  Ba  Ba3       1.0  0.41100  0.87800  0.52600  1.0000
  Ba  Ba4       1.0  0.58900  0.37800  0.97400  1.0000
  F   F1        1.0  0.41200  0.61100  0.04820  1.0000
  F   F2        1.0  0.42700  0.11600  0.05300  1.0000
  F   F3        1.0  0.08480  0.62900  0.09110  1.0000
  F   F4        1.0  0.25000  0.37300  0.21800  1.0000
  F   F5        1.0  0.24100  0.86700  0.24500  1.0000
  F   F6        1.0  0.75900  0.36700  0.25500  1.0000
  F   F7        1.0  0.75000  0.87300  0.28200  1.0000
  F   F8        1.0  0.91500  0.12900  0.40900  1.0000
  F   F9        1.0  0.57300  0.61600  0.44700  1.0000
  F   F10       1.0  0.58800  0.11100  0.45200  1.0000
  F   F11       1.0  0.08810  0.38900  0.54800  1.0000
  F   F12       1.0  0.07290  0.88400  0.55300  1.0000
  F   F13       1.0  0.41500  0.37100  0.59100  1.0000
  F   F14       1.0  0.25000  0.62700  0.71800  1.0000
  F   F15       1.0  0.25900  0.13300  0.74500  1.0000
  F   F16       1.0  0.74100  0.63300  0.75500  1.0000
  F   F17       1.0  0.75000  0.12700  0.78200  1.0000
  F   F18       1.0  0.58500  0.87100  0.90900  1.0000
  F   F19       1.0  0.92700  0.38400  0.94700  1.0000
  F   F20       1.0  0.91200  0.88900  0.95200  1.0000
  Mn  Mn1       1.0  0.83500  0.13500  0.09070  1.0000
  Mn  Mn2       1.0  0.16500  0.63500  0.40900  1.0000
  Mn  Mn3       1.0  0.66500  0.86500  0.59100  1.0000
  Mn  Mn4       1.0  0.33500  0.36500  0.90900  1.0000
