data_image0
_chemical_formula_structural       Hg8N4O16
_chemical_formula_sum              "Hg8 N4 O16"
_cell_length_a       5.53702
_cell_length_b       6.64413
_cell_length_c       11.5091
_cell_angle_alpha    90
_cell_angle_beta     100.077
_cell_angle_gamma    90

_space_group_name_H-M_alt    "P 1"
_space_group_IT_number       1

loop_
  _space_group_symop_operation_xyz
  'x, y, z'

loop_
  _atom_site_type_symbol
  _atom_site_label
  _atom_site_symmetry_multiplicity
  _atom_site_fract_x
  _atom_site_fract_y
  _atom_site_fract_z
  _atom_site_occupancy
  Hg  Hg1       1.0  0.32000  0.01220  0.05560  1.0000
  Hg  Hg2       1.0  0.99800  0.31200  0.23800  1.0000
  Hg  Hg3       1.0  0.00176  0.81200  0.26200  1.0000
  Hg  Hg4       1.0  0.68000  0.51200  0.44400  1.0000
  Hg  Hg5       1.0  0.32000  0.48800  0.55600  1.0000
  Hg  Hg6       1.0  0.99800  0.18800  0.73800  1.0000
  Hg  Hg7       1.0  0.00176  0.68800  0.76200  1.0000
  Hg  Hg8       1.0  0.68000  0.98800  0.94400  1.0000
  N   N1        1.0  0.45200  0.51900  0.13600  1.0000
  N   N2        1.0  0.54800  0.01920  0.36400  1.0000
  N   N3        1.0  0.45200  0.98100  0.63600  1.0000
  N   N4        1.0  0.54800  0.48100  0.86400  1.0000
  O   O1        1.0  0.24100  0.59500  0.10300  1.0000
  O   O2        1.0  0.64000  0.59200  0.10500  1.0000
  O   O3        1.0  0.00011  0.04780  0.14100  1.0000
  O   O4        1.0  0.47400  0.36400  0.20400  1.0000
  O   O5        1.0  0.52600  0.86400  0.29600  1.0000
  O   O6        1.0  0.00000  0.54800  0.35900  1.0000
  O   O7        1.0  0.36000  0.09160  0.39500  1.0000
  O   O8        1.0  0.75900  0.09470  0.39700  1.0000
  O   O9        1.0  0.24100  0.90500  0.60300  1.0000
  O   O10       1.0  0.64000  0.90800  0.60500  1.0000
  O   O11       1.0  0.00011  0.45200  0.64100  1.0000
  O   O12       1.0  0.47400  0.13600  0.70400  1.0000
  O   O13       1.0  0.52600  0.63600  0.79600  1.0000
  O   O14       1.0  0.00000  0.95200  0.85900  1.0000
  O   O15       1.0  0.36000  0.40800  0.89500  1.0000
  O   O16       1.0  0.75900  0.40500  0.89700  1.0000
