data_image0
_chemical_formula_structural       Cl18K4Ta6
_chemical_formula_sum              "Cl18 K4 Ta6"
_cell_length_a       9.53915
_cell_length_b       9.71655
_cell_length_c       9.71655
_cell_angle_alpha    117.626
_cell_angle_beta     102.675
_cell_angle_gamma    102.675

_space_group_name_H-M_alt    "P 1"
_space_group_IT_number       1

loop_
  _space_group_symop_operation_xyz
  'x, y, z'

loop_
  _atom_site_type_symbol
  _atom_site_label
  _atom_site_symmetry_multiplicity
  _atom_site_fract_x
  _atom_site_fract_y
  _atom_site_fract_z
  _atom_site_occupancy
  Cl  Cl1       1.0  0.17900  0.87600  0.08460  1.0000
  Cl  Cl2       1.0  0.82300  0.50500  0.11000  1.0000
  Cl  Cl3       1.0  0.82100  0.91500  0.12400  1.0000
  Cl  Cl4       1.0  0.51200  0.40700  0.19700  1.0000
  Cl  Cl5       1.0  0.50000  0.79200  0.20800  1.0000
  Cl  Cl6       1.0  0.20800  0.26900  0.26900  1.0000
  Cl  Cl7       1.0  0.83400  0.32400  0.32400  1.0000
  Cl  Cl8       1.0  0.51200  0.19700  0.40700  1.0000
  Cl  Cl9       1.0  0.17700  0.89000  0.49500  1.0000
  Cl  Cl10      1.0  0.82300  0.11000  0.50500  1.0000
  Cl  Cl11      1.0  0.48800  0.80300  0.59300  1.0000
  Cl  Cl12      1.0  0.16600  0.67600  0.67600  1.0000
  Cl  Cl13      1.0  0.79200  0.73100  0.73100  1.0000
  Cl  Cl14      1.0  0.50000  0.20800  0.79200  1.0000
  Cl  Cl15      1.0  0.48800  0.59300  0.80300  1.0000
  Cl  Cl16      1.0  0.17900  0.08460  0.87600  1.0000
  Cl  Cl17      1.0  0.17700  0.49500  0.89000  1.0000
  Cl  Cl18      1.0  0.82100  0.12400  0.91500  1.0000
  K   K1        1.0  0.17600  0.55200  0.23000  1.0000
  K   K2        1.0  0.82400  0.77000  0.44800  1.0000
  K   K3        1.0  0.17600  0.23000  0.55200  1.0000
  K   K4        1.0  0.82400  0.44800  0.77000  1.0000
  Ta  Ta1       1.0  0.64100  0.22200  0.04770  1.0000
  Ta  Ta2       1.0  0.37000  0.11900  0.11900  1.0000
  Ta  Ta3       1.0  0.64100  0.04770  0.22200  1.0000
  Ta  Ta4       1.0  0.35900  0.95200  0.77800  1.0000
  Ta  Ta5       1.0  0.63000  0.88100  0.88100  1.0000
  Ta  Ta6       1.0  0.35900  0.77800  0.95200  1.0000
