data_image0
_chemical_formula_structural       Na8S20
_chemical_formula_sum              "Na8 S20"
_cell_length_a       7.6884
_cell_length_b       14.5635
_cell_length_c       5.83906
_cell_angle_alpha    90
_cell_angle_beta     90
_cell_angle_gamma    90

_space_group_name_H-M_alt    "P 1"
_space_group_IT_number       1

loop_
  _space_group_symop_operation_xyz
  'x, y, z'

loop_
  _atom_site_type_symbol
  _atom_site_label
  _atom_site_symmetry_multiplicity
  _atom_site_fract_x
  _atom_site_fract_y
  _atom_site_fract_z
  _atom_site_occupancy
  Na  Na1       1.0  0.00000  0.00000  0.00000  1.0000
  Na  Na2       1.0  0.00000  0.50000  0.00000  1.0000
  Na  Na3       1.0  0.94700  0.75000  0.19900  1.0000
  Na  Na4       1.0  0.44700  0.75000  0.30100  1.0000
  Na  Na5       1.0  0.50000  0.00000  0.50000  1.0000
  Na  Na6       1.0  0.50000  0.50000  0.50000  1.0000
  Na  Na7       1.0  0.55300  0.25000  0.69900  1.0000
  Na  Na8       1.0  0.05320  0.25000  0.80100  1.0000
  S   S1        1.0  0.45700  0.13400  0.10900  1.0000
  S   S2        1.0  0.45700  0.36600  0.10900  1.0000
  S   S3        1.0  0.70300  0.60200  0.16500  1.0000
  S   S4        1.0  0.70300  0.89800  0.16500  1.0000
  S   S5        1.0  0.85600  0.25000  0.23000  1.0000
  S   S6        1.0  0.35600  0.25000  0.27000  1.0000
  S   S7        1.0  0.20300  0.60200  0.33500  1.0000
  S   S8        1.0  0.20300  0.89800  0.33500  1.0000
  S   S9        1.0  0.95700  0.13400  0.39100  1.0000
  S   S10       1.0  0.95700  0.36600  0.39100  1.0000
  S   S11       1.0  0.04310  0.63400  0.60900  1.0000
  S   S12       1.0  0.04310  0.86600  0.60900  1.0000
  S   S13       1.0  0.79700  0.10200  0.66500  1.0000
  S   S14       1.0  0.79700  0.39800  0.66500  1.0000
  S   S15       1.0  0.64400  0.75000  0.73000  1.0000
  S   S16       1.0  0.14400  0.75000  0.77000  1.0000
  S   S17       1.0  0.29700  0.10200  0.83500  1.0000
  S   S18       1.0  0.29700  0.39800  0.83500  1.0000
  S   S19       1.0  0.54300  0.63400  0.89100  1.0000
  S   S20       1.0  0.54300  0.86600  0.89100  1.0000
