data_image0
_chemical_formula_structural       O16Sr4Tl4V4
_chemical_formula_sum              "O16 Sr4 Tl4 V4"
_cell_length_a       5.85422
_cell_length_b       7.53464
_cell_length_c       9.98904
_cell_angle_alpha    90
_cell_angle_beta     90
_cell_angle_gamma    90

_space_group_name_H-M_alt    "P 1"
_space_group_IT_number       1

loop_
  _space_group_symop_operation_xyz
  'x, y, z'

loop_
  _atom_site_type_symbol
  _atom_site_label
  _atom_site_symmetry_multiplicity
  _atom_site_fract_x
  _atom_site_fract_y
  _atom_site_fract_z
  _atom_site_occupancy
  O   O1        1.0  0.93300  0.75400  0.06550  1.0000
  O   O2        1.0  0.49900  0.05400  0.08010  1.0000
  O   O3        1.0  0.24300  0.48700  0.16500  1.0000
  O   O4        1.0  0.75200  0.44700  0.16900  1.0000
  O   O5        1.0  0.24800  0.94700  0.33100  1.0000
  O   O6        1.0  0.75700  0.98700  0.33500  1.0000
  O   O7        1.0  0.50100  0.55400  0.42000  1.0000
  O   O8        1.0  0.06680  0.25400  0.43400  1.0000
  O   O9        1.0  0.56700  0.24600  0.56600  1.0000
  O   O10       1.0  0.00093  0.94600  0.58000  1.0000
  O   O11       1.0  0.25700  0.51300  0.66500  1.0000
  O   O12       1.0  0.74800  0.55300  0.66900  1.0000
  O   O13       1.0  0.25200  0.05260  0.83100  1.0000
  O   O14       1.0  0.74300  0.01280  0.83500  1.0000
  O   O15       1.0  0.99900  0.44600  0.92000  1.0000
  O   O16       1.0  0.43300  0.74600  0.93400  1.0000
  Sr  Sr1       1.0  0.52400  0.74800  0.20300  1.0000
  Sr  Sr2       1.0  0.47600  0.24800  0.29700  1.0000
  Sr  Sr3       1.0  0.97600  0.25200  0.70300  1.0000
  Sr  Sr4       1.0  0.02410  0.75200  0.79700  1.0000
  Tl  Tl1       1.0  0.98400  0.09090  0.07910  1.0000
  Tl  Tl2       1.0  0.01630  0.59100  0.42100  1.0000
  Tl  Tl3       1.0  0.51600  0.90900  0.57900  1.0000
  Tl  Tl4       1.0  0.48400  0.40900  0.92100  1.0000
  V   V1        1.0  0.98600  0.53000  0.08230  1.0000
  V   V2        1.0  0.01360  0.02970  0.41800  1.0000
  V   V3        1.0  0.51400  0.47000  0.58200  1.0000
  V   V4        1.0  0.48600  0.97000  0.91800  1.0000
