data_image0
_chemical_formula_structural       Ba4Cr4F20
_chemical_formula_sum              "Ba4 Cr4 F20"
_cell_length_a       13.6921
_cell_length_b       5.58154
_cell_length_c       4.75459
_cell_angle_alpha    90
_cell_angle_beta     90
_cell_angle_gamma    90

_space_group_name_H-M_alt    "P 1"
_space_group_IT_number       1

loop_
  _space_group_symop_operation_xyz
  'x, y, z'

loop_
  _atom_site_type_symbol
  _atom_site_label
  _atom_site_symmetry_multiplicity
  _atom_site_fract_x
  _atom_site_fract_y
  _atom_site_fract_z
  _atom_site_occupancy
  Ba  Ba1       1.0  0.09080  0.09060  0.03450  1.0000
  Ba  Ba2       1.0  0.90900  0.59100  0.46600  1.0000
  Ba  Ba3       1.0  0.40900  0.90900  0.53400  1.0000
  Ba  Ba4       1.0  0.59100  0.40900  0.96600  1.0000
  Cr  Cr1       1.0  0.83400  0.10400  0.07430  1.0000
  Cr  Cr2       1.0  0.16600  0.60400  0.42600  1.0000
  Cr  Cr3       1.0  0.66600  0.89600  0.57400  1.0000
  Cr  Cr4       1.0  0.33400  0.39600  0.92600  1.0000
  F   F1        1.0  0.41500  0.65000  0.05900  1.0000
  F   F2        1.0  0.42200  0.16400  0.06640  1.0000
  F   F3        1.0  0.08380  0.59400  0.10700  1.0000
  F   F4        1.0  0.75900  0.35600  0.23000  1.0000
  F   F5        1.0  0.74900  0.86700  0.24400  1.0000
  F   F6        1.0  0.25100  0.36700  0.25600  1.0000
  F   F7        1.0  0.24100  0.85600  0.27000  1.0000
  F   F8        1.0  0.91600  0.09390  0.39300  1.0000
  F   F9        1.0  0.57800  0.66400  0.43400  1.0000
  F   F10       1.0  0.58500  0.15000  0.44100  1.0000
  F   F11       1.0  0.08550  0.35000  0.55900  1.0000
  F   F12       1.0  0.07800  0.83600  0.56600  1.0000
  F   F13       1.0  0.41600  0.40600  0.60700  1.0000
  F   F14       1.0  0.74100  0.64400  0.73000  1.0000
  F   F15       1.0  0.75100  0.13300  0.74400  1.0000
  F   F16       1.0  0.24900  0.63300  0.75600  1.0000
  F   F17       1.0  0.25900  0.14400  0.77000  1.0000
  F   F18       1.0  0.58400  0.90600  0.89300  1.0000
  F   F19       1.0  0.92200  0.33600  0.93400  1.0000
  F   F20       1.0  0.91500  0.85000  0.94100  1.0000
