data_image0
_chemical_formula_structural       Cl8O8Pb12
_chemical_formula_sum              "Cl8 O8 Pb12"
_cell_length_a       11.8404
_cell_length_b       5.9016
_cell_length_c       9.55679
_cell_angle_alpha    90
_cell_angle_beta     90
_cell_angle_gamma    90

_space_group_name_H-M_alt    "P 1"
_space_group_IT_number       1

loop_
  _space_group_symop_operation_xyz
  'x, y, z'

loop_
  _atom_site_type_symbol
  _atom_site_label
  _atom_site_symmetry_multiplicity
  _atom_site_fract_x
  _atom_site_fract_y
  _atom_site_fract_z
  _atom_site_occupancy
  Cl  Cl1       1.0  0.36600  0.25000  0.07820  1.0000
  Cl  Cl2       1.0  0.18900  0.75000  0.19100  1.0000
  Cl  Cl3       1.0  0.68900  0.75000  0.30900  1.0000
  Cl  Cl4       1.0  0.86600  0.25000  0.42200  1.0000
  Cl  Cl5       1.0  0.13400  0.75000  0.57800  1.0000
  Cl  Cl6       1.0  0.31100  0.25000  0.69100  1.0000
  Cl  Cl7       1.0  0.81100  0.25000  0.80900  1.0000
  Cl  Cl8       1.0  0.63400  0.75000  0.92200  1.0000
  O   O1        1.0  0.92000  0.50500  0.11500  1.0000
  O   O2        1.0  0.92000  0.99500  0.11500  1.0000
  O   O3        1.0  0.42000  0.50500  0.38500  1.0000
  O   O4        1.0  0.42000  0.99500  0.38500  1.0000
  O   O5        1.0  0.58000  0.00476  0.61500  1.0000
  O   O6        1.0  0.58000  0.49500  0.61500  1.0000
  O   O7        1.0  0.07980  0.00476  0.88500  1.0000
  O   O8        1.0  0.07980  0.49500  0.88500  1.0000
  Pb  Pb1       1.0  0.08250  0.25000  0.08130  1.0000
  Pb  Pb2       1.0  0.78000  0.25000  0.13500  1.0000
  Pb  Pb3       1.0  0.43900  0.75000  0.20000  1.0000
  Pb  Pb4       1.0  0.93900  0.75000  0.30000  1.0000
  Pb  Pb5       1.0  0.28000  0.25000  0.36500  1.0000
  Pb  Pb6       1.0  0.58300  0.25000  0.41900  1.0000
  Pb  Pb7       1.0  0.41700  0.75000  0.58100  1.0000
  Pb  Pb8       1.0  0.72000  0.75000  0.63500  1.0000
  Pb  Pb9       1.0  0.06110  0.25000  0.70000  1.0000
  Pb  Pb10      1.0  0.56100  0.25000  0.80000  1.0000
  Pb  Pb11      1.0  0.22000  0.75000  0.86500  1.0000
  Pb  Pb12      1.0  0.91700  0.75000  0.91900  1.0000
