data_image0
_chemical_formula_structural       Ba8S16Si4
_chemical_formula_sum              "Ba8 S16 Si4"
_cell_length_a       8.98675
_cell_length_b       6.8116
_cell_length_c       12.2721
_cell_angle_alpha    90
_cell_angle_beta     90
_cell_angle_gamma    90

_space_group_name_H-M_alt    "P 1"
_space_group_IT_number       1

loop_
  _space_group_symop_operation_xyz
  'x, y, z'

loop_
  _atom_site_type_symbol
  _atom_site_label
  _atom_site_symmetry_multiplicity
  _atom_site_fract_x
  _atom_site_fract_y
  _atom_site_fract_z
  _atom_site_occupancy
  Ba  Ba1       1.0  0.13000  0.25000  0.08170  1.0000
  Ba  Ba2       1.0  0.51800  0.75000  0.17000  1.0000
  Ba  Ba3       1.0  0.01840  0.75000  0.33000  1.0000
  Ba  Ba4       1.0  0.63000  0.25000  0.41800  1.0000
  Ba  Ba5       1.0  0.37000  0.75000  0.58200  1.0000
  Ba  Ba6       1.0  0.98200  0.25000  0.67000  1.0000
  Ba  Ba7       1.0  0.48200  0.25000  0.83000  1.0000
  Ba  Ba8       1.0  0.87000  0.75000  0.91800  1.0000
  S   S1        1.0  0.18900  0.75000  0.08870  1.0000
  S   S2        1.0  0.49600  0.25000  0.09440  1.0000
  S   S3        1.0  0.82400  0.50500  0.14700  1.0000
  S   S4        1.0  0.82400  0.99500  0.14700  1.0000
  S   S5        1.0  0.32400  0.50500  0.35300  1.0000
  S   S6        1.0  0.32400  0.99500  0.35300  1.0000
  S   S7        1.0  0.99600  0.25000  0.40600  1.0000
  S   S8        1.0  0.68900  0.75000  0.41100  1.0000
  S   S9        1.0  0.31100  0.25000  0.58900  1.0000
  S   S10       1.0  0.00383  0.75000  0.59400  1.0000
  S   S11       1.0  0.67600  0.00542  0.64700  1.0000
  S   S12       1.0  0.67600  0.49500  0.64700  1.0000
  S   S13       1.0  0.17600  0.00542  0.85300  1.0000
  S   S14       1.0  0.17600  0.49500  0.85300  1.0000
  S   S15       1.0  0.50400  0.75000  0.90600  1.0000
  S   S16       1.0  0.81100  0.25000  0.91100  1.0000
  Si  Si1       1.0  0.73100  0.25000  0.07590  1.0000
  Si  Si2       1.0  0.23100  0.25000  0.42400  1.0000
  Si  Si3       1.0  0.76900  0.75000  0.57600  1.0000
  Si  Si4       1.0  0.26900  0.75000  0.92400  1.0000
