data_image0
_chemical_formula_structural       Cu8O16Se4
_chemical_formula_sum              "Cu8 O16 Se4"
_cell_length_a       6.96949
_cell_length_b       5.92479
_cell_length_c       8.29411
_cell_angle_alpha    90
_cell_angle_beta     92.3187
_cell_angle_gamma    90

_space_group_name_H-M_alt    "P 1"
_space_group_IT_number       1

loop_
  _space_group_symop_operation_xyz
  'x, y, z'

loop_
  _atom_site_type_symbol
  _atom_site_label
  _atom_site_symmetry_multiplicity
  _atom_site_fract_x
  _atom_site_fract_y
  _atom_site_fract_z
  _atom_site_occupancy
  Cu  Cu1       1.0  0.00000  0.00000  0.00000  1.0000
  Cu  Cu2       1.0  0.50000  0.00000  0.00000  1.0000
  Cu  Cu3       1.0  0.75100  0.30100  0.24300  1.0000
  Cu  Cu4       1.0  0.74900  0.80100  0.25700  1.0000
  Cu  Cu5       1.0  0.50000  0.50000  0.50000  1.0000
  Cu  Cu6       1.0  0.00000  0.50000  0.50000  1.0000
  Cu  Cu7       1.0  0.25100  0.19900  0.74300  1.0000
  Cu  Cu8       1.0  0.24900  0.69900  0.75700  1.0000
  O   O1        1.0  0.75300  0.04300  0.09370  1.0000
  O   O2        1.0  0.68300  0.56800  0.09960  1.0000
  O   O3        1.0  0.05290  0.28200  0.10800  1.0000
  O   O4        1.0  0.42400  0.20500  0.17000  1.0000
  O   O5        1.0  0.07630  0.70500  0.33000  1.0000
  O   O6        1.0  0.44700  0.78200  0.39200  1.0000
  O   O7        1.0  0.81700  0.06750  0.40000  1.0000
  O   O8        1.0  0.74700  0.54300  0.40600  1.0000
  O   O9        1.0  0.25300  0.45700  0.59400  1.0000
  O   O10       1.0  0.18300  0.93200  0.60000  1.0000
  O   O11       1.0  0.55300  0.21800  0.60800  1.0000
  O   O12       1.0  0.92400  0.29500  0.67000  1.0000
  O   O13       1.0  0.57600  0.79500  0.83000  1.0000
  O   O14       1.0  0.94700  0.71800  0.89200  1.0000
  O   O15       1.0  0.31700  0.43200  0.90000  1.0000
  O   O16       1.0  0.24700  0.95700  0.90600  1.0000
  Se  Se1       1.0  0.27000  0.42200  0.10700  1.0000
  Se  Se2       1.0  0.23000  0.92200  0.39300  1.0000
  Se  Se3       1.0  0.77000  0.07850  0.60700  1.0000
  Se  Se4       1.0  0.73000  0.57800  0.89300  1.0000
