data_image0
_chemical_formula_structural       Ba3O18Ta6
_chemical_formula_sum              "Ba3 O18 Ta6"
_cell_length_a       9.35156
_cell_length_b       9.35156
_cell_length_c       7.02807
_cell_angle_alpha    90
_cell_angle_beta     90
_cell_angle_gamma    120

_space_group_name_H-M_alt    "P 1"
_space_group_IT_number       1

loop_
  _space_group_symop_operation_xyz
  'x, y, z'

loop_
  _atom_site_type_symbol
  _atom_site_label
  _atom_site_symmetry_multiplicity
  _atom_site_fract_x
  _atom_site_fract_y
  _atom_site_fract_z
  _atom_site_occupancy
  Ba  Ba1       1.0  0.57600  0.00000  0.50000  1.0000
  Ba  Ba2       1.0  0.42400  0.42400  0.50000  1.0000
  Ba  Ba3       1.0  0.00000  0.57600  0.50000  1.0000
  O   O1        1.0  0.17500  0.00000  0.00000  1.0000
  O   O2        1.0  0.00000  0.17500  0.00000  1.0000
  O   O3        1.0  0.82500  0.82500  0.00000  1.0000
  O   O4        1.0  0.45900  0.17500  0.28700  1.0000
  O   O5        1.0  0.82500  0.28400  0.28700  1.0000
  O   O6        1.0  0.17500  0.45900  0.28700  1.0000
  O   O7        1.0  0.71600  0.54100  0.28700  1.0000
  O   O8        1.0  0.54100  0.71600  0.28700  1.0000
  O   O9        1.0  0.28400  0.82500  0.28700  1.0000
  O   O10       1.0  0.15900  0.00000  0.50000  1.0000
  O   O11       1.0  0.00000  0.15900  0.50000  1.0000
  O   O12       1.0  0.84100  0.84100  0.50000  1.0000
  O   O13       1.0  0.45900  0.17500  0.71300  1.0000
  O   O14       1.0  0.82500  0.28400  0.71300  1.0000
  O   O15       1.0  0.17500  0.45900  0.71300  1.0000
  O   O16       1.0  0.71600  0.54100  0.71300  1.0000
  O   O17       1.0  0.54100  0.71600  0.71300  1.0000
  O   O18       1.0  0.28400  0.82500  0.71300  1.0000
  Ta  Ta1       1.0  0.25700  0.00000  0.25400  1.0000
  Ta  Ta2       1.0  0.00000  0.25700  0.25400  1.0000
  Ta  Ta3       1.0  0.74300  0.74300  0.25400  1.0000
  Ta  Ta4       1.0  0.25700  0.00000  0.74600  1.0000
  Ta  Ta5       1.0  0.00000  0.25700  0.74600  1.0000
  Ta  Ta6       1.0  0.74300  0.74300  0.74600  1.0000
