data_image0
_chemical_formula_structural       C4Cl12Gd12
_chemical_formula_sum              "C4 Cl12 Gd12"
_cell_length_a       9.35269
_cell_length_b       9.35269
_cell_length_c       9.35269
_cell_angle_alpha    109.471
_cell_angle_beta     109.471
_cell_angle_gamma    109.471

_space_group_name_H-M_alt    "P 1"
_space_group_IT_number       1

loop_
  _space_group_symop_operation_xyz
  'x, y, z'

loop_
  _atom_site_type_symbol
  _atom_site_label
  _atom_site_symmetry_multiplicity
  _atom_site_fract_x
  _atom_site_fract_y
  _atom_site_fract_z
  _atom_site_occupancy
  C   C1        1.0  0.75000  0.00000  0.00000  1.0000
  C   C2        1.0  0.75000  0.75000  0.25000  1.0000
  C   C3        1.0  0.00000  0.50000  0.25000  1.0000
  C   C4        1.0  0.50000  0.75000  0.50000  1.0000
  Cl  Cl1       1.0  0.49300  0.00660  0.25000  1.0000
  Cl  Cl2       1.0  0.25700  0.24300  0.25000  1.0000
  Cl  Cl3       1.0  0.75000  0.49300  0.50700  1.0000
  Cl  Cl4       1.0  0.25700  0.01320  0.50700  1.0000
  Cl  Cl5       1.0  0.00660  0.25700  0.51300  1.0000
  Cl  Cl6       1.0  0.75000  0.25700  0.74300  1.0000
  Cl  Cl7       1.0  0.49300  0.48700  0.74300  1.0000
  Cl  Cl8       1.0  0.01320  0.00660  0.75700  1.0000
  Cl  Cl9       1.0  0.24300  0.75000  0.75700  1.0000
  Cl  Cl10      1.0  0.24300  0.49300  0.98700  1.0000
  Cl  Cl11      1.0  0.48700  0.24300  0.99300  1.0000
  Cl  Cl12      1.0  0.00660  0.75000  0.99300  1.0000
  Gd  Gd1       1.0  0.53500  0.76800  0.01770  1.0000
  Gd  Gd2       1.0  0.98200  0.25000  0.01770  1.0000
  Gd  Gd3       1.0  0.76800  0.51800  0.03540  1.0000
  Gd  Gd4       1.0  0.96500  0.98200  0.23200  1.0000
  Gd  Gd5       1.0  0.76800  0.25000  0.23200  1.0000
  Gd  Gd6       1.0  0.51800  0.53500  0.26800  1.0000
  Gd  Gd7       1.0  0.25000  0.73200  0.26800  1.0000
  Gd  Gd8       1.0  0.98200  0.73200  0.46500  1.0000
  Gd  Gd9       1.0  0.73200  0.96500  0.48200  1.0000
  Gd  Gd10      1.0  0.25000  0.51800  0.48200  1.0000
  Gd  Gd11      1.0  0.51800  0.98200  0.75000  1.0000
  Gd  Gd12      1.0  0.73200  0.76800  0.75000  1.0000
