data_image0
_chemical_formula_structural       S16Sc8Sr4
_chemical_formula_sum              "S16 Sc8 Sr4"
_cell_length_a       11.6915
_cell_length_b       13.7094
_cell_length_c       3.79745
_cell_angle_alpha    90
_cell_angle_beta     90
_cell_angle_gamma    90

_space_group_name_H-M_alt    "P 1"
_space_group_IT_number       1

loop_
  _space_group_symop_operation_xyz
  'x, y, z'

loop_
  _atom_site_type_symbol
  _atom_site_label
  _atom_site_symmetry_multiplicity
  _atom_site_fract_x
  _atom_site_fract_y
  _atom_site_fract_z
  _atom_site_occupancy
  S   S1        1.0  0.62300  0.02700  0.25000  1.0000
  S   S2        1.0  0.91300  0.07500  0.25000  1.0000
  S   S3        1.0  0.20400  0.16000  0.25000  1.0000
  S   S4        1.0  0.70400  0.34000  0.25000  1.0000
  S   S5        1.0  0.41300  0.42500  0.25000  1.0000
  S   S6        1.0  0.12300  0.47300  0.25000  1.0000
  S   S7        1.0  0.02760  0.71600  0.25000  1.0000
  S   S8        1.0  0.52800  0.78400  0.25000  1.0000
  S   S9        1.0  0.47200  0.21600  0.75000  1.0000
  S   S10       1.0  0.97200  0.28400  0.75000  1.0000
  S   S11       1.0  0.87700  0.52700  0.75000  1.0000
  S   S12       1.0  0.58700  0.57500  0.75000  1.0000
  S   S13       1.0  0.29600  0.66000  0.75000  1.0000
  S   S14       1.0  0.79600  0.84000  0.75000  1.0000
  S   S15       1.0  0.08650  0.92500  0.75000  1.0000
  S   S16       1.0  0.37700  0.97300  0.75000  1.0000
  Sc  Sc1       1.0  0.41900  0.09840  0.25000  1.0000
  Sc  Sc2       1.0  0.91900  0.40200  0.25000  1.0000
  Sc  Sc3       1.0  0.44000  0.60900  0.25000  1.0000
  Sc  Sc4       1.0  0.94000  0.89100  0.25000  1.0000
  Sc  Sc5       1.0  0.06000  0.10900  0.75000  1.0000
  Sc  Sc6       1.0  0.56000  0.39100  0.75000  1.0000
  Sc  Sc7       1.0  0.08080  0.59800  0.75000  1.0000
  Sc  Sc8       1.0  0.58100  0.90200  0.75000  1.0000
  Sr  Sr1       1.0  0.76100  0.66700  0.25000  1.0000
  Sr  Sr2       1.0  0.26100  0.83300  0.25000  1.0000
  Sr  Sr3       1.0  0.73900  0.16700  0.75000  1.0000
  Sr  Sr4       1.0  0.23900  0.33300  0.75000  1.0000
