data_image0
_chemical_formula_structural       Sb4Se12Tl12
_chemical_formula_sum              "Sb4 Se12 Tl12"
_cell_length_a       9.52821
_cell_length_b       9.52821
_cell_length_c       9.52821
_cell_angle_alpha    90
_cell_angle_beta     90
_cell_angle_gamma    90

_space_group_name_H-M_alt    "P 1"
_space_group_IT_number       1

loop_
  _space_group_symop_operation_xyz
  'x, y, z'

loop_
  _atom_site_type_symbol
  _atom_site_label
  _atom_site_symmetry_multiplicity
  _atom_site_fract_x
  _atom_site_fract_y
  _atom_site_fract_z
  _atom_site_occupancy
  Sb  Sb1       1.0  0.30100  0.69900  0.19900  1.0000
  Sb  Sb2       1.0  0.69900  0.19900  0.30100  1.0000
  Sb  Sb3       1.0  0.19900  0.30100  0.69900  1.0000
  Sb  Sb4       1.0  0.80100  0.80100  0.80100  1.0000
  Se  Se1       1.0  0.76100  0.10800  0.04830  1.0000
  Se  Se2       1.0  0.04830  0.76100  0.10800  1.0000
  Se  Se3       1.0  0.60800  0.45200  0.23900  1.0000
  Se  Se4       1.0  0.39200  0.95200  0.26100  1.0000
  Se  Se5       1.0  0.95200  0.26100  0.39200  1.0000
  Se  Se6       1.0  0.23900  0.60800  0.45200  1.0000
  Se  Se7       1.0  0.73900  0.89200  0.54800  1.0000
  Se  Se8       1.0  0.45200  0.23900  0.60800  1.0000
  Se  Se9       1.0  0.89200  0.54800  0.73900  1.0000
  Se  Se10      1.0  0.10800  0.04830  0.76100  1.0000
  Se  Se11      1.0  0.54800  0.73900  0.89200  1.0000
  Se  Se12      1.0  0.26100  0.39200  0.95200  1.0000
  Tl  Tl1       1.0  0.94600  0.44600  0.05430  1.0000
  Tl  Tl2       1.0  0.08940  0.08940  0.08940  1.0000
  Tl  Tl3       1.0  0.68900  0.81100  0.18900  1.0000
  Tl  Tl4       1.0  0.31100  0.31100  0.31100  1.0000
  Tl  Tl5       1.0  0.91100  0.58900  0.41100  1.0000
  Tl  Tl6       1.0  0.05430  0.94600  0.44600  1.0000
  Tl  Tl7       1.0  0.55400  0.55400  0.55400  1.0000
  Tl  Tl8       1.0  0.41100  0.91100  0.58900  1.0000
  Tl  Tl9       1.0  0.81100  0.18900  0.68900  1.0000
  Tl  Tl10      1.0  0.18900  0.68900  0.81100  1.0000
  Tl  Tl11      1.0  0.58900  0.41100  0.91100  1.0000
  Tl  Tl12      1.0  0.44600  0.05430  0.94600  1.0000
