data_image0
_chemical_formula_structural       Nb6O20U2
_chemical_formula_sum              "Nb6 O20 U2"
_cell_length_a       7.48449
_cell_length_b       7.48449
_cell_length_c       8.83645
_cell_angle_alpha    102.245
_cell_angle_beta     102.245
_cell_angle_gamma    119.947

_space_group_name_H-M_alt    "P 1"
_space_group_IT_number       1

loop_
  _space_group_symop_operation_xyz
  'x, y, z'

loop_
  _atom_site_type_symbol
  _atom_site_label
  _atom_site_symmetry_multiplicity
  _atom_site_fract_x
  _atom_site_fract_y
  _atom_site_fract_z
  _atom_site_occupancy
  Nb  Nb1       1.0  0.50000  0.50000  0.00000  1.0000
  Nb  Nb2       1.0  0.51000  0.01000  0.02000  1.0000
  Nb  Nb3       1.0  0.74000  0.74000  0.48000  1.0000
  Nb  Nb4       1.0  0.75000  0.25000  0.50000  1.0000
  Nb  Nb5       1.0  0.26000  0.26000  0.52000  1.0000
  Nb  Nb6       1.0  0.99000  0.49000  0.98000  1.0000
  O   O1        1.0  0.79800  0.20200  0.00000  1.0000
  O   O2        1.0  0.20200  0.79800  0.00000  1.0000
  O   O3        1.0  0.20400  0.40600  0.00498  1.0000
  O   O4        1.0  0.80100  0.59900  0.00498  1.0000
  O   O5        1.0  0.11900  0.11900  0.23800  1.0000
  O   O6        1.0  0.62400  0.62400  0.24800  1.0000
  O   O7        1.0  0.62600  0.12600  0.25200  1.0000
  O   O8        1.0  0.13100  0.63100  0.26200  1.0000
  O   O9        1.0  0.44900  0.15100  0.49500  1.0000
  O   O10       1.0  0.04640  0.34400  0.49500  1.0000
  O   O11       1.0  0.45200  0.54800  0.50000  1.0000
  O   O12       1.0  0.04770  0.95200  0.50000  1.0000
  O   O13       1.0  0.84900  0.55100  0.50500  1.0000
  O   O14       1.0  0.65600  0.95400  0.50500  1.0000
  O   O15       1.0  0.36900  0.86900  0.73800  1.0000
  O   O16       1.0  0.87400  0.37400  0.74800  1.0000
  O   O17       1.0  0.37600  0.37600  0.75200  1.0000
  O   O18       1.0  0.88100  0.88100  0.76200  1.0000
  O   O19       1.0  0.40100  0.19900  0.99500  1.0000
  O   O20       1.0  0.59400  0.79600  0.99500  1.0000
  U   U1        1.0  0.00000  0.00000  0.00000  1.0000
  U   U2        1.0  0.25000  0.75000  0.50000  1.0000
