data_image0
_chemical_formula_structural       Cs2F20Yb6
_chemical_formula_sum              "Cs2 F20 Yb6"
_cell_length_a       4.22128
_cell_length_b       6.94463
_cell_length_c       14.2767
_cell_angle_alpha    90
_cell_angle_beta     90
_cell_angle_gamma    90

_space_group_name_H-M_alt    "P 1"
_space_group_IT_number       1

loop_
  _space_group_symop_operation_xyz
  'x, y, z'

loop_
  _atom_site_type_symbol
  _atom_site_label
  _atom_site_symmetry_multiplicity
  _atom_site_fract_x
  _atom_site_fract_y
  _atom_site_fract_z
  _atom_site_occupancy
  Cs  Cs1       1.0  0.50000  0.50000  0.00000  1.0000
  Cs  Cs2       1.0  0.50000  0.50000  0.50000  1.0000
  F   F1        1.0  0.00000  0.80400  0.04730  1.0000
  F   F2        1.0  0.50000  0.11600  0.09040  1.0000
  F   F3        1.0  0.00000  0.41700  0.10600  1.0000
  F   F4        1.0  0.00000  0.81200  0.18900  1.0000
  F   F5        1.0  0.00000  0.18800  0.25000  1.0000
  F   F6        1.0  0.50000  0.52000  0.25000  1.0000
  F   F7        1.0  0.00000  0.81200  0.31100  1.0000
  F   F8        1.0  0.00000  0.41700  0.39400  1.0000
  F   F9        1.0  0.50000  0.11600  0.41000  1.0000
  F   F10       1.0  0.00000  0.80400  0.45300  1.0000
  F   F11       1.0  0.00000  0.19600  0.54700  1.0000
  F   F12       1.0  0.50000  0.88400  0.59000  1.0000
  F   F13       1.0  0.00000  0.58300  0.60600  1.0000
  F   F14       1.0  0.00000  0.18800  0.68900  1.0000
  F   F15       1.0  0.50000  0.48000  0.75000  1.0000
  F   F16       1.0  0.00000  0.81200  0.75000  1.0000
  F   F17       1.0  0.00000  0.18800  0.81100  1.0000
  F   F18       1.0  0.00000  0.58300  0.89400  1.0000
  F   F19       1.0  0.50000  0.88400  0.91000  1.0000
  F   F20       1.0  0.00000  0.19600  0.95300  1.0000
  Yb  Yb1       1.0  0.00000  0.09690  0.10700  1.0000
  Yb  Yb2       1.0  0.00000  0.50700  0.25000  1.0000
  Yb  Yb3       1.0  0.00000  0.09690  0.39300  1.0000
  Yb  Yb4       1.0  0.00000  0.90300  0.60700  1.0000
  Yb  Yb5       1.0  0.00000  0.49300  0.75000  1.0000
  Yb  Yb6       1.0  0.00000  0.90300  0.89300  1.0000
