data_image0
_chemical_formula_structural       Cs12Ga4Se12
_chemical_formula_sum              "Cs12 Ga4 Se12"
_cell_length_a       8.69113
_cell_length_b       14.0255
_cell_length_c       11.4038
_cell_angle_alpha    90
_cell_angle_beta     126.682
_cell_angle_gamma    90

_space_group_name_H-M_alt    "P 1"
_space_group_IT_number       1

loop_
  _space_group_symop_operation_xyz
  'x, y, z'

loop_
  _atom_site_type_symbol
  _atom_site_label
  _atom_site_symmetry_multiplicity
  _atom_site_fract_x
  _atom_site_fract_y
  _atom_site_fract_z
  _atom_site_occupancy
  Cs  Cs1       1.0  0.37600  0.12800  0.01580  1.0000
  Cs  Cs2       1.0  0.86900  0.30500  0.08630  1.0000
  Cs  Cs3       1.0  0.35400  0.42300  0.11200  1.0000
  Cs  Cs4       1.0  0.64600  0.92300  0.38800  1.0000
  Cs  Cs5       1.0  0.13100  0.80500  0.41400  1.0000
  Cs  Cs6       1.0  0.62400  0.62800  0.48400  1.0000
  Cs  Cs7       1.0  0.37600  0.37200  0.51600  1.0000
  Cs  Cs8       1.0  0.86900  0.19500  0.58600  1.0000
  Cs  Cs9       1.0  0.35400  0.07650  0.61200  1.0000
  Cs  Cs10      1.0  0.64600  0.57700  0.88800  1.0000
  Cs  Cs11      1.0  0.13100  0.69500  0.91400  1.0000
  Cs  Cs12      1.0  0.62400  0.87200  0.98400  1.0000
  Ga  Ga1       1.0  0.06680  0.05670  0.15900  1.0000
  Ga  Ga2       1.0  0.93300  0.55700  0.34100  1.0000
  Ga  Ga3       1.0  0.06680  0.44300  0.65900  1.0000
  Ga  Ga4       1.0  0.93300  0.94300  0.84100  1.0000
  Se  Se1       1.0  0.13700  0.89600  0.10900  1.0000
  Se  Se2       1.0  0.65500  0.66100  0.19500  1.0000
  Se  Se3       1.0  0.11300  0.55300  0.24100  1.0000
  Se  Se4       1.0  0.88700  0.05280  0.25900  1.0000
  Se  Se5       1.0  0.34500  0.16100  0.30500  1.0000
  Se  Se6       1.0  0.86300  0.39600  0.39100  1.0000
  Se  Se7       1.0  0.13700  0.60400  0.60900  1.0000
  Se  Se8       1.0  0.65500  0.83900  0.69500  1.0000
  Se  Se9       1.0  0.11300  0.94700  0.74100  1.0000
  Se  Se10      1.0  0.88700  0.44700  0.75900  1.0000
  Se  Se11      1.0  0.34500  0.33900  0.80500  1.0000
  Se  Se12      1.0  0.86300  0.10400  0.89100  1.0000
