data_image0
_chemical_formula_structural       Eu4K4O16P4
_chemical_formula_sum              "Eu4 K4 O16 P4"
_cell_length_a       7.16381
_cell_length_b       5.4242
_cell_length_c       9.38454
_cell_angle_alpha    90
_cell_angle_beta     90
_cell_angle_gamma    90

_space_group_name_H-M_alt    "P 1"
_space_group_IT_number       1

loop_
  _space_group_symop_operation_xyz
  'x, y, z'

loop_
  _atom_site_type_symbol
  _atom_site_label
  _atom_site_symmetry_multiplicity
  _atom_site_fract_x
  _atom_site_fract_y
  _atom_site_fract_z
  _atom_site_occupancy
  Eu  Eu1       1.0  0.99500  0.25000  0.19600  1.0000
  Eu  Eu2       1.0  0.49500  0.25000  0.30400  1.0000
  Eu  Eu3       1.0  0.50500  0.75000  0.69600  1.0000
  Eu  Eu4       1.0  0.00460  0.75000  0.80400  1.0000
  K   K1        1.0  0.34700  0.75000  0.08810  1.0000
  K   K2        1.0  0.84700  0.75000  0.41200  1.0000
  K   K3        1.0  0.15300  0.25000  0.58800  1.0000
  K   K4        1.0  0.65300  0.25000  0.91200  1.0000
  O   O1        1.0  0.30500  0.25000  0.07430  1.0000
  O   O2        1.0  0.98900  0.75000  0.07460  1.0000
  O   O3        1.0  0.70600  0.51500  0.16000  1.0000
  O   O4        1.0  0.70600  0.98500  0.16000  1.0000
  O   O5        1.0  0.20600  0.51500  0.34000  1.0000
  O   O6        1.0  0.20600  0.98500  0.34000  1.0000
  O   O7        1.0  0.48900  0.75000  0.42500  1.0000
  O   O8        1.0  0.80500  0.25000  0.42600  1.0000
  O   O9        1.0  0.19500  0.75000  0.57400  1.0000
  O   O10       1.0  0.51100  0.25000  0.57500  1.0000
  O   O11       1.0  0.79400  0.01520  0.66000  1.0000
  O   O12       1.0  0.79400  0.48500  0.66000  1.0000
  O   O13       1.0  0.29400  0.01520  0.84000  1.0000
  O   O14       1.0  0.29400  0.48500  0.84000  1.0000
  O   O15       1.0  0.01080  0.25000  0.92500  1.0000
  O   O16       1.0  0.69500  0.75000  0.92600  1.0000
  P   P1        1.0  0.77400  0.75000  0.08080  1.0000
  P   P2        1.0  0.27400  0.75000  0.41900  1.0000
  P   P3        1.0  0.72600  0.25000  0.58100  1.0000
  P   P4        1.0  0.22600  0.25000  0.91900  1.0000
