data_image0
_chemical_formula_structural       C4Ti12Zn12
_chemical_formula_sum              "C4 Ti12 Zn12"
_cell_length_a       8.17828
_cell_length_b       8.17828
_cell_length_c       8.17828
_cell_angle_alpha    120
_cell_angle_beta     90
_cell_angle_gamma    120

_space_group_name_H-M_alt    "P 1"
_space_group_IT_number       1

loop_
  _space_group_symop_operation_xyz
  'x, y, z'

loop_
  _atom_site_type_symbol
  _atom_site_label
  _atom_site_symmetry_multiplicity
  _atom_site_fract_x
  _atom_site_fract_y
  _atom_site_fract_z
  _atom_site_occupancy
  C   C1        1.0  0.37500  0.75000  0.12500  1.0000
  C   C2        1.0  0.37500  0.25000  0.62500  1.0000
  C   C3        1.0  0.37500  0.75000  0.62500  1.0000
  C   C4        1.0  0.87500  0.25000  0.62500  1.0000
  Ti  Ti1       1.0  0.68300  0.00000  0.31700  1.0000
  Ti  Ti2       1.0  0.31700  0.00000  0.31700  1.0000
  Ti  Ti3       1.0  0.31700  0.63400  0.31700  1.0000
  Ti  Ti4       1.0  0.06690  0.13400  0.56700  1.0000
  Ti  Ti5       1.0  0.06690  0.50000  0.56700  1.0000
  Ti  Ti6       1.0  0.43300  0.50000  0.56700  1.0000
  Ti  Ti7       1.0  0.31700  0.00000  0.68300  1.0000
  Ti  Ti8       1.0  0.68300  0.36600  0.68300  1.0000
  Ti  Ti9       1.0  0.68300  0.00000  0.68300  1.0000
  Ti  Ti10      1.0  0.06690  0.50000  0.93300  1.0000
  Ti  Ti11      1.0  0.43300  0.50000  0.93300  1.0000
  Ti  Ti12      1.0  0.43300  0.86600  0.93300  1.0000
  Zn  Zn1       1.0  0.37500  0.25000  0.12500  1.0000
  Zn  Zn2       1.0  0.87500  0.25000  0.12500  1.0000
  Zn  Zn3       1.0  0.87500  0.75000  0.12500  1.0000
  Zn  Zn4       1.0  0.08520  0.17000  0.25600  1.0000
  Zn  Zn5       1.0  0.66500  0.33000  0.33500  1.0000
  Zn  Zn6       1.0  0.00558  0.67000  0.33500  1.0000
  Zn  Zn7       1.0  0.66500  0.67000  0.33500  1.0000
  Zn  Zn8       1.0  0.87500  0.75000  0.62500  1.0000
  Zn  Zn9       1.0  0.08520  0.17000  0.91500  1.0000
  Zn  Zn10      1.0  0.08520  0.83000  0.91500  1.0000
  Zn  Zn11      1.0  0.74400  0.83000  0.91500  1.0000
  Zn  Zn12      1.0  0.66500  0.33000  0.99400  1.0000
