data_image0
_chemical_formula_structural       Ca12In4P12
_chemical_formula_sum              "Ca12 In4 P12"
_cell_length_a       12.1127
_cell_length_b       4.16845
_cell_length_c       13.5512
_cell_angle_alpha    90
_cell_angle_beta     90
_cell_angle_gamma    90

_space_group_name_H-M_alt    "P 1"
_space_group_IT_number       1

loop_
  _space_group_symop_operation_xyz
  'x, y, z'

loop_
  _atom_site_type_symbol
  _atom_site_label
  _atom_site_symmetry_multiplicity
  _atom_site_fract_x
  _atom_site_fract_y
  _atom_site_fract_z
  _atom_site_occupancy
  Ca  Ca1       1.0  0.34600  0.25000  0.00384  1.0000
  Ca  Ca2       1.0  0.06510  0.25000  0.10200  1.0000
  Ca  Ca3       1.0  0.76900  0.25000  0.21100  1.0000
  Ca  Ca4       1.0  0.26900  0.25000  0.28900  1.0000
  Ca  Ca5       1.0  0.56500  0.25000  0.39800  1.0000
  Ca  Ca6       1.0  0.84600  0.25000  0.49600  1.0000
  Ca  Ca7       1.0  0.15400  0.75000  0.50400  1.0000
  Ca  Ca8       1.0  0.43500  0.75000  0.60200  1.0000
  Ca  Ca9       1.0  0.73100  0.75000  0.71100  1.0000
  Ca  Ca10      1.0  0.23100  0.75000  0.78900  1.0000
  Ca  Ca11      1.0  0.93500  0.75000  0.89800  1.0000
  Ca  Ca12      1.0  0.65400  0.75000  0.99600  1.0000
  In  In1       1.0  0.44800  0.75000  0.20000  1.0000
  In  In2       1.0  0.94800  0.75000  0.30000  1.0000
  In  In3       1.0  0.05190  0.25000  0.70000  1.0000
  In  In4       1.0  0.55200  0.25000  0.80000  1.0000
  P   P1        1.0  0.89500  0.75000  0.11300  1.0000
  P   P2        1.0  0.24500  0.75000  0.12800  1.0000
  P   P3        1.0  0.55000  0.25000  0.13300  1.0000
  P   P4        1.0  0.05030  0.25000  0.36700  1.0000
  P   P5        1.0  0.74500  0.75000  0.37200  1.0000
  P   P6        1.0  0.39500  0.75000  0.38700  1.0000
  P   P7        1.0  0.60500  0.25000  0.61300  1.0000
  P   P8        1.0  0.25500  0.25000  0.62800  1.0000
  P   P9        1.0  0.95000  0.75000  0.63300  1.0000
  P   P10       1.0  0.45000  0.75000  0.86700  1.0000
  P   P11       1.0  0.75500  0.25000  0.87200  1.0000
  P   P12       1.0  0.10500  0.25000  0.88700  1.0000
