data_image0
_chemical_formula_structural       B4Cs6Li4Na2O12
_chemical_formula_sum              "B4 Cs6 Li4 Na2 O12"
_cell_length_a       10.2067
_cell_length_b       7.30448
_cell_length_c       6.68156
_cell_angle_alpha    103.979
_cell_angle_beta     101.514
_cell_angle_gamma    96.9991

_space_group_name_H-M_alt    "P 1"
_space_group_IT_number       1

loop_
  _space_group_symop_operation_xyz
  'x, y, z'

loop_
  _atom_site_type_symbol
  _atom_site_label
  _atom_site_symmetry_multiplicity
  _atom_site_fract_x
  _atom_site_fract_y
  _atom_site_fract_z
  _atom_site_occupancy
  B   B1        1.0  0.78200  0.31300  0.03080  1.0000
  B   B2        1.0  0.68600  0.86800  0.35100  1.0000
  B   B3        1.0  0.31400  0.13200  0.64900  1.0000
  B   B4        1.0  0.21800  0.68700  0.96900  1.0000
  Cs  Cs1       1.0  0.48300  0.30300  0.18300  1.0000
  Cs  Cs2       1.0  0.12800  0.22700  0.21500  1.0000
  Cs  Cs3       1.0  0.07480  0.73000  0.35100  1.0000
  Cs  Cs4       1.0  0.92500  0.27000  0.64900  1.0000
  Cs  Cs5       1.0  0.87200  0.77300  0.78500  1.0000
  Cs  Cs6       1.0  0.51700  0.69700  0.81700  1.0000
  Li  Li1       1.0  0.76500  0.08990  0.20100  1.0000
  Li  Li2       1.0  0.75900  0.59700  0.22600  1.0000
  Li  Li3       1.0  0.24100  0.40300  0.77400  1.0000
  Li  Li4       1.0  0.23500  0.91000  0.79900  1.0000
  Na  Na1       1.0  0.41600  0.82500  0.32800  1.0000
  Na  Na2       1.0  0.58400  0.17500  0.67200  1.0000
  O   O1        1.0  0.26100  0.55100  0.06970  1.0000
  O   O2        1.0  0.23800  0.88100  0.07670  1.0000
  O   O3        1.0  0.84000  0.37000  0.25000  1.0000
  O   O4        1.0  0.81700  0.87600  0.30800  1.0000
  O   O5        1.0  0.62300  0.02530  0.34500  1.0000
  O   O6        1.0  0.62500  0.70100  0.38200  1.0000
  O   O7        1.0  0.37500  0.29900  0.61800  1.0000
  O   O8        1.0  0.37700  0.97500  0.65500  1.0000
  O   O9        1.0  0.18300  0.12400  0.69200  1.0000
  O   O10       1.0  0.16000  0.63000  0.75000  1.0000
  O   O11       1.0  0.76200  0.11900  0.92300  1.0000
  O   O12       1.0  0.73900  0.44900  0.93000  1.0000
