data_image0
_chemical_formula_structural       As4O20Sb4
_chemical_formula_sum              "As4 O20 Sb4"
_cell_length_a       9.15835
_cell_length_b       8.66691
_cell_length_c       4.91829
_cell_angle_alpha    90
_cell_angle_beta     90
_cell_angle_gamma    90

_space_group_name_H-M_alt    "P 1"
_space_group_IT_number       1

loop_
  _space_group_symop_operation_xyz
  'x, y, z'

loop_
  _atom_site_type_symbol
  _atom_site_label
  _atom_site_symmetry_multiplicity
  _atom_site_fract_x
  _atom_site_fract_y
  _atom_site_fract_z
  _atom_site_occupancy
  As  As1       1.0  0.53900  0.77600  0.14800  1.0000
  As  As2       1.0  0.46100  0.27600  0.35200  1.0000
  As  As3       1.0  0.96100  0.22400  0.64800  1.0000
  As  As4       1.0  0.03860  0.72400  0.85200  1.0000
  O   O1        1.0  0.49100  0.95400  0.02080  1.0000
  O   O2        1.0  0.54900  0.27600  0.04390  1.0000
  O   O3        1.0  0.99700  0.87700  0.05710  1.0000
  O   O4        1.0  0.77100  0.08210  0.18400  1.0000
  O   O5        1.0  0.72300  0.74600  0.19500  1.0000
  O   O6        1.0  0.27700  0.24600  0.30500  1.0000
  O   O7        1.0  0.22900  0.58200  0.31600  1.0000
  O   O8        1.0  0.00344  0.37700  0.44300  1.0000
  O   O9        1.0  0.45100  0.77600  0.45600  1.0000
  O   O10       1.0  0.50900  0.45400  0.47900  1.0000
  O   O11       1.0  0.00888  0.04580  0.52100  1.0000
  O   O12       1.0  0.95100  0.72400  0.54400  1.0000
  O   O13       1.0  0.50300  0.12300  0.55700  1.0000
  O   O14       1.0  0.72900  0.91800  0.68400  1.0000
  O   O15       1.0  0.77700  0.25400  0.69500  1.0000
  O   O16       1.0  0.22300  0.75400  0.80500  1.0000
  O   O17       1.0  0.27100  0.41800  0.81600  1.0000
  O   O18       1.0  0.49700  0.62300  0.94300  1.0000
  O   O19       1.0  0.04900  0.22400  0.95600  1.0000
  O   O20       1.0  0.99100  0.54600  0.97900  1.0000
  Sb  Sb1       1.0  0.14500  0.40300  0.13600  1.0000
  Sb  Sb2       1.0  0.85500  0.90300  0.36400  1.0000
  Sb  Sb3       1.0  0.35500  0.59700  0.63600  1.0000
  Sb  Sb4       1.0  0.64500  0.09660  0.86400  1.0000
