data_image0
_chemical_formula_structural       Ir12Si16
_chemical_formula_sum              "Ir12 Si16"
_cell_length_a       19.0256
_cell_length_b       3.73579
_cell_length_c       5.83637
_cell_angle_alpha    90
_cell_angle_beta     90
_cell_angle_gamma    90

_space_group_name_H-M_alt    "P 1"
_space_group_IT_number       1

loop_
  _space_group_symop_operation_xyz
  'x, y, z'

loop_
  _atom_site_type_symbol
  _atom_site_label
  _atom_site_symmetry_multiplicity
  _atom_site_fract_x
  _atom_site_fract_y
  _atom_site_fract_z
  _atom_site_occupancy
  Ir  Ir1       1.0  0.17600  0.25000  0.00165  1.0000
  Ir  Ir2       1.0  0.32600  0.25000  0.10900  1.0000
  Ir  Ir3       1.0  0.03140  0.25000  0.19600  1.0000
  Ir  Ir4       1.0  0.53100  0.25000  0.30400  1.0000
  Ir  Ir5       1.0  0.82600  0.25000  0.39100  1.0000
  Ir  Ir6       1.0  0.67600  0.25000  0.49800  1.0000
  Ir  Ir7       1.0  0.32400  0.75000  0.50200  1.0000
  Ir  Ir8       1.0  0.17400  0.75000  0.60900  1.0000
  Ir  Ir9       1.0  0.46900  0.75000  0.69600  1.0000
  Ir  Ir10      1.0  0.96900  0.75000  0.80400  1.0000
  Ir  Ir11      1.0  0.67400  0.75000  0.89100  1.0000
  Ir  Ir12      1.0  0.82400  0.75000  0.99800  1.0000
  Si  Si1       1.0  0.55000  0.75000  0.02670  1.0000
  Si  Si2       1.0  0.90900  0.25000  0.07350  1.0000
  Si  Si3       1.0  0.64400  0.25000  0.10900  1.0000
  Si  Si4       1.0  0.23000  0.75000  0.21700  1.0000
  Si  Si5       1.0  0.73000  0.75000  0.28300  1.0000
  Si  Si6       1.0  0.14400  0.25000  0.39100  1.0000
  Si  Si7       1.0  0.40900  0.25000  0.42700  1.0000
  Si  Si8       1.0  0.04970  0.75000  0.47300  1.0000
  Si  Si9       1.0  0.95000  0.25000  0.52700  1.0000
  Si  Si10      1.0  0.59100  0.75000  0.57300  1.0000
  Si  Si11      1.0  0.85600  0.75000  0.60900  1.0000
  Si  Si12      1.0  0.27000  0.25000  0.71700  1.0000
  Si  Si13      1.0  0.77000  0.25000  0.78300  1.0000
  Si  Si14      1.0  0.35600  0.75000  0.89100  1.0000
  Si  Si15      1.0  0.09080  0.75000  0.92700  1.0000
  Si  Si16      1.0  0.45000  0.25000  0.97300  1.0000
