data_image0
_chemical_formula_structural       Fe4K4Na8O12
_chemical_formula_sum              "Fe4 K4 Na8 O12"
_cell_length_a       6.51096
_cell_length_b       6.24555
_cell_length_c       10.1351
_cell_angle_alpha    90
_cell_angle_beta     90
_cell_angle_gamma    90

_space_group_name_H-M_alt    "P 1"
_space_group_IT_number       1

loop_
  _space_group_symop_operation_xyz
  'x, y, z'

loop_
  _atom_site_type_symbol
  _atom_site_label
  _atom_site_symmetry_multiplicity
  _atom_site_fract_x
  _atom_site_fract_y
  _atom_site_fract_z
  _atom_site_occupancy
  Fe  Fe1       1.0  0.17200  0.75000  0.00791  1.0000
  Fe  Fe2       1.0  0.67200  0.75000  0.49200  1.0000
  Fe  Fe3       1.0  0.32800  0.25000  0.50800  1.0000
  Fe  Fe4       1.0  0.82800  0.25000  0.99200  1.0000
  K   K1        1.0  0.66300  0.75000  0.02620  1.0000
  K   K2        1.0  0.16300  0.75000  0.47400  1.0000
  K   K3        1.0  0.83700  0.25000  0.52600  1.0000
  K   K4        1.0  0.33700  0.25000  0.97400  1.0000
  Na  Na1       1.0  0.99300  0.00683  0.23000  1.0000
  Na  Na2       1.0  0.99300  0.49300  0.23000  1.0000
  Na  Na3       1.0  0.49300  0.00683  0.27000  1.0000
  Na  Na4       1.0  0.49300  0.49300  0.27000  1.0000
  Na  Na5       1.0  0.50700  0.50700  0.73000  1.0000
  Na  Na6       1.0  0.50700  0.99300  0.73000  1.0000
  Na  Na7       1.0  0.00680  0.50700  0.77000  1.0000
  Na  Na8       1.0  0.00680  0.99300  0.77000  1.0000
  O   O1        1.0  0.00000  0.00000  0.00000  1.0000
  O   O2        1.0  0.00000  0.50000  0.00000  1.0000
  O   O3        1.0  0.66600  0.25000  0.14300  1.0000
  O   O4        1.0  0.29300  0.75000  0.17300  1.0000
  O   O5        1.0  0.79300  0.75000  0.32700  1.0000
  O   O6        1.0  0.16600  0.25000  0.35700  1.0000
  O   O7        1.0  0.50000  0.00000  0.50000  1.0000
  O   O8        1.0  0.50000  0.50000  0.50000  1.0000
  O   O9        1.0  0.83400  0.75000  0.64300  1.0000
  O   O10       1.0  0.20700  0.25000  0.67300  1.0000
  O   O11       1.0  0.70700  0.25000  0.82700  1.0000
  O   O12       1.0  0.33400  0.75000  0.85700  1.0000
