data_image0
_chemical_formula_structural       Cl18In10
_chemical_formula_sum              "Cl18 In10"
_cell_length_a       9.30926
_cell_length_b       9.30926
_cell_length_c       9.30926
_cell_angle_alpha    96.705
_cell_angle_beta     83.295
_cell_angle_gamma    96.705

_space_group_name_H-M_alt    "P 1"
_space_group_IT_number       1

loop_
  _space_group_symop_operation_xyz
  'x, y, z'

loop_
  _atom_site_type_symbol
  _atom_site_label
  _atom_site_symmetry_multiplicity
  _atom_site_fract_x
  _atom_site_fract_y
  _atom_site_fract_z
  _atom_site_occupancy
  Cl  Cl1       1.0  0.26900  0.08590  0.08220  1.0000
  Cl  Cl2       1.0  0.91800  0.26900  0.08590  1.0000
  Cl  Cl3       1.0  0.40900  0.75000  0.09130  1.0000
  Cl  Cl4       1.0  0.41800  0.41400  0.23100  1.0000
  Cl  Cl5       1.0  0.09130  0.59100  0.25000  1.0000
  Cl  Cl6       1.0  0.91400  0.91800  0.26900  1.0000
  Cl  Cl7       1.0  0.25000  0.90900  0.40900  1.0000
  Cl  Cl8       1.0  0.76900  0.41800  0.41400  1.0000
  Cl  Cl9       1.0  0.58600  0.76900  0.41800  1.0000
  Cl  Cl10      1.0  0.41400  0.23100  0.58200  1.0000
  Cl  Cl11      1.0  0.23100  0.58200  0.58600  1.0000
  Cl  Cl12      1.0  0.75000  0.09130  0.59100  1.0000
  Cl  Cl13      1.0  0.08590  0.08220  0.73100  1.0000
  Cl  Cl14      1.0  0.90900  0.40900  0.75000  1.0000
  Cl  Cl15      1.0  0.58200  0.58600  0.76900  1.0000
  Cl  Cl16      1.0  0.59100  0.25000  0.90900  1.0000
  Cl  Cl17      1.0  0.08220  0.73100  0.91400  1.0000
  Cl  Cl18      1.0  0.73100  0.91400  0.91800  1.0000
  In  In1       1.0  0.75000  0.58700  0.08670  1.0000
  In  In2       1.0  0.15000  0.85000  0.15000  1.0000
  In  In3       1.0  0.58700  0.08670  0.25000  1.0000
  In  In4       1.0  0.35000  0.65000  0.35000  1.0000
  In  In5       1.0  0.08670  0.25000  0.41300  1.0000
  In  In6       1.0  0.91300  0.75000  0.58700  1.0000
  In  In7       1.0  0.65000  0.35000  0.65000  1.0000
  In  In8       1.0  0.41300  0.91300  0.75000  1.0000
  In  In9       1.0  0.85000  0.15000  0.85000  1.0000
  In  In10      1.0  0.25000  0.41300  0.91300  1.0000
