data_image0
_chemical_formula_structural       P4Pb4Rb4S16
_chemical_formula_sum              "P4 Pb4 Rb4 S16"
_cell_length_a       17.4777
_cell_length_b       6.74251
_cell_length_c       6.40339
_cell_angle_alpha    90
_cell_angle_beta     90
_cell_angle_gamma    90

_space_group_name_H-M_alt    "P 1"
_space_group_IT_number       1

loop_
  _space_group_symop_operation_xyz
  'x, y, z'

loop_
  _atom_site_type_symbol
  _atom_site_label
  _atom_site_symmetry_multiplicity
  _atom_site_fract_x
  _atom_site_fract_y
  _atom_site_fract_z
  _atom_site_occupancy
  P   P1        1.0  0.09920  0.25000  0.22000  1.0000
  P   P2        1.0  0.40100  0.75000  0.72000  1.0000
  P   P3        1.0  0.59900  0.25000  0.28000  1.0000
  P   P4        1.0  0.90100  0.75000  0.78000  1.0000
  Pb  Pb1       1.0  0.01730  0.25000  0.70700  1.0000
  Pb  Pb2       1.0  0.48300  0.75000  0.20700  1.0000
  Pb  Pb3       1.0  0.51700  0.25000  0.79300  1.0000
  Pb  Pb4       1.0  0.98300  0.75000  0.29300  1.0000
  Rb  Rb1       1.0  0.29600  0.25000  0.47000  1.0000
  Rb  Rb2       1.0  0.20400  0.75000  0.97000  1.0000
  Rb  Rb3       1.0  0.79600  0.25000  0.02980  1.0000
  Rb  Rb4       1.0  0.70400  0.75000  0.53000  1.0000
  S   S1        1.0  0.12300  0.00524  0.39900  1.0000
  S   S2        1.0  0.37700  0.99500  0.89900  1.0000
  S   S3        1.0  0.62300  0.49500  0.10100  1.0000
  S   S4        1.0  0.87700  0.50500  0.60100  1.0000
  S   S5        1.0  0.87700  0.99500  0.60100  1.0000
  S   S6        1.0  0.62300  0.00524  0.10100  1.0000
  S   S7        1.0  0.37700  0.50500  0.89900  1.0000
  S   S8        1.0  0.12300  0.49500  0.39900  1.0000
  S   S9        1.0  0.98300  0.25000  0.15700  1.0000
  S   S10       1.0  0.51700  0.75000  0.65700  1.0000
  S   S11       1.0  0.48300  0.25000  0.34300  1.0000
  S   S12       1.0  0.01690  0.75000  0.84300  1.0000
  S   S13       1.0  0.16200  0.25000  0.95100  1.0000
  S   S14       1.0  0.33800  0.75000  0.45100  1.0000
  S   S15       1.0  0.66200  0.25000  0.54900  1.0000
  S   S16       1.0  0.83800  0.75000  0.04950  1.0000
