data_image0
_chemical_formula_structural       Cl18K4Nb6
_chemical_formula_sum              "Cl18 K4 Nb6"
_cell_length_a       9.5708
_cell_length_b       9.72731
_cell_length_c       9.72731
_cell_angle_alpha    117.212
_cell_angle_beta     102.912
_cell_angle_gamma    102.912

_space_group_name_H-M_alt    "P 1"
_space_group_IT_number       1

loop_
  _space_group_symop_operation_xyz
  'x, y, z'

loop_
  _atom_site_type_symbol
  _atom_site_label
  _atom_site_symmetry_multiplicity
  _atom_site_fract_x
  _atom_site_fract_y
  _atom_site_fract_z
  _atom_site_occupancy
  Cl  Cl1       1.0  0.67900  0.87500  0.08590  1.0000
  Cl  Cl2       1.0  0.32500  0.51200  0.11100  1.0000
  Cl  Cl3       1.0  0.32100  0.91400  0.12500  1.0000
  Cl  Cl4       1.0  0.01500  0.40800  0.19800  1.0000
  Cl  Cl5       1.0  0.00000  0.79000  0.21000  1.0000
  Cl  Cl6       1.0  0.70800  0.27100  0.27100  1.0000
  Cl  Cl7       1.0  0.33900  0.32200  0.32200  1.0000
  Cl  Cl8       1.0  0.01500  0.19800  0.40800  1.0000
  Cl  Cl9       1.0  0.67500  0.88900  0.48800  1.0000
  Cl  Cl10      1.0  0.32500  0.11100  0.51200  1.0000
  Cl  Cl11      1.0  0.98500  0.80200  0.59200  1.0000
  Cl  Cl12      1.0  0.66100  0.67800  0.67800  1.0000
  Cl  Cl13      1.0  0.29200  0.72900  0.72900  1.0000
  Cl  Cl14      1.0  0.00000  0.21000  0.79000  1.0000
  Cl  Cl15      1.0  0.98500  0.59200  0.80200  1.0000
  Cl  Cl16      1.0  0.67900  0.08590  0.87500  1.0000
  Cl  Cl17      1.0  0.67500  0.48800  0.88900  1.0000
  Cl  Cl18      1.0  0.32100  0.12500  0.91400  1.0000
  K   K1        1.0  0.67300  0.55100  0.22900  1.0000
  K   K2        1.0  0.32700  0.77100  0.44900  1.0000
  K   K3        1.0  0.67300  0.22900  0.55100  1.0000
  K   K4        1.0  0.32700  0.44900  0.77100  1.0000
  Nb  Nb1       1.0  0.14300  0.22500  0.04800  1.0000
  Nb  Nb2       1.0  0.86900  0.12000  0.12000  1.0000
  Nb  Nb3       1.0  0.14300  0.04800  0.22500  1.0000
  Nb  Nb4       1.0  0.85700  0.95200  0.77500  1.0000
  Nb  Nb5       1.0  0.13100  0.88000  0.88000  1.0000
  Nb  Nb6       1.0  0.85700  0.77500  0.95200  1.0000
