data_image0
_chemical_formula_structural       Li4O16Si4Y4
_chemical_formula_sum              "Li4 O16 Si4 Y4"
_cell_length_a       5.39915
_cell_length_b       10.8053
_cell_length_c       6.17956
_cell_angle_alpha    90
_cell_angle_beta     90
_cell_angle_gamma    113.61

_space_group_name_H-M_alt    "P 1"
_space_group_IT_number       1

loop_
  _space_group_symop_operation_xyz
  'x, y, z'

loop_
  _atom_site_type_symbol
  _atom_site_label
  _atom_site_symmetry_multiplicity
  _atom_site_fract_x
  _atom_site_fract_y
  _atom_site_fract_z
  _atom_site_occupancy
  Li  Li1       1.0  0.91800  0.57000  0.13500  1.0000
  Li  Li2       1.0  0.91800  0.07010  0.36500  1.0000
  Li  Li3       1.0  0.08250  0.93000  0.63500  1.0000
  Li  Li4       1.0  0.08250  0.43000  0.86500  1.0000
  O   O1        1.0  0.77500  0.05400  0.07190  1.0000
  O   O2        1.0  0.76900  0.77400  0.14100  1.0000
  O   O3        1.0  0.18800  0.47600  0.16000  1.0000
  O   O4        1.0  0.24300  0.75200  0.16200  1.0000
  O   O5        1.0  0.24300  0.25200  0.33800  1.0000
  O   O6        1.0  0.18800  0.97600  0.34000  1.0000
  O   O7        1.0  0.76900  0.27400  0.35900  1.0000
  O   O8        1.0  0.77500  0.55400  0.42800  1.0000
  O   O9        1.0  0.22500  0.44600  0.57200  1.0000
  O   O10       1.0  0.23100  0.72600  0.64100  1.0000
  O   O11       1.0  0.81200  0.02420  0.66000  1.0000
  O   O12       1.0  0.75700  0.74800  0.66200  1.0000
  O   O13       1.0  0.75700  0.24800  0.83800  1.0000
  O   O14       1.0  0.81200  0.52400  0.84000  1.0000
  O   O15       1.0  0.23100  0.22600  0.85900  1.0000
  O   O16       1.0  0.22500  0.94600  0.92800  1.0000
  Si  Si1       1.0  0.09620  0.85900  0.15300  1.0000
  Si  Si2       1.0  0.09620  0.35900  0.34700  1.0000
  Si  Si3       1.0  0.90400  0.64100  0.65300  1.0000
  Si  Si4       1.0  0.90400  0.14100  0.84700  1.0000
  Y   Y1        1.0  0.44600  0.15300  0.11600  1.0000
  Y   Y2        1.0  0.44600  0.65300  0.38400  1.0000
  Y   Y3        1.0  0.55400  0.34700  0.61600  1.0000
  Y   Y4        1.0  0.55400  0.84700  0.88400  1.0000
