data_image0
_chemical_formula_structural       Bi4Eu8S16
_chemical_formula_sum              "Bi4 Eu8 S16"
_cell_length_a       11.398
_cell_length_b       14.7208
_cell_length_c       4.09042
_cell_angle_alpha    90
_cell_angle_beta     90
_cell_angle_gamma    90

_space_group_name_H-M_alt    "P 1"
_space_group_IT_number       1

loop_
  _space_group_symop_operation_xyz
  'x, y, z'

loop_
  _atom_site_type_symbol
  _atom_site_label
  _atom_site_symmetry_multiplicity
  _atom_site_fract_x
  _atom_site_fract_y
  _atom_site_fract_z
  _atom_site_occupancy
  Bi  Bi1       1.0  0.56800  0.10400  0.25000  1.0000
  Bi  Bi2       1.0  0.06840  0.39600  0.25000  1.0000
  Bi  Bi3       1.0  0.93200  0.60400  0.75000  1.0000
  Bi  Bi4       1.0  0.43200  0.89600  0.75000  1.0000
  Eu  Eu1       1.0  0.60300  0.59500  0.25000  1.0000
  Eu  Eu2       1.0  0.26700  0.66600  0.25000  1.0000
  Eu  Eu3       1.0  0.76700  0.83400  0.25000  1.0000
  Eu  Eu4       1.0  0.10300  0.90500  0.25000  1.0000
  Eu  Eu5       1.0  0.89700  0.09500  0.75000  1.0000
  Eu  Eu6       1.0  0.23300  0.16600  0.75000  1.0000
  Eu  Eu7       1.0  0.73300  0.33400  0.75000  1.0000
  Eu  Eu8       1.0  0.39700  0.40500  0.75000  1.0000
  S   S1        1.0  0.32900  0.02170  0.25000  1.0000
  S   S2        1.0  0.07680  0.09770  0.25000  1.0000
  S   S3        1.0  0.76900  0.19000  0.25000  1.0000
  S   S4        1.0  0.26900  0.31000  0.25000  1.0000
  S   S5        1.0  0.57700  0.40200  0.25000  1.0000
  S   S6        1.0  0.82900  0.47800  0.25000  1.0000
  S   S7        1.0  0.00758  0.71000  0.25000  1.0000
  S   S8        1.0  0.50800  0.79000  0.25000  1.0000
  S   S9        1.0  0.49200  0.21000  0.75000  1.0000
  S   S10       1.0  0.99200  0.29000  0.75000  1.0000
  S   S11       1.0  0.17100  0.52200  0.75000  1.0000
  S   S12       1.0  0.42300  0.59800  0.75000  1.0000
  S   S13       1.0  0.73100  0.69000  0.75000  1.0000
  S   S14       1.0  0.23100  0.81000  0.75000  1.0000
  S   S15       1.0  0.92300  0.90200  0.75000  1.0000
  S   S16       1.0  0.67100  0.97800  0.75000  1.0000
