data_image0
_chemical_formula_structural       Ba4O16Tl4V4
_chemical_formula_sum              "Ba4 O16 Tl4 V4"
_cell_length_a       5.89159
_cell_length_b       7.90461
_cell_length_c       10.415
_cell_angle_alpha    90
_cell_angle_beta     90
_cell_angle_gamma    90

_space_group_name_H-M_alt    "P 1"
_space_group_IT_number       1

loop_
  _space_group_symop_operation_xyz
  'x, y, z'

loop_
  _atom_site_type_symbol
  _atom_site_label
  _atom_site_symmetry_multiplicity
  _atom_site_fract_x
  _atom_site_fract_y
  _atom_site_fract_z
  _atom_site_occupancy
  Ba  Ba1       1.0  0.75000  0.00517  0.20200  1.0000
  Ba  Ba2       1.0  0.75000  0.50500  0.29800  1.0000
  Ba  Ba3       1.0  0.25000  0.49500  0.70200  1.0000
  Ba  Ba4       1.0  0.25000  0.99500  0.79800  1.0000
  O   O1        1.0  0.25000  0.00295  0.07520  1.0000
  O   O2        1.0  0.75000  0.70400  0.07660  1.0000
  O   O3        1.0  0.00455  0.29000  0.15700  1.0000
  O   O4        1.0  0.49500  0.29000  0.15700  1.0000
  O   O5        1.0  0.00455  0.79000  0.34300  1.0000
  O   O6        1.0  0.49500  0.79000  0.34300  1.0000
  O   O7        1.0  0.75000  0.20400  0.42300  1.0000
  O   O8        1.0  0.25000  0.50300  0.42500  1.0000
  O   O9        1.0  0.75000  0.49700  0.57500  1.0000
  O   O10       1.0  0.25000  0.79600  0.57700  1.0000
  O   O11       1.0  0.50500  0.21000  0.65700  1.0000
  O   O12       1.0  0.99500  0.21000  0.65700  1.0000
  O   O13       1.0  0.50500  0.71000  0.84300  1.0000
  O   O14       1.0  0.99500  0.71000  0.84300  1.0000
  O   O15       1.0  0.25000  0.29600  0.92300  1.0000
  O   O16       1.0  0.75000  0.99700  0.92500  1.0000
  Tl  Tl1       1.0  0.25000  0.66700  0.07540  1.0000
  Tl  Tl2       1.0  0.25000  0.16700  0.42500  1.0000
  Tl  Tl3       1.0  0.75000  0.83300  0.57500  1.0000
  Tl  Tl4       1.0  0.75000  0.33300  0.92500  1.0000
  V   V1        1.0  0.25000  0.22200  0.08100  1.0000
  V   V2        1.0  0.25000  0.72200  0.41900  1.0000
  V   V3        1.0  0.75000  0.27800  0.58100  1.0000
  V   V4        1.0  0.75000  0.77800  0.91900  1.0000
