data_image0
_chemical_formula_structural       Be4Cs4F16Li4
_chemical_formula_sum              "Be4 Cs4 F16 Li4"
_cell_length_a       9.059
_cell_length_b       5.2451
_cell_length_c       8.38294
_cell_angle_alpha    90
_cell_angle_beta     90
_cell_angle_gamma    90.7867

_space_group_name_H-M_alt    "P 1"
_space_group_IT_number       1

loop_
  _space_group_symop_operation_xyz
  'x, y, z'

loop_
  _atom_site_type_symbol
  _atom_site_label
  _atom_site_symmetry_multiplicity
  _atom_site_fract_x
  _atom_site_fract_y
  _atom_site_fract_z
  _atom_site_occupancy
  Be  Be1       1.0  0.08430  0.76300  0.20900  1.0000
  Be  Be2       1.0  0.58400  0.26300  0.29100  1.0000
  Be  Be3       1.0  0.41600  0.73700  0.70900  1.0000
  Be  Be4       1.0  0.91600  0.23700  0.79100  1.0000
  Cs  Cs1       1.0  0.26900  0.25300  0.00323  1.0000
  Cs  Cs2       1.0  0.76900  0.75300  0.49700  1.0000
  Cs  Cs3       1.0  0.23100  0.24700  0.50300  1.0000
  Cs  Cs4       1.0  0.73100  0.74700  0.99700  1.0000
  F   F1        1.0  0.07310  0.75000  0.02470  1.0000
  F   F2        1.0  0.55000  0.99700  0.21900  1.0000
  F   F3        1.0  0.47300  0.45900  0.22400  1.0000
  F   F4        1.0  0.74200  0.35300  0.24700  1.0000
  F   F5        1.0  0.24200  0.85300  0.25300  1.0000
  F   F6        1.0  0.97300  0.95900  0.27600  1.0000
  F   F7        1.0  0.05030  0.49700  0.28100  1.0000
  F   F8        1.0  0.57300  0.25000  0.47500  1.0000
  F   F9        1.0  0.42700  0.75000  0.52500  1.0000
  F   F10       1.0  0.95000  0.50300  0.71900  1.0000
  F   F11       1.0  0.02700  0.04130  0.72400  1.0000
  F   F12       1.0  0.75800  0.14700  0.74700  1.0000
  F   F13       1.0  0.25800  0.64700  0.75300  1.0000
  F   F14       1.0  0.52700  0.54100  0.77600  1.0000
  F   F15       1.0  0.45000  0.00287  0.78100  1.0000
  F   F16       1.0  0.92700  0.25000  0.97500  1.0000
  Li  Li1       1.0  0.92600  0.26300  0.19100  1.0000
  Li  Li2       1.0  0.42600  0.76300  0.30900  1.0000
  Li  Li3       1.0  0.57400  0.23700  0.69100  1.0000
  Li  Li4       1.0  0.07450  0.73700  0.80900  1.0000
