data_image0
_chemical_formula_structural       O16Rb8Se4
_chemical_formula_sum              "O16 Rb8 Se4"
_cell_length_a       7.91942
_cell_length_b       10.6961
_cell_length_c       6.1189
_cell_angle_alpha    90
_cell_angle_beta     90
_cell_angle_gamma    90

_space_group_name_H-M_alt    "P 1"
_space_group_IT_number       1

loop_
  _space_group_symop_operation_xyz
  'x, y, z'

loop_
  _atom_site_type_symbol
  _atom_site_label
  _atom_site_symmetry_multiplicity
  _atom_site_fract_x
  _atom_site_fract_y
  _atom_site_fract_z
  _atom_site_occupancy
  O   O1        1.0  0.79400  0.16000  0.02720  1.0000
  O   O2        1.0  0.29400  0.34000  0.02720  1.0000
  O   O3        1.0  0.51600  0.07920  0.25000  1.0000
  O   O4        1.0  0.01590  0.42100  0.25000  1.0000
  O   O5        1.0  0.31000  0.56000  0.25000  1.0000
  O   O6        1.0  0.81000  0.94000  0.25000  1.0000
  O   O7        1.0  0.79400  0.16000  0.47300  1.0000
  O   O8        1.0  0.29400  0.34000  0.47300  1.0000
  O   O9        1.0  0.70600  0.66000  0.52700  1.0000
  O   O10       1.0  0.20600  0.84000  0.52700  1.0000
  O   O11       1.0  0.19000  0.06000  0.75000  1.0000
  O   O12       1.0  0.69000  0.44000  0.75000  1.0000
  O   O13       1.0  0.98400  0.57900  0.75000  1.0000
  O   O14       1.0  0.48400  0.92100  0.75000  1.0000
  O   O15       1.0  0.70600  0.66000  0.97300  1.0000
  O   O16       1.0  0.20600  0.84000  0.97300  1.0000
  Rb  Rb1       1.0  0.16400  0.08200  0.25000  1.0000
  Rb  Rb2       1.0  0.66400  0.41800  0.25000  1.0000
  Rb  Rb3       1.0  0.99600  0.70200  0.25000  1.0000
  Rb  Rb4       1.0  0.49600  0.79800  0.25000  1.0000
  Rb  Rb5       1.0  0.50400  0.20200  0.75000  1.0000
  Rb  Rb6       1.0  0.00420  0.29800  0.75000  1.0000
  Rb  Rb7       1.0  0.33600  0.58200  0.75000  1.0000
  Rb  Rb8       1.0  0.83600  0.91800  0.75000  1.0000
  Se  Se1       1.0  0.72600  0.08420  0.25000  1.0000
  Se  Se2       1.0  0.22600  0.41600  0.25000  1.0000
  Se  Se3       1.0  0.77400  0.58400  0.75000  1.0000
  Se  Se4       1.0  0.27400  0.91600  0.75000  1.0000
