data_image0
_chemical_formula_structural       F20Sb4Sr4
_chemical_formula_sum              "F20 Sb4 Sr4"
_cell_length_a       4.25952
_cell_length_b       8.50964
_cell_length_c       11.0529
_cell_angle_alpha    90
_cell_angle_beta     90
_cell_angle_gamma    90

_space_group_name_H-M_alt    "P 1"
_space_group_IT_number       1

loop_
  _space_group_symop_operation_xyz
  'x, y, z'

loop_
  _atom_site_type_symbol
  _atom_site_label
  _atom_site_symmetry_multiplicity
  _atom_site_fract_x
  _atom_site_fract_y
  _atom_site_fract_z
  _atom_site_occupancy
  F   F1        1.0  0.54200  0.20200  0.11100  1.0000
  F   F2        1.0  0.45800  0.70200  0.11100  1.0000
  F   F3        1.0  0.91800  0.48600  0.11400  1.0000
  F   F4        1.0  0.08230  0.98600  0.11400  1.0000
  F   F5        1.0  0.08470  0.22000  0.25000  1.0000
  F   F6        1.0  0.91500  0.72000  0.25000  1.0000
  F   F7        1.0  0.91800  0.48600  0.38600  1.0000
  F   F8        1.0  0.08230  0.98600  0.38600  1.0000
  F   F9        1.0  0.54200  0.20200  0.38900  1.0000
  F   F10       1.0  0.45800  0.70200  0.38900  1.0000
  F   F11       1.0  0.54200  0.29800  0.61100  1.0000
  F   F12       1.0  0.45800  0.79800  0.61100  1.0000
  F   F13       1.0  0.91800  0.01380  0.61400  1.0000
  F   F14       1.0  0.08230  0.51400  0.61400  1.0000
  F   F15       1.0  0.08470  0.28000  0.75000  1.0000
  F   F16       1.0  0.91500  0.78000  0.75000  1.0000
  F   F17       1.0  0.91800  0.01380  0.88600  1.0000
  F   F18       1.0  0.08230  0.51400  0.88600  1.0000
  F   F19       1.0  0.54200  0.29800  0.88900  1.0000
  F   F20       1.0  0.45800  0.79800  0.88900  1.0000
  Sb  Sb1       1.0  0.40700  0.04690  0.25000  1.0000
  Sb  Sb2       1.0  0.59300  0.54700  0.25000  1.0000
  Sb  Sb3       1.0  0.40700  0.45300  0.75000  1.0000
  Sb  Sb4       1.0  0.59300  0.95300  0.75000  1.0000
  Sr  Sr1       1.0  0.03350  0.25000  0.00000  1.0000
  Sr  Sr2       1.0  0.96700  0.75000  0.00000  1.0000
  Sr  Sr3       1.0  0.03350  0.25000  0.50000  1.0000
  Sr  Sr4       1.0  0.96700  0.75000  0.50000  1.0000
