data_image0
_chemical_formula_structural       Co12O4Ti12
_chemical_formula_sum              "Co12 O4 Ti12"
_cell_length_a       7.86624
_cell_length_b       7.86624
_cell_length_c       7.86624
_cell_angle_alpha    120
_cell_angle_beta     90
_cell_angle_gamma    120

_space_group_name_H-M_alt    "P 1"
_space_group_IT_number       1

loop_
  _space_group_symop_operation_xyz
  'x, y, z'

loop_
  _atom_site_type_symbol
  _atom_site_label
  _atom_site_symmetry_multiplicity
  _atom_site_fract_x
  _atom_site_fract_y
  _atom_site_fract_z
  _atom_site_occupancy
  Co  Co1       1.0  0.37500  0.75000  0.12500  1.0000
  Co  Co2       1.0  0.58200  0.16500  0.41800  1.0000
  Co  Co3       1.0  0.25300  0.83500  0.41800  1.0000
  Co  Co4       1.0  0.58200  0.83500  0.41800  1.0000
  Co  Co5       1.0  0.16800  0.33500  0.50300  1.0000
  Co  Co6       1.0  0.37500  0.25000  0.62500  1.0000
  Co  Co7       1.0  0.37500  0.75000  0.62500  1.0000
  Co  Co8       1.0  0.87500  0.25000  0.62500  1.0000
  Co  Co9       1.0  0.58200  0.16500  0.74700  1.0000
  Co  Co10      1.0  0.16800  0.33500  0.83200  1.0000
  Co  Co11      1.0  0.16800  0.66500  0.83200  1.0000
  Co  Co12      1.0  0.49700  0.66500  0.83200  1.0000
  O   O1        1.0  0.37500  0.25000  0.12500  1.0000
  O   O2        1.0  0.87500  0.25000  0.12500  1.0000
  O   O3        1.0  0.87500  0.75000  0.12500  1.0000
  O   O4        1.0  0.87500  0.75000  0.62500  1.0000
  Ti  Ti1       1.0  0.56000  0.12100  0.06040  1.0000
  Ti  Ti2       1.0  0.56000  0.50000  0.06040  1.0000
  Ti  Ti3       1.0  0.94000  0.50000  0.06040  1.0000
  Ti  Ti4       1.0  0.81000  0.00000  0.19000  1.0000
  Ti  Ti5       1.0  0.19000  0.00000  0.19000  1.0000
  Ti  Ti6       1.0  0.19000  0.37900  0.19000  1.0000
  Ti  Ti7       1.0  0.56000  0.50000  0.44000  1.0000
  Ti  Ti8       1.0  0.94000  0.50000  0.44000  1.0000
  Ti  Ti9       1.0  0.94000  0.87900  0.44000  1.0000
  Ti  Ti10      1.0  0.19000  0.00000  0.81000  1.0000
  Ti  Ti11      1.0  0.81000  0.00000  0.81000  1.0000
  Ti  Ti12      1.0  0.81000  0.62100  0.81000  1.0000
