data_image0
_chemical_formula_structural       Li4O12Rb4Zn8
_chemical_formula_sum              "Li4 O12 Rb4 Zn8"
_cell_length_a       10.3484
_cell_length_b       10.3484
_cell_length_c       3.42541
_cell_angle_alpha    90
_cell_angle_beta     90
_cell_angle_gamma    90

_space_group_name_H-M_alt    "P 1"
_space_group_IT_number       1

loop_
  _space_group_symop_operation_xyz
  'x, y, z'

loop_
  _atom_site_type_symbol
  _atom_site_label
  _atom_site_symmetry_multiplicity
  _atom_site_fract_x
  _atom_site_fract_y
  _atom_site_fract_z
  _atom_site_occupancy
  Li  Li1       1.0  0.70000  0.30000  0.00000  1.0000
  Li  Li2       1.0  0.30000  0.70000  0.00000  1.0000
  Li  Li3       1.0  0.20000  0.20000  0.50000  1.0000
  Li  Li4       1.0  0.80000  0.80000  0.50000  1.0000
  O   O1        1.0  0.65700  0.11500  0.00000  1.0000
  O   O2        1.0  0.13800  0.13800  0.00000  1.0000
  O   O3        1.0  0.88500  0.34300  0.00000  1.0000
  O   O4        1.0  0.11500  0.65700  0.00000  1.0000
  O   O5        1.0  0.86200  0.86200  0.00000  1.0000
  O   O6        1.0  0.34300  0.88500  0.00000  1.0000
  O   O7        1.0  0.38500  0.15700  0.50000  1.0000
  O   O8        1.0  0.63800  0.36200  0.50000  1.0000
  O   O9        1.0  0.15700  0.38500  0.50000  1.0000
  O   O10       1.0  0.84300  0.61500  0.50000  1.0000
  O   O11       1.0  0.36200  0.63800  0.50000  1.0000
  O   O12       1.0  0.61500  0.84300  0.50000  1.0000
  Rb  Rb1       1.0  0.39100  0.39100  0.00000  1.0000
  Rb  Rb2       1.0  0.60900  0.60900  0.00000  1.0000
  Rb  Rb3       1.0  0.89100  0.10900  0.50000  1.0000
  Rb  Rb4       1.0  0.10900  0.89100  0.50000  1.0000
  Zn  Zn1       1.0  0.32700  0.07320  0.00000  1.0000
  Zn  Zn2       1.0  0.07320  0.32700  0.00000  1.0000
  Zn  Zn3       1.0  0.92700  0.67300  0.00000  1.0000
  Zn  Zn4       1.0  0.67300  0.92700  0.00000  1.0000
  Zn  Zn5       1.0  0.57300  0.17300  0.50000  1.0000
  Zn  Zn6       1.0  0.82700  0.42700  0.50000  1.0000
  Zn  Zn7       1.0  0.17300  0.57300  0.50000  1.0000
  Zn  Zn8       1.0  0.42700  0.82700  0.50000  1.0000
