data_image0
_chemical_formula_structural       Gd12I12Si4
_chemical_formula_sum              "Gd12 I12 Si4"
_cell_length_a       10.5508
_cell_length_b       10.5508
_cell_length_c       10.5508
_cell_angle_alpha    109.471
_cell_angle_beta     109.471
_cell_angle_gamma    109.471

_space_group_name_H-M_alt    "P 1"
_space_group_IT_number       1

loop_
  _space_group_symop_operation_xyz
  'x, y, z'

loop_
  _atom_site_type_symbol
  _atom_site_label
  _atom_site_symmetry_multiplicity
  _atom_site_fract_x
  _atom_site_fract_y
  _atom_site_fract_z
  _atom_site_occupancy
  Gd  Gd1       1.0  0.53600  0.76800  0.01810  1.0000
  Gd  Gd2       1.0  0.98200  0.25000  0.01810  1.0000
  Gd  Gd3       1.0  0.76800  0.51800  0.03620  1.0000
  Gd  Gd4       1.0  0.76800  0.25000  0.23200  1.0000
  Gd  Gd5       1.0  0.96400  0.98200  0.23200  1.0000
  Gd  Gd6       1.0  0.51800  0.53600  0.26800  1.0000
  Gd  Gd7       1.0  0.25000  0.73200  0.26800  1.0000
  Gd  Gd8       1.0  0.98200  0.73200  0.46400  1.0000
  Gd  Gd9       1.0  0.25000  0.51800  0.48200  1.0000
  Gd  Gd10      1.0  0.73200  0.96400  0.48200  1.0000
  Gd  Gd11      1.0  0.73200  0.76800  0.75000  1.0000
  Gd  Gd12      1.0  0.51800  0.98200  0.75000  1.0000
  I   I1        1.0  0.49300  0.00711  0.25000  1.0000
  I   I2        1.0  0.25700  0.24300  0.25000  1.0000
  I   I3        1.0  0.25700  0.01420  0.50700  1.0000
  I   I4        1.0  0.75000  0.49300  0.50700  1.0000
  I   I5        1.0  0.00711  0.25700  0.51400  1.0000
  I   I6        1.0  0.75000  0.25700  0.74300  1.0000
  I   I7        1.0  0.49300  0.48600  0.74300  1.0000
  I   I8        1.0  0.01420  0.00711  0.75700  1.0000
  I   I9        1.0  0.24300  0.75000  0.75700  1.0000
  I   I10       1.0  0.24300  0.49300  0.98600  1.0000
  I   I11       1.0  0.00711  0.75000  0.99300  1.0000
  I   I12       1.0  0.48600  0.24300  0.99300  1.0000
  Si  Si1       1.0  0.75000  0.00000  0.00000  1.0000
  Si  Si2       1.0  0.75000  0.75000  0.25000  1.0000
  Si  Si3       1.0  0.00000  0.50000  0.25000  1.0000
  Si  Si4       1.0  0.50000  0.75000  0.50000  1.0000
