data_image0
_chemical_formula_structural       Au4K4Se20
_chemical_formula_sum              "Au4 K4 Se20"
_cell_length_a       9.18501
_cell_length_b       11.1679
_cell_length_c       11.1679
_cell_angle_alpha    97.748
_cell_angle_beta     114.282
_cell_angle_gamma    114.282

_space_group_name_H-M_alt    "P 1"
_space_group_IT_number       1

loop_
  _space_group_symop_operation_xyz
  'x, y, z'

loop_
  _atom_site_type_symbol
  _atom_site_label
  _atom_site_symmetry_multiplicity
  _atom_site_fract_x
  _atom_site_fract_y
  _atom_site_fract_z
  _atom_site_occupancy
  Au  Au1       1.0  0.87000  0.62000  0.12000  1.0000
  Au  Au2       1.0  0.13000  0.88000  0.38000  1.0000
  Au  Au3       1.0  0.87000  0.12000  0.62000  1.0000
  Au  Au4       1.0  0.13000  0.38000  0.88000  1.0000
  K   K1        1.0  0.00000  0.00000  0.00000  1.0000
  K   K2        1.0  0.50000  0.75000  0.25000  1.0000
  K   K3        1.0  0.00000  0.50000  0.50000  1.0000
  K   K4        1.0  0.50000  0.25000  0.75000  1.0000
  Se  Se1       1.0  0.67300  0.72000  0.02760  1.0000
  Se  Se2       1.0  0.89600  0.28800  0.06000  1.0000
  Se  Se3       1.0  0.72200  0.15000  0.15000  1.0000
  Se  Se4       1.0  0.54900  0.44000  0.21200  1.0000
  Se  Se5       1.0  0.07500  0.52800  0.22000  1.0000
  Se  Se6       1.0  0.32700  0.97200  0.28000  1.0000
  Se  Se7       1.0  0.89600  0.06000  0.28800  1.0000
  Se  Se8       1.0  0.42200  0.35000  0.35000  1.0000
  Se  Se9       1.0  0.54900  0.21200  0.44000  1.0000
  Se  Se10      1.0  0.92500  0.78000  0.47200  1.0000
  Se  Se11      1.0  0.07500  0.22000  0.52800  1.0000
  Se  Se12      1.0  0.45100  0.78800  0.56000  1.0000
  Se  Se13      1.0  0.57800  0.65000  0.65000  1.0000
  Se  Se14      1.0  0.10400  0.94000  0.71200  1.0000
  Se  Se15      1.0  0.67300  0.02760  0.72000  1.0000
  Se  Se16      1.0  0.92500  0.47200  0.78000  1.0000
  Se  Se17      1.0  0.45100  0.56000  0.78800  1.0000
  Se  Se18      1.0  0.27800  0.85000  0.85000  1.0000
  Se  Se19      1.0  0.10400  0.71200  0.94000  1.0000
  Se  Se20      1.0  0.32700  0.28000  0.97200  1.0000
