data_image0
_chemical_formula_structural       N4S12Sm12
_chemical_formula_sum              "N4 S12 Sm12"
_cell_length_a       12.1334
_cell_length_b       3.95441
_cell_length_c       13.0035
_cell_angle_alpha    90
_cell_angle_beta     90
_cell_angle_gamma    90

_space_group_name_H-M_alt    "P 1"
_space_group_IT_number       1

loop_
  _space_group_symop_operation_xyz
  'x, y, z'

loop_
  _atom_site_type_symbol
  _atom_site_label
  _atom_site_symmetry_multiplicity
  _atom_site_fract_x
  _atom_site_fract_y
  _atom_site_fract_z
  _atom_site_occupancy
  N   N1        1.0  0.95700  0.75000  0.20100  1.0000
  N   N2        1.0  0.45700  0.75000  0.29900  1.0000
  N   N3        1.0  0.54300  0.25000  0.70100  1.0000
  N   N4        1.0  0.04290  0.25000  0.79900  1.0000
  S   S1        1.0  0.86300  0.25000  0.00545  1.0000
  S   S2        1.0  0.58500  0.25000  0.10500  1.0000
  S   S3        1.0  0.27100  0.25000  0.19600  1.0000
  S   S4        1.0  0.77100  0.25000  0.30400  1.0000
  S   S5        1.0  0.08510  0.25000  0.39500  1.0000
  S   S6        1.0  0.36300  0.25000  0.49500  1.0000
  S   S7        1.0  0.63700  0.75000  0.50500  1.0000
  S   S8        1.0  0.91500  0.75000  0.60500  1.0000
  S   S9        1.0  0.22900  0.75000  0.69600  1.0000
  S   S10       1.0  0.72900  0.75000  0.80400  1.0000
  S   S11       1.0  0.41500  0.75000  0.89500  1.0000
  S   S12       1.0  0.13700  0.75000  0.99500  1.0000
  Sm  Sm1       1.0  0.42200  0.75000  0.13000  1.0000
  Sm  Sm2       1.0  0.78100  0.75000  0.13600  1.0000
  Sm  Sm3       1.0  0.04270  0.25000  0.14700  1.0000
  Sm  Sm4       1.0  0.54300  0.25000  0.35300  1.0000
  Sm  Sm5       1.0  0.28100  0.75000  0.36400  1.0000
  Sm  Sm6       1.0  0.92200  0.75000  0.37000  1.0000
  Sm  Sm7       1.0  0.07760  0.25000  0.63000  1.0000
  Sm  Sm8       1.0  0.71900  0.25000  0.63600  1.0000
  Sm  Sm9       1.0  0.45700  0.75000  0.64700  1.0000
  Sm  Sm10      1.0  0.95700  0.75000  0.85300  1.0000
  Sm  Sm11      1.0  0.21900  0.25000  0.86400  1.0000
  Sm  Sm12      1.0  0.57800  0.25000  0.87000  1.0000
