data_image0
_chemical_formula_structural       Mo4N12Na12
_chemical_formula_sum              "Mo4 N12 Na12"
_cell_length_a       6.34254
_cell_length_b       8.77068
_cell_length_c       8.77068
_cell_angle_alpha    103.87
_cell_angle_beta     111.01
_cell_angle_gamma    68.9901

_space_group_name_H-M_alt    "P 1"
_space_group_IT_number       1

loop_
  _space_group_symop_operation_xyz
  'x, y, z'

loop_
  _atom_site_type_symbol
  _atom_site_label
  _atom_site_symmetry_multiplicity
  _atom_site_fract_x
  _atom_site_fract_y
  _atom_site_fract_z
  _atom_site_occupancy
  Mo  Mo1       1.0  0.92100  0.50300  0.00510  1.0000
  Mo  Mo2       1.0  0.49900  0.23700  0.24100  1.0000
  Mo  Mo3       1.0  0.42100  0.99500  0.49700  1.0000
  Mo  Mo4       1.0  0.99900  0.75900  0.76300  1.0000
  N   N1        1.0  0.68100  0.16000  0.10200  1.0000
  N   N2        1.0  0.17300  0.31900  0.11000  1.0000
  N   N3        1.0  0.76000  0.63300  0.14900  1.0000
  N   N4        1.0  0.54500  0.05860  0.35800  1.0000
  N   N5        1.0  0.26000  0.85100  0.36700  1.0000
  N   N6        1.0  0.59000  0.40400  0.38900  1.0000
  N   N7        1.0  0.21500  0.17000  0.58000  1.0000
  N   N8        1.0  0.09040  0.61100  0.59600  1.0000
  N   N9        1.0  0.67300  0.89000  0.68100  1.0000
  N   N10       1.0  0.71500  0.42000  0.83000  1.0000
  N   N11       1.0  0.18100  0.89800  0.84000  1.0000
  N   N12       1.0  0.04500  0.64200  0.94100  1.0000
  Na  Na1       1.0  0.46100  0.47300  0.00817  1.0000
  Na  Na2       1.0  0.38000  0.85400  0.12400  1.0000
  Na  Na3       1.0  0.88000  0.87600  0.14600  1.0000
  Na  Na4       1.0  0.98100  0.27600  0.29400  1.0000
  Na  Na5       1.0  0.19000  0.60300  0.35400  1.0000
  Na  Na6       1.0  0.69000  0.64600  0.39700  1.0000
  Na  Na7       1.0  0.96100  0.99200  0.52700  1.0000
  Na  Na8       1.0  0.42300  0.36200  0.59800  1.0000
  Na  Na9       1.0  0.92300  0.40200  0.63800  1.0000
  Na  Na10      1.0  0.48100  0.70600  0.72400  1.0000
  Na  Na11      1.0  0.37700  0.09340  0.85900  1.0000
  Na  Na12      1.0  0.87700  0.14100  0.90700  1.0000
