data_image0
_chemical_formula_structural       Cl4La4O16W4
_chemical_formula_sum              "Cl4 La4 O16 W4"
_cell_length_a       5.80959
_cell_length_b       3.99941
_cell_length_c       19.0552
_cell_angle_alpha    89.999
_cell_angle_beta     90
_cell_angle_gamma    90

_space_group_name_H-M_alt    "P 1"
_space_group_IT_number       1

loop_
  _space_group_symop_operation_xyz
  'x, y, z'

loop_
  _atom_site_type_symbol
  _atom_site_label
  _atom_site_symmetry_multiplicity
  _atom_site_fract_x
  _atom_site_fract_y
  _atom_site_fract_z
  _atom_site_occupancy
  Cl  Cl1       1.0  0.75000  0.75200  0.01590  1.0000
  Cl  Cl2       1.0  0.25000  0.25200  0.48400  1.0000
  Cl  Cl3       1.0  0.75000  0.74800  0.51600  1.0000
  Cl  Cl4       1.0  0.25000  0.24800  0.98400  1.0000
  La  La1       1.0  0.25000  0.74800  0.10100  1.0000
  La  La2       1.0  0.75000  0.24800  0.39900  1.0000
  La  La3       1.0  0.25000  0.75200  0.60100  1.0000
  La  La4       1.0  0.75000  0.25200  0.89900  1.0000
  O   O1        1.0  0.02030  0.25200  0.13200  1.0000
  O   O2        1.0  0.48000  0.25200  0.13200  1.0000
  O   O3        1.0  0.75000  0.73600  0.17600  1.0000
  O   O4        1.0  0.25000  0.75600  0.22700  1.0000
  O   O5        1.0  0.75000  0.25600  0.27300  1.0000
  O   O6        1.0  0.25000  0.23600  0.32400  1.0000
  O   O7        1.0  0.52000  0.75200  0.36800  1.0000
  O   O8        1.0  0.98000  0.75200  0.36800  1.0000
  O   O9        1.0  0.02030  0.24800  0.63200  1.0000
  O   O10       1.0  0.48000  0.24800  0.63200  1.0000
  O   O11       1.0  0.75000  0.76400  0.67600  1.0000
  O   O12       1.0  0.25000  0.74400  0.72700  1.0000
  O   O13       1.0  0.75000  0.24400  0.77300  1.0000
  O   O14       1.0  0.25000  0.26400  0.82400  1.0000
  O   O15       1.0  0.52000  0.74800  0.86800  1.0000
  O   O16       1.0  0.98000  0.74800  0.86800  1.0000
  W   W1        1.0  0.75000  0.18500  0.18000  1.0000
  W   W2        1.0  0.25000  0.68500  0.32000  1.0000
  W   W3        1.0  0.75000  0.31500  0.68000  1.0000
  W   W4        1.0  0.25000  0.81500  0.82000  1.0000
