data_image0
_chemical_formula_structural       Cu8O4Ti16
_chemical_formula_sum              "Cu8 O4 Ti16"
_cell_length_a       8.06127
_cell_length_b       8.06127
_cell_length_c       8.06127
_cell_angle_alpha    120
_cell_angle_beta     90
_cell_angle_gamma    120

_space_group_name_H-M_alt    "P 1"
_space_group_IT_number       1

loop_
  _space_group_symop_operation_xyz
  'x, y, z'

loop_
  _atom_site_type_symbol
  _atom_site_label
  _atom_site_symmetry_multiplicity
  _atom_site_fract_x
  _atom_site_fract_y
  _atom_site_fract_z
  _atom_site_occupancy
  Cu  Cu1       1.0  0.66700  0.33400  0.00030  1.0000
  Cu  Cu2       1.0  0.08320  0.16600  0.25000  1.0000
  Cu  Cu3       1.0  0.66700  0.33400  0.33300  1.0000
  Cu  Cu4       1.0  0.66700  0.66600  0.33300  1.0000
  Cu  Cu5       1.0  0.00000  0.66600  0.33300  1.0000
  Cu  Cu6       1.0  0.08320  0.16600  0.91700  1.0000
  Cu  Cu7       1.0  0.08320  0.83400  0.91700  1.0000
  Cu  Cu8       1.0  0.75000  0.83400  0.91700  1.0000
  O   O1        1.0  0.37500  0.75000  0.12500  1.0000
  O   O2        1.0  0.37500  0.25000  0.62500  1.0000
  O   O3        1.0  0.37500  0.75000  0.62500  1.0000
  O   O4        1.0  0.87500  0.25000  0.62500  1.0000
  Ti  Ti1       1.0  0.37500  0.25000  0.12500  1.0000
  Ti  Ti2       1.0  0.87500  0.75000  0.12500  1.0000
  Ti  Ti3       1.0  0.87500  0.25000  0.12500  1.0000
  Ti  Ti4       1.0  0.31900  0.00000  0.31900  1.0000
  Ti  Ti5       1.0  0.68100  0.00000  0.31900  1.0000
  Ti  Ti6       1.0  0.31900  0.63900  0.31900  1.0000
  Ti  Ti7       1.0  0.06950  0.13900  0.56900  1.0000
  Ti  Ti8       1.0  0.06950  0.50000  0.56900  1.0000
  Ti  Ti9       1.0  0.43100  0.50000  0.56900  1.0000
  Ti  Ti10      1.0  0.87500  0.75000  0.62500  1.0000
  Ti  Ti11      1.0  0.31900  0.00000  0.68100  1.0000
  Ti  Ti12      1.0  0.68100  0.00000  0.68100  1.0000
  Ti  Ti13      1.0  0.68100  0.36100  0.68100  1.0000
  Ti  Ti14      1.0  0.06950  0.50000  0.93100  1.0000
  Ti  Ti15      1.0  0.43100  0.50000  0.93100  1.0000
  Ti  Ti16      1.0  0.43100  0.86100  0.93100  1.0000
