data_image0
_chemical_formula_structural       N12Na12W4
_chemical_formula_sum              "N12 Na12 W4"
_cell_length_a       6.37327
_cell_length_b       8.78733
_cell_length_c       8.78733
_cell_angle_alpha    103.311
_cell_angle_beta     111.005
_cell_angle_gamma    68.9954

_space_group_name_H-M_alt    "P 1"
_space_group_IT_number       1

loop_
  _space_group_symop_operation_xyz
  'x, y, z'

loop_
  _atom_site_type_symbol
  _atom_site_label
  _atom_site_symmetry_multiplicity
  _atom_site_fract_x
  _atom_site_fract_y
  _atom_site_fract_z
  _atom_site_occupancy
  N   N1        1.0  0.67200  0.16400  0.09730  1.0000
  N   N2        1.0  0.16900  0.32300  0.11700  1.0000
  N   N3        1.0  0.75600  0.63600  0.14500  1.0000
  N   N4        1.0  0.55200  0.05460  0.35600  1.0000
  N   N5        1.0  0.25600  0.85500  0.36400  1.0000
  N   N6        1.0  0.59100  0.40200  0.38800  1.0000
  N   N7        1.0  0.22100  0.17100  0.57800  1.0000
  N   N8        1.0  0.09130  0.61200  0.59800  1.0000
  N   N9        1.0  0.66900  0.88300  0.67700  1.0000
  N   N10       1.0  0.72100  0.42200  0.82900  1.0000
  N   N11       1.0  0.17200  0.90300  0.83600  1.0000
  N   N12       1.0  0.05170  0.64400  0.94500  1.0000
  Na  Na1       1.0  0.46700  0.47200  0.00677  1.0000
  Na  Na2       1.0  0.37500  0.85100  0.12000  1.0000
  Na  Na3       1.0  0.87500  0.88000  0.14900  1.0000
  Na  Na4       1.0  0.97600  0.27500  0.29600  1.0000
  Na  Na5       1.0  0.19300  0.60600  0.35900  1.0000
  Na  Na6       1.0  0.69300  0.64100  0.39400  1.0000
  Na  Na7       1.0  0.96700  0.99300  0.52800  1.0000
  Na  Na8       1.0  0.42300  0.36600  0.60100  1.0000
  Na  Na9       1.0  0.92300  0.39900  0.63400  1.0000
  Na  Na10      1.0  0.47600  0.70400  0.72500  1.0000
  Na  Na11      1.0  0.37400  0.09230  0.85500  1.0000
  Na  Na12      1.0  0.87400  0.14500  0.90800  1.0000
  W   W1        1.0  0.92400  0.50600  0.00659  1.0000
  W   W2        1.0  0.49600  0.23700  0.24100  1.0000
  W   W3        1.0  0.42400  0.99300  0.49400  1.0000
  W   W4        1.0  0.99600  0.75900  0.76300  1.0000
