data_image0
_chemical_formula_structural       Al12I4Te12
_chemical_formula_sum              "Al12 I4 Te12"
_cell_length_a       11.6263
_cell_length_b       4.15494
_cell_length_c       21.205
_cell_angle_alpha    90
_cell_angle_beta     90
_cell_angle_gamma    90

_space_group_name_H-M_alt    "P 1"
_space_group_IT_number       1

loop_
  _space_group_symop_operation_xyz
  'x, y, z'

loop_
  _atom_site_type_symbol
  _atom_site_label
  _atom_site_symmetry_multiplicity
  _atom_site_fract_x
  _atom_site_fract_y
  _atom_site_fract_z
  _atom_site_occupancy
  Al  Al1       1.0  0.83600  0.75000  0.00571  1.0000
  Al  Al2       1.0  0.04370  0.25000  0.09530  1.0000
  Al  Al3       1.0  0.32400  0.75000  0.12900  1.0000
  Al  Al4       1.0  0.82400  0.75000  0.37100  1.0000
  Al  Al5       1.0  0.54400  0.25000  0.40500  1.0000
  Al  Al6       1.0  0.33600  0.75000  0.49400  1.0000
  Al  Al7       1.0  0.66400  0.25000  0.50600  1.0000
  Al  Al8       1.0  0.45600  0.75000  0.59500  1.0000
  Al  Al9       1.0  0.17600  0.25000  0.62900  1.0000
  Al  Al10      1.0  0.67600  0.25000  0.87100  1.0000
  Al  Al11      1.0  0.95600  0.75000  0.90500  1.0000
  Al  Al12      1.0  0.16400  0.25000  0.99400  1.0000
  I   I1        1.0  0.53100  0.75000  0.16500  1.0000
  I   I2        1.0  0.03130  0.75000  0.33500  1.0000
  I   I3        1.0  0.96900  0.25000  0.66500  1.0000
  I   I4        1.0  0.46900  0.25000  0.83500  1.0000
  Te  Te1       1.0  0.31400  0.75000  0.00270  1.0000
  Te  Te2       1.0  0.90600  0.75000  0.12600  1.0000
  Te  Te3       1.0  0.21400  0.25000  0.18200  1.0000
  Te  Te4       1.0  0.71400  0.25000  0.31800  1.0000
  Te  Te5       1.0  0.40600  0.75000  0.37400  1.0000
  Te  Te6       1.0  0.81400  0.75000  0.49700  1.0000
  Te  Te7       1.0  0.18600  0.25000  0.50300  1.0000
  Te  Te8       1.0  0.59400  0.25000  0.62600  1.0000
  Te  Te9       1.0  0.28600  0.75000  0.68200  1.0000
  Te  Te10      1.0  0.78600  0.75000  0.81800  1.0000
  Te  Te11      1.0  0.09410  0.25000  0.87400  1.0000
  Te  Te12      1.0  0.68600  0.25000  0.99700  1.0000
