data_image0
_chemical_formula_structural       Ce2K6O16P4
_chemical_formula_sum              "Ce2 K6 O16 P4"
_cell_length_a       9.59749
_cell_length_b       5.62711
_cell_length_c       7.42303
_cell_angle_alpha    90
_cell_angle_beta     90.6409
_cell_angle_gamma    90

_space_group_name_H-M_alt    "P 1"
_space_group_IT_number       1

loop_
  _space_group_symop_operation_xyz
  'x, y, z'

loop_
  _atom_site_type_symbol
  _atom_site_label
  _atom_site_symmetry_multiplicity
  _atom_site_fract_x
  _atom_site_fract_y
  _atom_site_fract_z
  _atom_site_occupancy
  Ce  Ce1       1.0  0.79400  0.75000  0.00886  1.0000
  Ce  Ce2       1.0  0.20600  0.25000  0.99100  1.0000
  K   K1        1.0  0.58300  0.25000  0.19900  1.0000
  K   K2        1.0  0.09580  0.75000  0.36400  1.0000
  K   K3        1.0  0.31000  0.25000  0.48900  1.0000
  K   K4        1.0  0.69000  0.75000  0.51100  1.0000
  K   K5        1.0  0.90400  0.25000  0.63600  1.0000
  K   K6        1.0  0.41700  0.75000  0.80100  1.0000
  O   O1        1.0  0.06200  0.75000  0.00378  1.0000
  O   O2        1.0  0.34300  0.52500  0.16000  1.0000
  O   O3        1.0  0.34300  0.97500  0.16000  1.0000
  O   O4        1.0  0.57100  0.75000  0.18300  1.0000
  O   O5        1.0  0.84500  0.02450  0.26600  1.0000
  O   O6        1.0  0.84500  0.47500  0.26600  1.0000
  O   O7        1.0  0.07450  0.25000  0.28700  1.0000
  O   O8        1.0  0.40100  0.75000  0.44600  1.0000
  O   O9        1.0  0.59900  0.25000  0.55400  1.0000
  O   O10       1.0  0.92500  0.75000  0.71300  1.0000
  O   O11       1.0  0.15500  0.52500  0.73400  1.0000
  O   O12       1.0  0.15500  0.97500  0.73400  1.0000
  O   O13       1.0  0.42900  0.25000  0.81700  1.0000
  O   O14       1.0  0.65700  0.02530  0.84000  1.0000
  O   O15       1.0  0.65700  0.47500  0.84000  1.0000
  O   O16       1.0  0.93800  0.25000  0.99600  1.0000
  P   P1        1.0  0.92400  0.25000  0.20500  1.0000
  P   P2        1.0  0.41500  0.75000  0.24000  1.0000
  P   P3        1.0  0.58500  0.25000  0.76000  1.0000
  P   P4        1.0  0.07550  0.75000  0.79500  1.0000
