data_image0
_chemical_formula_structural       Ba2F18Ni7
_chemical_formula_sum              "Ba2 F18 Ni7"
_cell_length_a       6.78023
_cell_length_b       7.11313
_cell_length_c       7.28548
_cell_angle_alpha    94.1201
_cell_angle_beta     93.9198
_cell_angle_gamma    115.665

_space_group_name_H-M_alt    "P 1"
_space_group_IT_number       1

loop_
  _space_group_symop_operation_xyz
  'x, y, z'

loop_
  _atom_site_type_symbol
  _atom_site_label
  _atom_site_symmetry_multiplicity
  _atom_site_fract_x
  _atom_site_fract_y
  _atom_site_fract_z
  _atom_site_occupancy
  Ba  Ba1       1.0  0.68500  0.30900  0.36900  1.0000
  Ba  Ba2       1.0  0.31500  0.69100  0.63100  1.0000
  F   F1        1.0  0.69000  0.48600  0.03320  1.0000
  F   F2        1.0  0.88300  0.22300  0.07920  1.0000
  F   F3        1.0  0.29900  0.17900  0.12500  1.0000
  F   F4        1.0  0.50100  0.92800  0.18100  1.0000
  F   F5        1.0  0.90800  0.88700  0.23400  1.0000
  F   F6        1.0  0.09040  0.60500  0.27900  1.0000
  F   F7        1.0  0.48400  0.56700  0.33100  1.0000
  F   F8        1.0  0.08740  0.29000  0.43800  1.0000
  F   F9        1.0  0.29100  0.01080  0.45100  1.0000
  F   F10       1.0  0.70900  0.98900  0.54900  1.0000
  F   F11       1.0  0.91300  0.71000  0.56200  1.0000
  F   F12       1.0  0.51600  0.43300  0.66900  1.0000
  F   F13       1.0  0.91000  0.39500  0.72100  1.0000
  F   F14       1.0  0.09250  0.11300  0.76600  1.0000
  F   F15       1.0  0.49900  0.07220  0.81900  1.0000
  F   F16       1.0  0.70100  0.82100  0.87500  1.0000
  F   F17       1.0  0.11700  0.77700  0.92100  1.0000
  F   F18       1.0  0.31000  0.51400  0.96700  1.0000
  Ni  Ni1       1.0  0.60400  0.72000  0.11700  1.0000
  Ni  Ni2       1.0  0.19200  0.87800  0.18200  1.0000
  Ni  Ni3       1.0  0.18000  0.38500  0.19700  1.0000
  Ni  Ni4       1.0  0.00000  0.00000  0.50000  1.0000
  Ni  Ni5       1.0  0.82000  0.61500  0.80300  1.0000
  Ni  Ni6       1.0  0.80800  0.12200  0.81800  1.0000
  Ni  Ni7       1.0  0.39600  0.28000  0.88300  1.0000
