data_image0
_chemical_formula_structural       Cl18Cs6Lu4
_chemical_formula_sum              "Cl18 Cs6 Lu4"
_cell_length_a       9.6969
_cell_length_b       9.69689
_cell_length_c       9.69689
_cell_angle_alpha    95.6601
_cell_angle_beta     84.3399
_cell_angle_gamma    95.6601

_space_group_name_H-M_alt    "P 1"
_space_group_IT_number       1

loop_
  _space_group_symop_operation_xyz
  'x, y, z'

loop_
  _atom_site_type_symbol
  _atom_site_label
  _atom_site_symmetry_multiplicity
  _atom_site_fract_x
  _atom_site_fract_y
  _atom_site_fract_z
  _atom_site_occupancy
  Cl  Cl1       1.0  0.91700  0.26100  0.07990  1.0000
  Cl  Cl2       1.0  0.26100  0.07990  0.08270  1.0000
  Cl  Cl3       1.0  0.40100  0.75000  0.09870  1.0000
  Cl  Cl4       1.0  0.41700  0.42000  0.23900  1.0000
  Cl  Cl5       1.0  0.09870  0.59900  0.25000  1.0000
  Cl  Cl6       1.0  0.92000  0.91700  0.26100  1.0000
  Cl  Cl7       1.0  0.25000  0.90100  0.40100  1.0000
  Cl  Cl8       1.0  0.58000  0.76100  0.41700  1.0000
  Cl  Cl9       1.0  0.76100  0.41700  0.42000  1.0000
  Cl  Cl10      1.0  0.23900  0.58300  0.58000  1.0000
  Cl  Cl11      1.0  0.42000  0.23900  0.58300  1.0000
  Cl  Cl12      1.0  0.75000  0.09870  0.59900  1.0000
  Cl  Cl13      1.0  0.07990  0.08270  0.73900  1.0000
  Cl  Cl14      1.0  0.90100  0.40100  0.75000  1.0000
  Cl  Cl15      1.0  0.58300  0.58000  0.76100  1.0000
  Cl  Cl16      1.0  0.59900  0.25000  0.90100  1.0000
  Cl  Cl17      1.0  0.73900  0.92000  0.91700  1.0000
  Cl  Cl18      1.0  0.08270  0.73900  0.92000  1.0000
  Cs  Cs1       1.0  0.75000  0.59000  0.08950  1.0000
  Cs  Cs2       1.0  0.59000  0.08950  0.25000  1.0000
  Cs  Cs3       1.0  0.08950  0.25000  0.41000  1.0000
  Cs  Cs4       1.0  0.91000  0.75000  0.59000  1.0000
  Cs  Cs5       1.0  0.41000  0.91000  0.75000  1.0000
  Cs  Cs6       1.0  0.25000  0.41000  0.91000  1.0000
  Lu  Lu1       1.0  0.15000  0.85000  0.15000  1.0000
  Lu  Lu2       1.0  0.35000  0.65000  0.35000  1.0000
  Lu  Lu3       1.0  0.65000  0.35000  0.65000  1.0000
  Lu  Lu4       1.0  0.85000  0.15000  0.85000  1.0000
