data_image0
_chemical_formula_structural       Au4C4Cl12S8
_chemical_formula_sum              "Au4 C4 Cl12 S8"
_cell_length_a       9.38945
_cell_length_b       9.38945
_cell_length_c       11.4516
_cell_angle_alpha    114.391
_cell_angle_beta     65.6091
_cell_angle_gamma    111.001

_space_group_name_H-M_alt    "P 1"
_space_group_IT_number       1

loop_
  _space_group_symop_operation_xyz
  'x, y, z'

loop_
  _atom_site_type_symbol
  _atom_site_label
  _atom_site_symmetry_multiplicity
  _atom_site_fract_x
  _atom_site_fract_y
  _atom_site_fract_z
  _atom_site_occupancy
  Au  Au1       1.0  0.70900  0.04670  0.03890  1.0000
  Au  Au2       1.0  0.04670  0.70900  0.46100  1.0000
  Au  Au3       1.0  0.95300  0.29100  0.53900  1.0000
  Au  Au4       1.0  0.29100  0.95300  0.96100  1.0000
  C   C1        1.0  0.70100  0.75100  0.04980  1.0000
  C   C2        1.0  0.75100  0.70100  0.45000  1.0000
  C   C3        1.0  0.24900  0.29900  0.55000  1.0000
  C   C4        1.0  0.29900  0.24900  0.95000  1.0000
  Cl  Cl1       1.0  0.69700  0.57300  0.05510  1.0000
  Cl  Cl2       1.0  0.12200  0.80100  0.10600  1.0000
  Cl  Cl3       1.0  0.54800  0.23400  0.17000  1.0000
  Cl  Cl4       1.0  0.23400  0.54800  0.33000  1.0000
  Cl  Cl5       1.0  0.80100  0.12200  0.39400  1.0000
  Cl  Cl6       1.0  0.57300  0.69700  0.44500  1.0000
  Cl  Cl7       1.0  0.42700  0.30300  0.55500  1.0000
  Cl  Cl8       1.0  0.19900  0.87800  0.60600  1.0000
  Cl  Cl9       1.0  0.76600  0.45200  0.67000  1.0000
  Cl  Cl10      1.0  0.45200  0.76600  0.83000  1.0000
  Cl  Cl11      1.0  0.87800  0.19900  0.89400  1.0000
  Cl  Cl12      1.0  0.30300  0.42700  0.94500  1.0000
  S   S1        1.0  0.15900  0.16600  0.06930  1.0000
  S   S2        1.0  0.56500  0.86200  0.16200  1.0000
  S   S3        1.0  0.86200  0.56500  0.33800  1.0000
  S   S4        1.0  0.16600  0.15900  0.43100  1.0000
  S   S5        1.0  0.83400  0.84100  0.56900  1.0000
  S   S6        1.0  0.13800  0.43500  0.66200  1.0000
  S   S7        1.0  0.43500  0.13800  0.83800  1.0000
  S   S8        1.0  0.84100  0.83400  0.93100  1.0000
