data_image0
_chemical_formula_structural       Ge4Na4O16Y4
_chemical_formula_sum              "Ge4 Na4 O16 Y4"
_cell_length_a       11.2542
_cell_length_b       6.33663
_cell_length_c       5.22143
_cell_angle_alpha    90
_cell_angle_beta     90
_cell_angle_gamma    90

_space_group_name_H-M_alt    "P 1"
_space_group_IT_number       1

loop_
  _space_group_symop_operation_xyz
  'x, y, z'

loop_
  _atom_site_type_symbol
  _atom_site_label
  _atom_site_symmetry_multiplicity
  _atom_site_fract_x
  _atom_site_fract_y
  _atom_site_fract_z
  _atom_site_occupancy
  Ge  Ge1       1.0  0.09280  0.25000  0.56300  1.0000
  Ge  Ge2       1.0  0.40700  0.75000  0.06290  1.0000
  Ge  Ge3       1.0  0.59300  0.25000  0.93700  1.0000
  Ge  Ge4       1.0  0.90700  0.75000  0.43700  1.0000
  Na  Na1       1.0  0.00000  0.00000  0.00000  1.0000
  Na  Na2       1.0  0.50000  0.00000  0.50000  1.0000
  Na  Na3       1.0  0.50000  0.50000  0.50000  1.0000
  Na  Na4       1.0  0.00000  0.50000  0.00000  1.0000
  O   O1        1.0  0.17000  0.03850  0.72100  1.0000
  O   O2        1.0  0.33000  0.96200  0.22100  1.0000
  O   O3        1.0  0.67000  0.46200  0.77900  1.0000
  O   O4        1.0  0.83000  0.53800  0.27900  1.0000
  O   O5        1.0  0.83000  0.96200  0.27900  1.0000
  O   O6        1.0  0.67000  0.03850  0.77900  1.0000
  O   O7        1.0  0.33000  0.53800  0.22100  1.0000
  O   O8        1.0  0.17000  0.46200  0.72100  1.0000
  O   O9        1.0  0.94900  0.25000  0.69000  1.0000
  O   O10       1.0  0.55100  0.75000  0.19000  1.0000
  O   O11       1.0  0.44900  0.25000  0.81000  1.0000
  O   O12       1.0  0.05090  0.75000  0.31000  1.0000
  O   O13       1.0  0.60500  0.25000  0.26700  1.0000
  O   O14       1.0  0.89500  0.75000  0.76700  1.0000
  O   O15       1.0  0.10500  0.25000  0.23300  1.0000
  O   O16       1.0  0.39500  0.75000  0.73300  1.0000
  Y   Y1        1.0  0.27600  0.25000  0.00476  1.0000
  Y   Y2        1.0  0.22400  0.75000  0.50500  1.0000
  Y   Y3        1.0  0.77600  0.25000  0.49500  1.0000
  Y   Y4        1.0  0.72400  0.75000  0.99500  1.0000
