data_image0
_chemical_formula_structural       F12I2Sb2Se12
_chemical_formula_sum              "F12 I2 Sb2 Se12"
_cell_length_a       9.03885
_cell_length_b       6.79174
_cell_length_c       10.4614
_cell_angle_alpha    90
_cell_angle_beta     108.342
_cell_angle_gamma    90

_space_group_name_H-M_alt    "P 1"
_space_group_IT_number       1

loop_
  _space_group_symop_operation_xyz
  'x, y, z'

loop_
  _atom_site_type_symbol
  _atom_site_label
  _atom_site_symmetry_multiplicity
  _atom_site_fract_x
  _atom_site_fract_y
  _atom_site_fract_z
  _atom_site_occupancy
  F   F1        1.0  0.04010  0.24000  0.10200  1.0000
  F   F2        1.0  0.19500  0.90100  0.11400  1.0000
  F   F3        1.0  0.89500  0.88800  0.11700  1.0000
  F   F4        1.0  0.60500  0.88800  0.38300  1.0000
  F   F5        1.0  0.30500  0.90100  0.38600  1.0000
  F   F6        1.0  0.46000  0.24000  0.39800  1.0000
  F   F7        1.0  0.54000  0.76000  0.60200  1.0000
  F   F8        1.0  0.69500  0.09920  0.61400  1.0000
  F   F9        1.0  0.39500  0.11200  0.61700  1.0000
  F   F10       1.0  0.10500  0.11200  0.88300  1.0000
  F   F11       1.0  0.80500  0.09920  0.88600  1.0000
  F   F12       1.0  0.96000  0.76000  0.89800  1.0000
  I   I1        1.0  0.75000  0.26700  0.25000  1.0000
  I   I2        1.0  0.25000  0.73300  0.75000  1.0000
  Sb  Sb1       1.0  0.00000  0.00000  0.00000  1.0000
  Sb  Sb2       1.0  0.50000  0.00000  0.50000  1.0000
  Se  Se1       1.0  0.44000  0.23900  0.11000  1.0000
  Se  Se2       1.0  0.34600  0.56800  0.11900  1.0000
  Se  Se3       1.0  0.55700  0.76200  0.12000  1.0000
  Se  Se4       1.0  0.94300  0.76200  0.38000  1.0000
  Se  Se5       1.0  0.15400  0.56800  0.38100  1.0000
  Se  Se6       1.0  0.05960  0.23900  0.39000  1.0000
  Se  Se7       1.0  0.94000  0.76100  0.61000  1.0000
  Se  Se8       1.0  0.84600  0.43200  0.61900  1.0000
  Se  Se9       1.0  0.05740  0.23800  0.62000  1.0000
  Se  Se10      1.0  0.44300  0.23800  0.88000  1.0000
  Se  Se11      1.0  0.65400  0.43200  0.88100  1.0000
  Se  Se12      1.0  0.56000  0.76100  0.89000  1.0000
