data_image0
_chemical_formula_structural       Al4Ba4La4O16
_chemical_formula_sum              "Al4 Ba4 La4 O16"
_cell_length_a       9.83277
_cell_length_b       7.26365
_cell_length_c       5.81395
_cell_angle_alpha    90
_cell_angle_beta     90
_cell_angle_gamma    90

_space_group_name_H-M_alt    "P 1"
_space_group_IT_number       1

loop_
  _space_group_symop_operation_xyz
  'x, y, z'

loop_
  _atom_site_type_symbol
  _atom_site_label
  _atom_site_symmetry_multiplicity
  _atom_site_fract_x
  _atom_site_fract_y
  _atom_site_fract_z
  _atom_site_occupancy
  Al  Al1       1.0  0.66700  0.77800  0.23400  1.0000
  Al  Al2       1.0  0.33300  0.27800  0.26600  1.0000
  Al  Al3       1.0  0.83300  0.22200  0.73400  1.0000
  Al  Al4       1.0  0.16700  0.72200  0.76600  1.0000
  Ba  Ba1       1.0  0.66800  0.33900  0.24000  1.0000
  Ba  Ba2       1.0  0.33200  0.83900  0.26000  1.0000
  Ba  Ba3       1.0  0.83200  0.66100  0.74000  1.0000
  Ba  Ba4       1.0  0.16800  0.16100  0.76000  1.0000
  La  La1       1.0  0.05280  0.49800  0.23500  1.0000
  La  La2       1.0  0.94700  0.99800  0.26500  1.0000
  La  La3       1.0  0.44700  0.50200  0.73500  1.0000
  La  La4       1.0  0.55300  0.00238  0.76500  1.0000
  O   O1        1.0  0.42300  0.23600  0.00670  1.0000
  O   O2        1.0  0.56500  0.68500  0.00894  1.0000
  O   O3        1.0  0.70000  0.00061  0.12900  1.0000
  O   O4        1.0  0.82700  0.66500  0.24300  1.0000
  O   O5        1.0  0.17300  0.16500  0.25700  1.0000
  O   O6        1.0  0.30000  0.50100  0.37100  1.0000
  O   O7        1.0  0.43500  0.18500  0.49100  1.0000
  O   O8        1.0  0.57700  0.73600  0.49300  1.0000
  O   O9        1.0  0.07720  0.76400  0.50700  1.0000
  O   O10       1.0  0.93500  0.31500  0.50900  1.0000
  O   O11       1.0  0.80000  0.99900  0.62900  1.0000
  O   O12       1.0  0.67300  0.33500  0.74300  1.0000
  O   O13       1.0  0.32700  0.83500  0.75700  1.0000
  O   O14       1.0  0.20000  0.49900  0.87100  1.0000
  O   O15       1.0  0.06530  0.81500  0.99100  1.0000
  O   O16       1.0  0.92300  0.26400  0.99300  1.0000
