data_image0
_chemical_formula_structural       As4Li4Mn4O16
_chemical_formula_sum              "As4 Li4 Mn4 O16"
_cell_length_a       6.12656
_cell_length_b       10.7415
_cell_length_c       4.92407
_cell_angle_alpha    90
_cell_angle_beta     90
_cell_angle_gamma    90

_space_group_name_H-M_alt    "P 1"
_space_group_IT_number       1

loop_
  _space_group_symop_operation_xyz
  'x, y, z'

loop_
  _atom_site_type_symbol
  _atom_site_label
  _atom_site_symmetry_multiplicity
  _atom_site_fract_x
  _atom_site_fract_y
  _atom_site_fract_z
  _atom_site_occupancy
  As  As1       1.0  0.25000  0.58800  0.07330  1.0000
  As  As2       1.0  0.25000  0.08820  0.42700  1.0000
  As  As3       1.0  0.75000  0.91200  0.57300  1.0000
  As  As4       1.0  0.75000  0.41200  0.92700  1.0000
  Li  Li1       1.0  0.00000  0.00000  0.00000  1.0000
  Li  Li2       1.0  0.50000  0.00000  0.00000  1.0000
  Li  Li3       1.0  0.00000  0.50000  0.50000  1.0000
  Li  Li4       1.0  0.50000  0.50000  0.50000  1.0000
  Mn  Mn1       1.0  0.75000  0.72500  0.01250  1.0000
  Mn  Mn2       1.0  0.75000  0.22500  0.48700  1.0000
  Mn  Mn3       1.0  0.25000  0.77500  0.51300  1.0000
  Mn  Mn4       1.0  0.25000  0.27500  0.98700  1.0000
  O   O1        1.0  0.25000  0.44300  0.22000  1.0000
  O   O2        1.0  0.03190  0.66300  0.22800  1.0000
  O   O3        1.0  0.46800  0.66300  0.22800  1.0000
  O   O4        1.0  0.75000  0.90900  0.22800  1.0000
  O   O5        1.0  0.75000  0.40900  0.27200  1.0000
  O   O6        1.0  0.03190  0.16300  0.27200  1.0000
  O   O7        1.0  0.46800  0.16300  0.27200  1.0000
  O   O8        1.0  0.25000  0.94300  0.28000  1.0000
  O   O9        1.0  0.75000  0.05690  0.72000  1.0000
  O   O10       1.0  0.53200  0.83700  0.72800  1.0000
  O   O11       1.0  0.96800  0.83700  0.72800  1.0000
  O   O12       1.0  0.25000  0.59100  0.72800  1.0000
  O   O13       1.0  0.25000  0.09140  0.77200  1.0000
  O   O14       1.0  0.53200  0.33700  0.77200  1.0000
  O   O15       1.0  0.96800  0.33700  0.77200  1.0000
  O   O16       1.0  0.75000  0.55700  0.78000  1.0000
