data_image0
_chemical_formula_structural       Hg12I8Te8
_chemical_formula_sum              "Hg12 I8 Te8"
_cell_length_a       8.72629
_cell_length_b       8.72629
_cell_length_c       14.5368
_cell_angle_alpha    98.5204
_cell_angle_beta     98.5204
_cell_angle_gamma    68.9431

_space_group_name_H-M_alt    "P 1"
_space_group_IT_number       1

loop_
  _space_group_symop_operation_xyz
  'x, y, z'

loop_
  _atom_site_type_symbol
  _atom_site_label
  _atom_site_symmetry_multiplicity
  _atom_site_fract_x
  _atom_site_fract_y
  _atom_site_fract_z
  _atom_site_occupancy
  Hg  Hg1       1.0  0.00000  0.50000  0.00000  1.0000
  Hg  Hg2       1.0  0.69400  0.24600  0.02100  1.0000
  Hg  Hg3       1.0  0.11200  0.13300  0.17500  1.0000
  Hg  Hg4       1.0  0.32800  0.67200  0.25000  1.0000
  Hg  Hg5       1.0  0.86700  0.88800  0.32500  1.0000
  Hg  Hg6       1.0  0.75400  0.30600  0.47900  1.0000
  Hg  Hg7       1.0  0.50000  0.00000  0.50000  1.0000
  Hg  Hg8       1.0  0.24600  0.69400  0.52100  1.0000
  Hg  Hg9       1.0  0.13300  0.11200  0.67500  1.0000
  Hg  Hg10      1.0  0.67200  0.32800  0.75000  1.0000
  Hg  Hg11      1.0  0.88800  0.86700  0.82500  1.0000
  Hg  Hg12      1.0  0.30600  0.75400  0.97900  1.0000
  I   I1        1.0  0.86900  0.91000  0.11400  1.0000
  I   I2        1.0  0.38700  0.34900  0.11800  1.0000
  I   I3        1.0  0.65100  0.61300  0.38200  1.0000
  I   I4        1.0  0.08960  0.13100  0.38600  1.0000
  I   I5        1.0  0.91000  0.86900  0.61400  1.0000
  I   I6        1.0  0.34900  0.38700  0.61800  1.0000
  I   I7        1.0  0.61300  0.65100  0.88200  1.0000
  I   I8        1.0  0.13100  0.08960  0.88600  1.0000
  Te  Te1       1.0  0.86500  0.42600  0.13700  1.0000
  Te  Te2       1.0  0.40500  0.88000  0.15400  1.0000
  Te  Te3       1.0  0.12000  0.59500  0.34600  1.0000
  Te  Te4       1.0  0.57400  0.13500  0.36300  1.0000
  Te  Te5       1.0  0.42600  0.86500  0.63700  1.0000
  Te  Te6       1.0  0.88000  0.40500  0.65400  1.0000
  Te  Te7       1.0  0.59500  0.12000  0.84600  1.0000
  Te  Te8       1.0  0.13500  0.57400  0.86300  1.0000
