data_image0
_chemical_formula_structural       Li4O16Sc4Si4
_chemical_formula_sum              "Li4 O16 Sc4 Si4"
_cell_length_a       4.80203
_cell_length_b       10.395
_cell_length_c       5.94978
_cell_angle_alpha    90
_cell_angle_beta     90
_cell_angle_gamma    90

_space_group_name_H-M_alt    "P 1"
_space_group_IT_number       1

loop_
  _space_group_symop_operation_xyz
  'x, y, z'

loop_
  _atom_site_type_symbol
  _atom_site_label
  _atom_site_symmetry_multiplicity
  _atom_site_fract_x
  _atom_site_fract_y
  _atom_site_fract_z
  _atom_site_occupancy
  Li  Li1       1.0  0.00000  0.00000  0.00000  1.0000
  Li  Li2       1.0  0.50000  0.50000  0.00000  1.0000
  Li  Li3       1.0  0.00000  0.00000  0.50000  1.0000
  Li  Li4       1.0  0.50000  0.50000  0.50000  1.0000
  O   O1        1.0  0.28000  0.16700  0.03750  1.0000
  O   O2        1.0  0.22000  0.66700  0.03750  1.0000
  O   O3        1.0  0.76600  0.09800  0.25000  1.0000
  O   O4        1.0  0.20400  0.44600  0.25000  1.0000
  O   O5        1.0  0.73400  0.59800  0.25000  1.0000
  O   O6        1.0  0.29600  0.94600  0.25000  1.0000
  O   O7        1.0  0.28000  0.16700  0.46200  1.0000
  O   O8        1.0  0.22000  0.66700  0.46200  1.0000
  O   O9        1.0  0.78000  0.33300  0.53800  1.0000
  O   O10       1.0  0.72000  0.83300  0.53800  1.0000
  O   O11       1.0  0.70400  0.05440  0.75000  1.0000
  O   O12       1.0  0.26600  0.40200  0.75000  1.0000
  O   O13       1.0  0.79600  0.55400  0.75000  1.0000
  O   O14       1.0  0.23400  0.90200  0.75000  1.0000
  O   O15       1.0  0.78000  0.33300  0.96200  1.0000
  O   O16       1.0  0.72000  0.83300  0.96200  1.0000
  Sc  Sc1       1.0  0.99200  0.27400  0.25000  1.0000
  Sc  Sc2       1.0  0.50800  0.77400  0.25000  1.0000
  Sc  Sc3       1.0  0.49200  0.22600  0.75000  1.0000
  Sc  Sc4       1.0  0.00809  0.72600  0.75000  1.0000
  Si  Si1       1.0  0.43100  0.08950  0.25000  1.0000
  Si  Si2       1.0  0.06910  0.58900  0.25000  1.0000
  Si  Si3       1.0  0.93100  0.41100  0.75000  1.0000
  Si  Si4       1.0  0.56900  0.91100  0.75000  1.0000
