data_image0
_chemical_formula_structural       O20U2V6
_chemical_formula_sum              "O20 U2 V6"
_cell_length_a       7.01299
_cell_length_b       6.9681
_cell_length_c       8.74055
_cell_angle_alpha    101.647
_cell_angle_beta     113.652
_cell_angle_gamma    59.7867

_space_group_name_H-M_alt    "P 1"
_space_group_IT_number       1

loop_
  _space_group_symop_operation_xyz
  'x, y, z'

loop_
  _atom_site_type_symbol
  _atom_site_label
  _atom_site_symmetry_multiplicity
  _atom_site_fract_x
  _atom_site_fract_y
  _atom_site_fract_z
  _atom_site_occupancy
  O   O1        1.0  0.79100  0.41900  0.00000  1.0000
  O   O2        1.0  0.20900  0.58100  0.00000  1.0000
  O   O3        1.0  0.19800  0.20700  0.00231  1.0000
  O   O4        1.0  0.80500  0.79300  0.00231  1.0000
  O   O5        1.0  0.11100  0.00000  0.22300  1.0000
  O   O6        1.0  0.62300  0.00000  0.24600  1.0000
  O   O7        1.0  0.62700  0.50000  0.25400  1.0000
  O   O8        1.0  0.13900  0.50000  0.27700  1.0000
  O   O9        1.0  0.05240  0.29300  0.49800  1.0000
  O   O10       1.0  0.44500  0.70700  0.49800  1.0000
  O   O11       1.0  0.45900  0.08140  0.50000  1.0000
  O   O12       1.0  0.04070  0.91900  0.50000  1.0000
  O   O13       1.0  0.65500  0.29300  0.50200  1.0000
  O   O14       1.0  0.84800  0.70700  0.50200  1.0000
  O   O15       1.0  0.36100  0.50000  0.72300  1.0000
  O   O16       1.0  0.87300  0.50000  0.74600  1.0000
  O   O17       1.0  0.37700  0.00000  0.75400  1.0000
  O   O18       1.0  0.88900  0.00000  0.77700  1.0000
  O   O19       1.0  0.59500  0.20700  0.99800  1.0000
  O   O20       1.0  0.40200  0.79300  0.99800  1.0000
  U   U1        1.0  0.00000  0.00000  0.00000  1.0000
  U   U2        1.0  0.25000  0.50000  0.50000  1.0000
  V   V1        1.0  0.50000  0.00000  0.00000  1.0000
  V   V2        1.0  0.52300  0.50000  0.04630  1.0000
  V   V3        1.0  0.72700  0.00000  0.45400  1.0000
  V   V4        1.0  0.75000  0.50000  0.50000  1.0000
  V   V5        1.0  0.27300  0.00000  0.54600  1.0000
  V   V6        1.0  0.97700  0.50000  0.95400  1.0000
