data_image0
_chemical_formula_structural       Al2Ba6Ho2O15Rh2
_chemical_formula_sum              "Al2 Ba6 Ho2 O15 Rh2"
_cell_length_a       5.90094
_cell_length_b       5.90094
_cell_length_c       14.4433
_cell_angle_alpha    90
_cell_angle_beta     90
_cell_angle_gamma    120

_space_group_name_H-M_alt    "P 1"
_space_group_IT_number       1

loop_
  _space_group_symop_operation_xyz
  'x, y, z'

loop_
  _atom_site_type_symbol
  _atom_site_label
  _atom_site_symmetry_multiplicity
  _atom_site_fract_x
  _atom_site_fract_y
  _atom_site_fract_z
  _atom_site_occupancy
  Al  Al1       1.0  0.66700  0.33300  0.10200  1.0000
  Al  Al2       1.0  0.66700  0.33300  0.89800  1.0000
  Ba  Ba1       1.0  0.00000  0.00000  0.00000  1.0000
  Ba  Ba2       1.0  0.33300  0.66700  0.17900  1.0000
  Ba  Ba3       1.0  0.66700  0.33300  0.35600  1.0000
  Ba  Ba4       1.0  0.00000  0.00000  0.50000  1.0000
  Ba  Ba5       1.0  0.66700  0.33300  0.64400  1.0000
  Ba  Ba6       1.0  0.33300  0.66700  0.82100  1.0000
  Ho  Ho1       1.0  0.00000  0.00000  0.24300  1.0000
  Ho  Ho2       1.0  0.00000  0.00000  0.75700  1.0000
  O   O1        1.0  0.34200  0.17100  0.14200  1.0000
  O   O2        1.0  0.82900  0.17100  0.14200  1.0000
  O   O3        1.0  0.82900  0.65800  0.14200  1.0000
  O   O4        1.0  0.17400  0.34800  0.32900  1.0000
  O   O5        1.0  0.17400  0.82600  0.32900  1.0000
  O   O6        1.0  0.65200  0.82600  0.32900  1.0000
  O   O7        1.0  0.02070  0.51000  0.50000  1.0000
  O   O8        1.0  0.49000  0.51000  0.50000  1.0000
  O   O9        1.0  0.49000  0.97900  0.50000  1.0000
  O   O10       1.0  0.17400  0.82600  0.67100  1.0000
  O   O11       1.0  0.65200  0.82600  0.67100  1.0000
  O   O12       1.0  0.17400  0.34800  0.67100  1.0000
  O   O13       1.0  0.82900  0.65800  0.85800  1.0000
  O   O14       1.0  0.34200  0.17100  0.85800  1.0000
  O   O15       1.0  0.82900  0.17100  0.85800  1.0000
  Rh  Rh1       1.0  0.33300  0.66700  0.41000  1.0000
  Rh  Rh2       1.0  0.33300  0.66700  0.59000  1.0000
