data_image0
_chemical_formula_structural       O16Pr8Sr4
_chemical_formula_sum              "O16 Pr8 Sr4"
_cell_length_a       10.1142
_cell_length_b       12.3047
_cell_length_c       3.61793
_cell_angle_alpha    90
_cell_angle_beta     90
_cell_angle_gamma    90

_space_group_name_H-M_alt    "P 1"
_space_group_IT_number       1

loop_
  _space_group_symop_operation_xyz
  'x, y, z'

loop_
  _atom_site_type_symbol
  _atom_site_label
  _atom_site_symmetry_multiplicity
  _atom_site_fract_x
  _atom_site_fract_y
  _atom_site_fract_z
  _atom_site_occupancy
  O   O1        1.0  0.99100  0.71500  0.25600  1.0000
  O   O2        1.0  0.49100  0.78500  0.25600  1.0000
  O   O3        1.0  0.64700  0.01000  0.25600  1.0000
  O   O4        1.0  0.14700  0.49000  0.25600  1.0000
  O   O5        1.0  0.22500  0.19200  0.25800  1.0000
  O   O6        1.0  0.72500  0.30800  0.25800  1.0000
  O   O7        1.0  0.93700  0.08520  0.25800  1.0000
  O   O8        1.0  0.43700  0.41500  0.25800  1.0000
  O   O9        1.0  0.50900  0.21500  0.75600  1.0000
  O   O10       1.0  0.00944  0.28500  0.75600  1.0000
  O   O11       1.0  0.85300  0.51000  0.75600  1.0000
  O   O12       1.0  0.35300  0.99000  0.75600  1.0000
  O   O13       1.0  0.27500  0.69200  0.75800  1.0000
  O   O14       1.0  0.77500  0.80800  0.75800  1.0000
  O   O15       1.0  0.56300  0.58500  0.75800  1.0000
  O   O16       1.0  0.06330  0.91500  0.75800  1.0000
  Pr  Pr1       1.0  0.43700  0.11800  0.25600  1.0000
  Pr  Pr2       1.0  0.93700  0.38200  0.25600  1.0000
  Pr  Pr3       1.0  0.39900  0.60600  0.25800  1.0000
  Pr  Pr4       1.0  0.89900  0.89400  0.25800  1.0000
  Pr  Pr5       1.0  0.06300  0.61800  0.75600  1.0000
  Pr  Pr6       1.0  0.56300  0.88200  0.75600  1.0000
  Pr  Pr7       1.0  0.10100  0.10600  0.75800  1.0000
  Pr  Pr8       1.0  0.60100  0.39400  0.75800  1.0000
  Sr  Sr1       1.0  0.74100  0.64800  0.25500  1.0000
  Sr  Sr2       1.0  0.24100  0.85200  0.25500  1.0000
  Sr  Sr3       1.0  0.75900  0.14800  0.75500  1.0000
  Sr  Sr4       1.0  0.25900  0.35200  0.75500  1.0000
