data_image0
_chemical_formula_structural       O16Se4Tl8
_chemical_formula_sum              "O16 Se4 Tl8"
_cell_length_a       6.08375
_cell_length_b       10.2888
_cell_length_c       7.64827
_cell_angle_alpha    90
_cell_angle_beta     90
_cell_angle_gamma    90

_space_group_name_H-M_alt    "P 1"
_space_group_IT_number       1

loop_
  _space_group_symop_operation_xyz
  'x, y, z'

loop_
  _atom_site_type_symbol
  _atom_site_label
  _atom_site_symmetry_multiplicity
  _atom_site_fract_x
  _atom_site_fract_y
  _atom_site_fract_z
  _atom_site_occupancy
  O   O1        1.0  0.96300  0.42800  0.77600  1.0000
  O   O2        1.0  0.53700  0.57200  0.27600  1.0000
  O   O3        1.0  0.46300  0.07160  0.22400  1.0000
  O   O4        1.0  0.03740  0.92800  0.72400  1.0000
  O   O5        1.0  0.03030  0.09210  0.30500  1.0000
  O   O6        1.0  0.47000  0.90800  0.80500  1.0000
  O   O7        1.0  0.53000  0.40800  0.69500  1.0000
  O   O8        1.0  0.97000  0.59200  0.19500  1.0000
  O   O9        1.0  0.29200  0.30800  0.31000  1.0000
  O   O10       1.0  0.20800  0.69200  0.81000  1.0000
  O   O11       1.0  0.79200  0.19200  0.69000  1.0000
  O   O12       1.0  0.70800  0.80800  0.19000  1.0000
  O   O13       1.0  0.17300  0.19700  0.99800  1.0000
  O   O14       1.0  0.32700  0.80300  0.49800  1.0000
  O   O15       1.0  0.67300  0.30300  0.00206  1.0000
  O   O16       1.0  0.82700  0.69700  0.50200  1.0000
  Se  Se1       1.0  0.24100  0.16700  0.20600  1.0000
  Se  Se2       1.0  0.25900  0.83300  0.70600  1.0000
  Se  Se3       1.0  0.74100  0.33300  0.79400  1.0000
  Se  Se4       1.0  0.75900  0.66700  0.29400  1.0000
  Tl  Tl1       1.0  0.25000  0.82900  0.16000  1.0000
  Tl  Tl2       1.0  0.25000  0.17100  0.66000  1.0000
  Tl  Tl3       1.0  0.75000  0.67100  0.84000  1.0000
  Tl  Tl4       1.0  0.75000  0.32900  0.34000  1.0000
  Tl  Tl5       1.0  0.28200  0.46900  0.00974  1.0000
  Tl  Tl6       1.0  0.21800  0.53100  0.51000  1.0000
  Tl  Tl7       1.0  0.78200  0.03090  0.99000  1.0000
  Tl  Tl8       1.0  0.71800  0.96900  0.49000  1.0000
