data_image0
_chemical_formula_structural       N4Nb12Zn12
_chemical_formula_sum              "N4 Nb12 Zn12"
_cell_length_a       8.28624
_cell_length_b       8.28624
_cell_length_c       8.28624
_cell_angle_alpha    120
_cell_angle_beta     90
_cell_angle_gamma    120

_space_group_name_H-M_alt    "P 1"
_space_group_IT_number       1

loop_
  _space_group_symop_operation_xyz
  'x, y, z'

loop_
  _atom_site_type_symbol
  _atom_site_label
  _atom_site_symmetry_multiplicity
  _atom_site_fract_x
  _atom_site_fract_y
  _atom_site_fract_z
  _atom_site_occupancy
  N   N1        1.0  0.37500  0.75000  0.12500  1.0000
  N   N2        1.0  0.87500  0.25000  0.62500  1.0000
  N   N3        1.0  0.37500  0.25000  0.62500  1.0000
  N   N4        1.0  0.37500  0.75000  0.62500  1.0000
  Nb  Nb1       1.0  0.68200  0.00000  0.31800  1.0000
  Nb  Nb2       1.0  0.31800  0.00000  0.31800  1.0000
  Nb  Nb3       1.0  0.31800  0.63600  0.31800  1.0000
  Nb  Nb4       1.0  0.06820  0.13600  0.56800  1.0000
  Nb  Nb5       1.0  0.06820  0.50000  0.56800  1.0000
  Nb  Nb6       1.0  0.43200  0.50000  0.56800  1.0000
  Nb  Nb7       1.0  0.31800  0.00000  0.68200  1.0000
  Nb  Nb8       1.0  0.68200  0.36400  0.68200  1.0000
  Nb  Nb9       1.0  0.68200  0.00000  0.68200  1.0000
  Nb  Nb10      1.0  0.06820  0.50000  0.93200  1.0000
  Nb  Nb11      1.0  0.43200  0.50000  0.93200  1.0000
  Nb  Nb12      1.0  0.43200  0.86400  0.93200  1.0000
  Zn  Zn1       1.0  0.66700  0.33500  0.00231  1.0000
  Zn  Zn2       1.0  0.37500  0.25000  0.12500  1.0000
  Zn  Zn3       1.0  0.87500  0.25000  0.12500  1.0000
  Zn  Zn4       1.0  0.87500  0.75000  0.12500  1.0000
  Zn  Zn5       1.0  0.08260  0.16500  0.24800  1.0000
  Zn  Zn6       1.0  0.66700  0.33500  0.33300  1.0000
  Zn  Zn7       1.0  0.66700  0.66500  0.33300  1.0000
  Zn  Zn8       1.0  0.99800  0.66500  0.33300  1.0000
  Zn  Zn9       1.0  0.87500  0.75000  0.62500  1.0000
  Zn  Zn10      1.0  0.08260  0.16500  0.91700  1.0000
  Zn  Zn11      1.0  0.08260  0.83500  0.91700  1.0000
  Zn  Zn12      1.0  0.75200  0.83500  0.91700  1.0000
