data_image0
_chemical_formula_structural       K8Na4O12Tl4
_chemical_formula_sum              "K8 Na4 O12 Tl4"
_cell_length_a       6.35212
_cell_length_b       6.92144
_cell_length_c       11.9066
_cell_angle_alpha    90
_cell_angle_beta     95.6042
_cell_angle_gamma    90

_space_group_name_H-M_alt    "P 1"
_space_group_IT_number       1

loop_
  _space_group_symop_operation_xyz
  'x, y, z'

loop_
  _atom_site_type_symbol
  _atom_site_label
  _atom_site_symmetry_multiplicity
  _atom_site_fract_x
  _atom_site_fract_y
  _atom_site_fract_z
  _atom_site_occupancy
  K   K1        1.0  0.07070  0.35800  0.14300  1.0000
  K   K2        1.0  0.57700  0.16900  0.14700  1.0000
  K   K3        1.0  0.42300  0.66900  0.35300  1.0000
  K   K4        1.0  0.92900  0.85800  0.35700  1.0000
  K   K5        1.0  0.07070  0.14200  0.64300  1.0000
  K   K6        1.0  0.57700  0.33100  0.64700  1.0000
  K   K7        1.0  0.42300  0.83100  0.85300  1.0000
  K   K8        1.0  0.92900  0.64200  0.85700  1.0000
  Na  Na1       1.0  0.63900  0.62700  0.08690  1.0000
  Na  Na2       1.0  0.36100  0.12700  0.41300  1.0000
  Na  Na3       1.0  0.63900  0.87300  0.58700  1.0000
  Na  Na4       1.0  0.36100  0.37300  0.91300  1.0000
  O   O1        1.0  0.27900  0.61300  0.03380  1.0000
  O   O2        1.0  0.79800  0.90400  0.04260  1.0000
  O   O3        1.0  0.24500  0.01090  0.24600  1.0000
  O   O4        1.0  0.75500  0.51100  0.25400  1.0000
  O   O5        1.0  0.20200  0.40400  0.45700  1.0000
  O   O6        1.0  0.72100  0.11300  0.46600  1.0000
  O   O7        1.0  0.27900  0.88700  0.53400  1.0000
  O   O8        1.0  0.79800  0.59600  0.54300  1.0000
  O   O9        1.0  0.24500  0.48900  0.74600  1.0000
  O   O10       1.0  0.75500  0.98900  0.75400  1.0000
  O   O11       1.0  0.20200  0.09550  0.95700  1.0000
  O   O12       1.0  0.72100  0.38700  0.96600  1.0000
  Tl  Tl1       1.0  0.14600  0.87100  0.09210  1.0000
  Tl  Tl2       1.0  0.85400  0.37100  0.40800  1.0000
  Tl  Tl3       1.0  0.14600  0.62900  0.59200  1.0000
  Tl  Tl4       1.0  0.85400  0.12900  0.90800  1.0000
