data_image0
_chemical_formula_structural       Cu4Pt8S16
_chemical_formula_sum              "Cu4 Pt8 S16"
_cell_length_a       10.7376
_cell_length_b       6.97964
_cell_length_c       6.80228
_cell_angle_alpha    90
_cell_angle_beta     91.7886
_cell_angle_gamma    90

_space_group_name_H-M_alt    "P 1"
_space_group_IT_number       1

loop_
  _space_group_symop_operation_xyz
  'x, y, z'

loop_
  _atom_site_type_symbol
  _atom_site_label
  _atom_site_symmetry_multiplicity
  _atom_site_fract_x
  _atom_site_fract_y
  _atom_site_fract_z
  _atom_site_occupancy
  Cu  Cu1       1.0  0.65100  0.00000  0.00820  1.0000
  Cu  Cu2       1.0  0.84900  0.00000  0.49200  1.0000
  Cu  Cu3       1.0  0.15100  0.00024  0.50800  1.0000
  Cu  Cu4       1.0  0.34900  0.00024  0.99200  1.0000
  Pt  Pt1       1.0  0.00000  0.75200  0.00024  1.0000
  Pt  Pt2       1.0  0.75000  0.50000  0.25000  1.0000
  Pt  Pt3       1.0  0.25000  0.50000  0.25000  1.0000
  Pt  Pt4       1.0  0.50000  0.75200  0.50000  1.0000
  Pt  Pt5       1.0  0.50000  0.24800  0.50000  1.0000
  Pt  Pt6       1.0  0.75000  0.50000  0.75000  1.0000
  Pt  Pt7       1.0  0.25000  0.50000  0.75000  1.0000
  Pt  Pt8       1.0  0.00000  0.24800  0.00000  1.0000
  S   S1        1.0  0.77700  0.26800  0.00690  1.0000
  S   S2        1.0  0.77700  0.73200  0.00731  1.0000
  S   S3        1.0  0.02260  0.50000  0.23900  1.0000
  S   S4        1.0  0.00378  0.00022  0.24900  1.0000
  S   S5        1.0  0.49600  0.00022  0.25100  1.0000
  S   S6        1.0  0.47700  0.50000  0.26100  1.0000
  S   S7        1.0  0.72300  0.73200  0.49300  1.0000
  S   S8        1.0  0.72300  0.26800  0.49300  1.0000
  S   S9        1.0  0.27700  0.73200  0.50700  1.0000
  S   S10       1.0  0.27700  0.26800  0.50700  1.0000
  S   S11       1.0  0.52300  0.50000  0.73900  1.0000
  S   S12       1.0  0.50400  0.00000  0.74900  1.0000
  S   S13       1.0  0.99600  0.00000  0.75100  1.0000
  S   S14       1.0  0.97700  0.50000  0.76100  1.0000
  S   S15       1.0  0.22300  0.26800  0.99300  1.0000
  S   S16       1.0  0.22300  0.73200  0.99300  1.0000
