data_image0
_chemical_formula_structural       As8O16Pb4
_chemical_formula_sum              "As8 O16 Pb4"
_cell_length_a       7.0052
_cell_length_b       11.7139
_cell_length_c       6.00753
_cell_angle_alpha    90.0001
_cell_angle_beta     112.709
_cell_angle_gamma    89.9999

_space_group_name_H-M_alt    "P 1"
_space_group_IT_number       1

loop_
  _space_group_symop_operation_xyz
  'x, y, z'

loop_
  _atom_site_type_symbol
  _atom_site_label
  _atom_site_symmetry_multiplicity
  _atom_site_fract_x
  _atom_site_fract_y
  _atom_site_fract_z
  _atom_site_occupancy
  As  As1       1.0  0.61800  0.35500  0.00099  1.0000
  As  As2       1.0  0.29000  0.41700  0.22500  1.0000
  As  As3       1.0  0.71000  0.91700  0.27500  1.0000
  As  As4       1.0  0.38200  0.85500  0.49900  1.0000
  As  As5       1.0  0.61800  0.14500  0.50100  1.0000
  As  As6       1.0  0.29000  0.08300  0.72500  1.0000
  As  As7       1.0  0.71000  0.58300  0.77500  1.0000
  As  As8       1.0  0.38200  0.64500  0.99900  1.0000
  O   O1        1.0  0.80200  0.46900  0.00684  1.0000
  O   O2        1.0  0.20200  0.29900  0.02670  1.0000
  O   O3        1.0  0.80600  0.26400  0.20600  1.0000
  O   O4        1.0  0.44000  0.92100  0.24600  1.0000
  O   O5        1.0  0.56000  0.42100  0.25400  1.0000
  O   O6        1.0  0.19400  0.76400  0.29400  1.0000
  O   O7        1.0  0.79800  0.79900  0.47300  1.0000
  O   O8        1.0  0.19800  0.96900  0.49300  1.0000
  O   O9        1.0  0.80200  0.03090  0.50700  1.0000
  O   O10       1.0  0.20200  0.20100  0.52700  1.0000
  O   O11       1.0  0.80600  0.23600  0.70600  1.0000
  O   O12       1.0  0.44000  0.57900  0.74600  1.0000
  O   O13       1.0  0.56000  0.07900  0.75400  1.0000
  O   O14       1.0  0.19400  0.73600  0.79400  1.0000
  O   O15       1.0  0.79800  0.70100  0.97300  1.0000
  O   O16       1.0  0.19800  0.53100  0.99300  1.0000
  Pb  Pb1       1.0  0.01460  0.14600  0.09780  1.0000
  Pb  Pb2       1.0  0.98500  0.64600  0.40200  1.0000
  Pb  Pb3       1.0  0.01460  0.35400  0.59800  1.0000
  Pb  Pb4       1.0  0.98500  0.85400  0.90200  1.0000
