data_image0
_chemical_formula_structural       Cl12Nb2O8Pr6
_chemical_formula_sum              "Cl12 Nb2 O8 Pr6"
_cell_length_a       12.8239
_cell_length_b       12.824
_cell_length_c       3.99202
_cell_angle_alpha    90
_cell_angle_beta     90
_cell_angle_gamma    119.995

_space_group_name_H-M_alt    "P 1"
_space_group_IT_number       1

loop_
  _space_group_symop_operation_xyz
  'x, y, z'

loop_
  _atom_site_type_symbol
  _atom_site_label
  _atom_site_symmetry_multiplicity
  _atom_site_fract_x
  _atom_site_fract_y
  _atom_site_fract_z
  _atom_site_occupancy
  Cl  Cl1       1.0  0.62800  0.07090  0.25000  1.0000
  Cl  Cl2       1.0  0.10300  0.24700  0.25000  1.0000
  Cl  Cl3       1.0  0.44300  0.37200  0.25000  1.0000
  Cl  Cl4       1.0  0.92900  0.55700  0.25000  1.0000
  Cl  Cl5       1.0  0.75300  0.85600  0.25000  1.0000
  Cl  Cl6       1.0  0.14400  0.89700  0.25000  1.0000
  Cl  Cl7       1.0  0.85600  0.10300  0.75000  1.0000
  Cl  Cl8       1.0  0.24700  0.14400  0.75000  1.0000
  Cl  Cl9       1.0  0.07090  0.44300  0.75000  1.0000
  Cl  Cl10      1.0  0.55700  0.62800  0.75000  1.0000
  Cl  Cl11      1.0  0.89700  0.75300  0.75000  1.0000
  Cl  Cl12      1.0  0.37200  0.92900  0.75000  1.0000
  Nb  Nb1       1.0  0.33300  0.66700  0.25000  1.0000
  Nb  Nb2       1.0  0.66700  0.33300  0.75000  1.0000
  O   O1        1.0  0.66700  0.33300  0.25000  1.0000
  O   O2        1.0  0.30700  0.50600  0.25000  1.0000
  O   O3        1.0  0.19900  0.69300  0.25000  1.0000
  O   O4        1.0  0.49400  0.80100  0.25000  1.0000
  O   O5        1.0  0.50600  0.19900  0.75000  1.0000
  O   O6        1.0  0.80100  0.30700  0.75000  1.0000
  O   O7        1.0  0.69300  0.49400  0.75000  1.0000
  O   O8        1.0  0.33300  0.66700  0.75000  1.0000
  Pr  Pr1       1.0  0.39500  0.11300  0.25000  1.0000
  Pr  Pr2       1.0  0.88700  0.28100  0.25000  1.0000
  Pr  Pr3       1.0  0.71900  0.60500  0.25000  1.0000
  Pr  Pr4       1.0  0.28100  0.39500  0.75000  1.0000
  Pr  Pr5       1.0  0.11300  0.71900  0.75000  1.0000
  Pr  Pr6       1.0  0.60500  0.88700  0.75000  1.0000
