data_image0
_chemical_formula_structural       F22Pr2Zr4
_chemical_formula_sum              "F22 Pr2 Zr4"
_cell_length_a       7.74406
_cell_length_b       8.23754
_cell_length_c       8.23754
_cell_angle_alpha    105.062
_cell_angle_beta     118.037
_cell_angle_gamma    61.9627

_space_group_name_H-M_alt    "P 1"
_space_group_IT_number       1

loop_
  _space_group_symop_operation_xyz
  'x, y, z'

loop_
  _atom_site_type_symbol
  _atom_site_label
  _atom_site_symmetry_multiplicity
  _atom_site_fract_x
  _atom_site_fract_y
  _atom_site_fract_z
  _atom_site_occupancy
  F   F1        1.0  0.50000  0.00000  0.00000  1.0000
  F   F2        1.0  0.75000  0.33400  0.04400  1.0000
  F   F3        1.0  0.89400  0.79800  0.06200  1.0000
  F   F4        1.0  0.25000  0.45600  0.16600  1.0000
  F   F5        1.0  0.37000  0.93800  0.20200  1.0000
  F   F6        1.0  0.63200  0.21800  0.21800  1.0000
  F   F7        1.0  0.13200  0.28200  0.28200  1.0000
  F   F8        1.0  0.60600  0.56200  0.29800  1.0000
  F   F9        1.0  0.04000  0.04400  0.33400  1.0000
  F   F10       1.0  0.13000  0.70200  0.43800  1.0000
  F   F11       1.0  0.54000  0.16600  0.45600  1.0000
  F   F12       1.0  0.00000  0.50000  0.50000  1.0000
  F   F13       1.0  0.46000  0.83400  0.54400  1.0000
  F   F14       1.0  0.87000  0.29800  0.56200  1.0000
  F   F15       1.0  0.96000  0.95600  0.66600  1.0000
  F   F16       1.0  0.39400  0.43800  0.70200  1.0000
  F   F17       1.0  0.86800  0.71800  0.71800  1.0000
  F   F18       1.0  0.36800  0.78200  0.78200  1.0000
  F   F19       1.0  0.63000  0.06200  0.79800  1.0000
  F   F20       1.0  0.75000  0.54400  0.83400  1.0000
  F   F21       1.0  0.10600  0.20200  0.93800  1.0000
  F   F22       1.0  0.25000  0.66600  0.95600  1.0000
  Pr  Pr1       1.0  0.25000  0.75000  0.25000  1.0000
  Pr  Pr2       1.0  0.75000  0.25000  0.75000  1.0000
  Zr  Zr1       1.0  0.36900  0.18000  0.18000  1.0000
  Zr  Zr2       1.0  0.86900  0.32000  0.32000  1.0000
  Zr  Zr3       1.0  0.13100  0.68000  0.68000  1.0000
  Zr  Zr4       1.0  0.63100  0.82000  0.82000  1.0000
