data_image0
_chemical_formula_structural       Ge4Li4O16Sc4
_chemical_formula_sum              "Ge4 Li4 O16 Sc4"
_cell_length_a       10.6316
_cell_length_b       5.96657
_cell_length_c       4.96136
_cell_angle_alpha    90
_cell_angle_beta     90
_cell_angle_gamma    90

_space_group_name_H-M_alt    "P 1"
_space_group_IT_number       1

loop_
  _space_group_symop_operation_xyz
  'x, y, z'

loop_
  _atom_site_type_symbol
  _atom_site_label
  _atom_site_symmetry_multiplicity
  _atom_site_fract_x
  _atom_site_fract_y
  _atom_site_fract_z
  _atom_site_occupancy
  Ge  Ge1       1.0  0.58700  0.25000  0.05310  1.0000
  Ge  Ge2       1.0  0.08740  0.25000  0.44700  1.0000
  Ge  Ge3       1.0  0.91300  0.75000  0.55300  1.0000
  Ge  Ge4       1.0  0.41300  0.75000  0.94700  1.0000
  Li  Li1       1.0  0.00000  0.00000  0.00000  1.0000
  Li  Li2       1.0  0.00000  0.50000  0.00000  1.0000
  Li  Li3       1.0  0.50000  0.00000  0.50000  1.0000
  Li  Li4       1.0  0.50000  0.50000  0.50000  1.0000
  O   O1        1.0  0.90500  0.75000  0.20400  1.0000
  O   O2        1.0  0.43900  0.25000  0.20900  1.0000
  O   O3        1.0  0.67100  0.02700  0.21900  1.0000
  O   O4        1.0  0.67100  0.47300  0.21900  1.0000
  O   O5        1.0  0.17100  0.02700  0.28100  1.0000
  O   O6        1.0  0.17100  0.47300  0.28100  1.0000
  O   O7        1.0  0.93900  0.25000  0.29100  1.0000
  O   O8        1.0  0.40500  0.75000  0.29600  1.0000
  O   O9        1.0  0.59500  0.25000  0.70400  1.0000
  O   O10       1.0  0.06090  0.75000  0.70900  1.0000
  O   O11       1.0  0.82900  0.52700  0.71900  1.0000
  O   O12       1.0  0.82900  0.97300  0.71900  1.0000
  O   O13       1.0  0.32900  0.52700  0.78100  1.0000
  O   O14       1.0  0.32900  0.97300  0.78100  1.0000
  O   O15       1.0  0.56100  0.75000  0.79100  1.0000
  O   O16       1.0  0.09470  0.25000  0.79600  1.0000
  Sc  Sc1       1.0  0.27100  0.25000  0.00243  1.0000
  Sc  Sc2       1.0  0.77100  0.25000  0.49800  1.0000
  Sc  Sc3       1.0  0.22900  0.75000  0.50200  1.0000
  Sc  Sc4       1.0  0.72900  0.75000  0.99800  1.0000
