data_image0
_chemical_formula_structural       B14Co8Nb6
_chemical_formula_sum              "B14 Co8 Nb6"
_cell_length_a       3.20207
_cell_length_b       8.88811
_cell_length_c       9.33517
_cell_angle_alpha    90
_cell_angle_beta     80.1246
_cell_angle_gamma    90

_space_group_name_H-M_alt    "P 1"
_space_group_IT_number       1

loop_
  _space_group_symop_operation_xyz
  'x, y, z'

loop_
  _atom_site_type_symbol
  _atom_site_label
  _atom_site_symmetry_multiplicity
  _atom_site_fract_x
  _atom_site_fract_y
  _atom_site_fract_z
  _atom_site_occupancy
  B   B1        1.0  0.98400  0.59300  0.03110  1.0000
  B   B2        1.0  0.98400  0.90700  0.03110  1.0000
  B   B3        1.0  0.95500  0.25000  0.08900  1.0000
  B   B4        1.0  0.89000  0.64800  0.22000  1.0000
  B   B5        1.0  0.89000  0.85200  0.22000  1.0000
  B   B6        1.0  0.29000  0.14500  0.42100  1.0000
  B   B7        1.0  0.29000  0.35500  0.42100  1.0000
  B   B8        1.0  0.71000  0.64500  0.57900  1.0000
  B   B9        1.0  0.71000  0.85500  0.57900  1.0000
  B   B10       1.0  0.11000  0.14800  0.78000  1.0000
  B   B11       1.0  0.11000  0.35200  0.78000  1.0000
  B   B12       1.0  0.04450  0.75000  0.91100  1.0000
  B   B13       1.0  0.01550  0.09320  0.96900  1.0000
  B   B14       1.0  0.01550  0.40700  0.96900  1.0000
  Co  Co1       1.0  0.45800  0.75000  0.08480  1.0000
  Co  Co2       1.0  0.84400  0.25000  0.31300  1.0000
  Co  Co3       1.0  0.80100  0.50500  0.39800  1.0000
  Co  Co4       1.0  0.80100  0.99500  0.39800  1.0000
  Co  Co5       1.0  0.19900  0.00497  0.60200  1.0000
  Co  Co6       1.0  0.19900  0.49500  0.60200  1.0000
  Co  Co7       1.0  0.15600  0.75000  0.68700  1.0000
  Co  Co8       1.0  0.54200  0.25000  0.91500  1.0000
  Nb  Nb1       1.0  0.41900  0.05530  0.16200  1.0000
  Nb  Nb2       1.0  0.41900  0.44500  0.16200  1.0000
  Nb  Nb3       1.0  0.30200  0.75000  0.39600  1.0000
  Nb  Nb4       1.0  0.69800  0.25000  0.60400  1.0000
  Nb  Nb5       1.0  0.58100  0.55500  0.83800  1.0000
  Nb  Nb6       1.0  0.58100  0.94500  0.83800  1.0000
