data_image0
_chemical_formula_structural       F24Te4
_chemical_formula_sum              "F24 Te4"
_cell_length_a       8.7849
_cell_length_b       7.97706
_cell_length_c       4.6254
_cell_angle_alpha    90
_cell_angle_beta     90
_cell_angle_gamma    90

_space_group_name_H-M_alt    "P 1"
_space_group_IT_number       1

loop_
  _space_group_symop_operation_xyz
  'x, y, z'

loop_
  _atom_site_type_symbol
  _atom_site_label
  _atom_site_symmetry_multiplicity
  _atom_site_fract_x
  _atom_site_fract_y
  _atom_site_fract_z
  _atom_site_occupancy
  F   F1        1.0  0.75300  0.58700  0.07690  1.0000
  F   F2        1.0  0.75300  0.91300  0.07690  1.0000
  F   F3        1.0  0.75200  0.25000  0.08680  1.0000
  F   F4        1.0  0.99900  0.75000  0.22900  1.0000
  F   F5        1.0  0.50800  0.08580  0.23800  1.0000
  F   F6        1.0  0.50800  0.41400  0.23800  1.0000
  F   F7        1.0  0.00811  0.08580  0.26200  1.0000
  F   F8        1.0  0.00811  0.41400  0.26200  1.0000
  F   F9        1.0  0.49900  0.75000  0.27100  1.0000
  F   F10       1.0  0.25200  0.25000  0.41300  1.0000
  F   F11       1.0  0.25300  0.58700  0.42300  1.0000
  F   F12       1.0  0.25300  0.91300  0.42300  1.0000
  F   F13       1.0  0.74700  0.08660  0.57700  1.0000
  F   F14       1.0  0.74700  0.41300  0.57700  1.0000
  F   F15       1.0  0.74800  0.75000  0.58700  1.0000
  F   F16       1.0  0.50100  0.25000  0.72900  1.0000
  F   F17       1.0  0.99200  0.58600  0.73800  1.0000
  F   F18       1.0  0.99200  0.91400  0.73800  1.0000
  F   F19       1.0  0.49200  0.58600  0.76200  1.0000
  F   F20       1.0  0.49200  0.91400  0.76200  1.0000
  F   F21       1.0  0.00073  0.25000  0.77100  1.0000
  F   F22       1.0  0.24800  0.75000  0.91300  1.0000
  F   F23       1.0  0.24700  0.08660  0.92300  1.0000
  F   F24       1.0  0.24700  0.41300  0.92300  1.0000
  Te  Te1       1.0  0.12700  0.25000  0.09130  1.0000
  Te  Te2       1.0  0.62700  0.25000  0.40900  1.0000
  Te  Te3       1.0  0.37300  0.75000  0.59100  1.0000
  Te  Te4       1.0  0.87300  0.75000  0.90900  1.0000
