data_image0
_chemical_formula_structural       Nb4Pd4Te20
_chemical_formula_sum              "Nb4 Pd4 Te20"
_cell_length_a       15.8874
_cell_length_b       3.76436
_cell_length_c       13.1389
_cell_angle_alpha    90
_cell_angle_beta     90
_cell_angle_gamma    90

_space_group_name_H-M_alt    "P 1"
_space_group_IT_number       1

loop_
  _space_group_symop_operation_xyz
  'x, y, z'

loop_
  _atom_site_type_symbol
  _atom_site_label
  _atom_site_symmetry_multiplicity
  _atom_site_fract_x
  _atom_site_fract_y
  _atom_site_fract_z
  _atom_site_occupancy
  Nb  Nb1       1.0  0.34200  0.25000  0.24800  1.0000
  Nb  Nb2       1.0  0.84200  0.25000  0.25200  1.0000
  Nb  Nb3       1.0  0.15800  0.75000  0.74800  1.0000
  Nb  Nb4       1.0  0.65800  0.75000  0.75200  1.0000
  Pd  Pd1       1.0  0.09180  0.75000  0.23900  1.0000
  Pd  Pd2       1.0  0.59200  0.75000  0.26100  1.0000
  Pd  Pd3       1.0  0.40800  0.25000  0.73900  1.0000
  Pd  Pd4       1.0  0.90800  0.25000  0.76100  1.0000
  Te  Te1       1.0  0.34800  0.75000  0.08310  1.0000
  Te  Te2       1.0  0.18100  0.25000  0.13500  1.0000
  Te  Te3       1.0  0.94100  0.75000  0.13600  1.0000
  Te  Te4       1.0  0.73800  0.75000  0.14700  1.0000
  Te  Te5       1.0  0.50700  0.25000  0.15400  1.0000
  Te  Te6       1.0  0.00749  0.25000  0.34600  1.0000
  Te  Te7       1.0  0.23800  0.75000  0.35300  1.0000
  Te  Te8       1.0  0.44100  0.75000  0.36400  1.0000
  Te  Te9       1.0  0.68100  0.25000  0.36500  1.0000
  Te  Te10      1.0  0.84800  0.75000  0.41700  1.0000
  Te  Te11      1.0  0.15200  0.25000  0.58300  1.0000
  Te  Te12      1.0  0.31900  0.75000  0.63500  1.0000
  Te  Te13      1.0  0.55900  0.25000  0.63600  1.0000
  Te  Te14      1.0  0.76200  0.25000  0.64700  1.0000
  Te  Te15      1.0  0.99300  0.75000  0.65400  1.0000
  Te  Te16      1.0  0.49300  0.75000  0.84600  1.0000
  Te  Te17      1.0  0.26200  0.25000  0.85300  1.0000
  Te  Te18      1.0  0.05930  0.25000  0.86400  1.0000
  Te  Te19      1.0  0.81900  0.75000  0.86500  1.0000
  Te  Te20      1.0  0.65200  0.25000  0.91700  1.0000
