data_image0
_chemical_formula_structural       Br18Cs6Ho4
_chemical_formula_sum              "Br18 Cs6 Ho4"
_cell_length_a       10.202
_cell_length_b       10.202
_cell_length_c       10.202
_cell_angle_alpha    84.1275
_cell_angle_beta     95.8725
_cell_angle_gamma    95.8725

_space_group_name_H-M_alt    "P 1"
_space_group_IT_number       1

loop_
  _space_group_symop_operation_xyz
  'x, y, z'

loop_
  _atom_site_type_symbol
  _atom_site_label
  _atom_site_symmetry_multiplicity
  _atom_site_fract_x
  _atom_site_fract_y
  _atom_site_fract_z
  _atom_site_occupancy
  Br  Br1       1.0  0.08620  0.26400  0.07980  1.0000
  Br  Br2       1.0  0.26400  0.92000  0.08620  1.0000
  Br  Br3       1.0  0.75000  0.40700  0.09300  1.0000
  Br  Br4       1.0  0.41400  0.42000  0.23600  1.0000
  Br  Br5       1.0  0.59300  0.09300  0.25000  1.0000
  Br  Br6       1.0  0.92000  0.91400  0.26400  1.0000
  Br  Br7       1.0  0.90700  0.25000  0.40700  1.0000
  Br  Br8       1.0  0.42000  0.76400  0.41400  1.0000
  Br  Br9       1.0  0.76400  0.58600  0.42000  1.0000
  Br  Br10      1.0  0.23600  0.41400  0.58000  1.0000
  Br  Br11      1.0  0.58000  0.23600  0.58600  1.0000
  Br  Br12      1.0  0.09300  0.75000  0.59300  1.0000
  Br  Br13      1.0  0.07980  0.08620  0.73600  1.0000
  Br  Br14      1.0  0.40700  0.90700  0.75000  1.0000
  Br  Br15      1.0  0.58600  0.58000  0.76400  1.0000
  Br  Br16      1.0  0.25000  0.59300  0.90700  1.0000
  Br  Br17      1.0  0.73600  0.07980  0.91400  1.0000
  Br  Br18      1.0  0.91400  0.73600  0.92000  1.0000
  Cs  Cs1       1.0  0.58800  0.75000  0.08830  1.0000
  Cs  Cs2       1.0  0.08830  0.58800  0.25000  1.0000
  Cs  Cs3       1.0  0.25000  0.08830  0.41200  1.0000
  Cs  Cs4       1.0  0.75000  0.91200  0.58800  1.0000
  Cs  Cs5       1.0  0.91200  0.41200  0.75000  1.0000
  Cs  Cs6       1.0  0.41200  0.25000  0.91200  1.0000
  Ho  Ho1       1.0  0.85000  0.15000  0.15000  1.0000
  Ho  Ho2       1.0  0.65000  0.35000  0.35000  1.0000
  Ho  Ho3       1.0  0.35000  0.65000  0.65000  1.0000
  Ho  Ho4       1.0  0.15000  0.85000  0.85000  1.0000
