data_image0
_chemical_formula_structural       Na4O16Si4Sm4
_chemical_formula_sum              "Na4 O16 Si4 Sm4"
_cell_length_a       5.3583
_cell_length_b       8.73432
_cell_length_c       8.73432
_cell_angle_alpha    95.3989
_cell_angle_beta     107.863
_cell_angle_gamma    72.1372

_space_group_name_H-M_alt    "P 1"
_space_group_IT_number       1

loop_
  _space_group_symop_operation_xyz
  'x, y, z'

loop_
  _atom_site_type_symbol
  _atom_site_label
  _atom_site_symmetry_multiplicity
  _atom_site_fract_x
  _atom_site_fract_y
  _atom_site_fract_z
  _atom_site_occupancy
  Na  Na1       1.0  0.91300  0.48100  0.30800  1.0000
  Na  Na2       1.0  0.39500  0.69200  0.48100  1.0000
  Na  Na3       1.0  0.60500  0.30800  0.51900  1.0000
  Na  Na4       1.0  0.08670  0.51900  0.69200  1.0000
  O   O1        1.0  0.73100  0.57700  0.03800  1.0000
  O   O2        1.0  0.20500  0.23200  0.15400  1.0000
  O   O3        1.0  0.71800  0.23200  0.15400  1.0000
  O   O4        1.0  0.43600  0.84600  0.23200  1.0000
  O   O5        1.0  0.95000  0.84600  0.23200  1.0000
  O   O6        1.0  0.39800  0.48100  0.27700  1.0000
  O   O7        1.0  0.69300  0.03800  0.42300  1.0000
  O   O8        1.0  0.87900  0.72300  0.48100  1.0000
  O   O9        1.0  0.12100  0.27700  0.51900  1.0000
  O   O10       1.0  0.30700  0.96200  0.57700  1.0000
  O   O11       1.0  0.60200  0.51900  0.72300  1.0000
  O   O12       1.0  0.05040  0.15400  0.76800  1.0000
  O   O13       1.0  0.56400  0.15400  0.76800  1.0000
  O   O14       1.0  0.28200  0.76800  0.84600  1.0000
  O   O15       1.0  0.79500  0.76800  0.84600  1.0000
  O   O16       1.0  0.26900  0.42300  0.96200  1.0000
  Si  Si1       1.0  0.40300  0.33500  0.14100  1.0000
  Si  Si2       1.0  0.73800  0.85900  0.33500  1.0000
  Si  Si3       1.0  0.26200  0.14100  0.66500  1.0000
  Si  Si4       1.0  0.59700  0.66500  0.85900  1.0000
  Sm  Sm1       1.0  0.19100  0.68600  0.06860  1.0000
  Sm  Sm2       1.0  0.12200  0.06860  0.31400  1.0000
  Sm  Sm3       1.0  0.87800  0.93100  0.68600  1.0000
  Sm  Sm4       1.0  0.80900  0.31400  0.93100  1.0000
