data_image0
_chemical_formula_structural       K12Sb4Te12
_chemical_formula_sum              "K12 Sb4 Te12"
_cell_length_a       10.542
_cell_length_b       10.542
_cell_length_c       10.542
_cell_angle_alpha    90
_cell_angle_beta     90
_cell_angle_gamma    90

_space_group_name_H-M_alt    "P 1"
_space_group_IT_number       1

loop_
  _space_group_symop_operation_xyz
  'x, y, z'

loop_
  _atom_site_type_symbol
  _atom_site_label
  _atom_site_symmetry_multiplicity
  _atom_site_fract_x
  _atom_site_fract_y
  _atom_site_fract_z
  _atom_site_occupancy
  K   K1        1.0  0.93400  0.43400  0.06610  1.0000
  K   K2        1.0  0.07310  0.07310  0.07310  1.0000
  K   K3        1.0  0.67000  0.83000  0.17000  1.0000
  K   K4        1.0  0.33000  0.33000  0.33000  1.0000
  K   K5        1.0  0.92700  0.57300  0.42700  1.0000
  K   K6        1.0  0.06610  0.93400  0.43400  1.0000
  K   K7        1.0  0.56600  0.56600  0.56600  1.0000
  K   K8        1.0  0.42700  0.92700  0.57300  1.0000
  K   K9        1.0  0.83000  0.17000  0.67000  1.0000
  K   K10       1.0  0.17000  0.67000  0.83000  1.0000
  K   K11       1.0  0.57300  0.42700  0.92700  1.0000
  K   K12       1.0  0.43400  0.06610  0.93400  1.0000
  Sb  Sb1       1.0  0.27800  0.72200  0.22200  1.0000
  Sb  Sb2       1.0  0.72200  0.22200  0.27800  1.0000
  Sb  Sb3       1.0  0.22200  0.27800  0.72200  1.0000
  Sb  Sb4       1.0  0.77800  0.77800  0.77800  1.0000
  Te  Te1       1.0  0.74900  0.14000  0.02500  1.0000
  Te  Te2       1.0  0.02500  0.74900  0.14000  1.0000
  Te  Te3       1.0  0.36000  0.97500  0.24900  1.0000
  Te  Te4       1.0  0.64000  0.47500  0.25100  1.0000
  Te  Te5       1.0  0.97500  0.24900  0.36000  1.0000
  Te  Te6       1.0  0.25100  0.64000  0.47500  1.0000
  Te  Te7       1.0  0.75100  0.86000  0.52500  1.0000
  Te  Te8       1.0  0.47500  0.25100  0.64000  1.0000
  Te  Te9       1.0  0.14000  0.02500  0.74900  1.0000
  Te  Te10      1.0  0.86000  0.52500  0.75100  1.0000
  Te  Te11      1.0  0.52500  0.75100  0.86000  1.0000
  Te  Te12      1.0  0.24900  0.36000  0.97500  1.0000
