data_image0
_chemical_formula_structural       As4Cu8K4S12
_chemical_formula_sum              "As4 Cu8 K4 S12"
_cell_length_a       6.32036
_cell_length_b       8.95114
_cell_length_c       10.339
_cell_angle_alpha    90.7364
_cell_angle_beta     91.3364
_cell_angle_gamma    90.7571

_space_group_name_H-M_alt    "P 1"
_space_group_IT_number       1

loop_
  _space_group_symop_operation_xyz
  'x, y, z'

loop_
  _atom_site_type_symbol
  _atom_site_label
  _atom_site_symmetry_multiplicity
  _atom_site_fract_x
  _atom_site_fract_y
  _atom_site_fract_z
  _atom_site_occupancy
  As  As1       1.0  0.46800  0.68500  0.15300  1.0000
  As  As2       1.0  0.98200  0.45200  0.35600  1.0000
  As  As3       1.0  0.01770  0.54800  0.64400  1.0000
  As  As4       1.0  0.53200  0.31500  0.84700  1.0000
  Cu  Cu1       1.0  0.93300  0.64300  0.03890  1.0000
  Cu  Cu2       1.0  0.50000  0.40200  0.16500  1.0000
  Cu  Cu3       1.0  0.98600  0.74900  0.35600  1.0000
  Cu  Cu4       1.0  0.42700  0.65300  0.45500  1.0000
  Cu  Cu5       1.0  0.57300  0.34700  0.54500  1.0000
  Cu  Cu6       1.0  0.01390  0.25100  0.64400  1.0000
  Cu  Cu7       1.0  0.50000  0.59800  0.83500  1.0000
  Cu  Cu8       1.0  0.06680  0.35700  0.96100  1.0000
  K   K1        1.0  0.79300  0.06680  0.13100  1.0000
  K   K2        1.0  0.29700  0.06990  0.37100  1.0000
  K   K3        1.0  0.70300  0.93000  0.62900  1.0000
  K   K4        1.0  0.20700  0.93300  0.86900  1.0000
  S   S1        1.0  0.36300  0.22400  0.02660  1.0000
  S   S2        1.0  0.86200  0.41800  0.14400  1.0000
  S   S3        1.0  0.14700  0.80600  0.16500  1.0000
  S   S4        1.0  0.63600  0.80500  0.32900  1.0000
  S   S5        1.0  0.34700  0.42000  0.36100  1.0000
  S   S6        1.0  0.85000  0.22800  0.44300  1.0000
  S   S7        1.0  0.15000  0.77200  0.55700  1.0000
  S   S8        1.0  0.65300  0.58000  0.63900  1.0000
  S   S9        1.0  0.36400  0.19500  0.67100  1.0000
  S   S10       1.0  0.85300  0.19400  0.83500  1.0000
  S   S11       1.0  0.13800  0.58200  0.85600  1.0000
  S   S12       1.0  0.63700  0.77600  0.97300  1.0000
