data_image0
_chemical_formula_structural       Na12Sb4Te12
_chemical_formula_sum              "Na12 Sb4 Te12"
_cell_length_a       9.55991
_cell_length_b       9.55991
_cell_length_c       9.55991
_cell_angle_alpha    90
_cell_angle_beta     90
_cell_angle_gamma    90

_space_group_name_H-M_alt    "P 1"
_space_group_IT_number       1

loop_
  _space_group_symop_operation_xyz
  'x, y, z'

loop_
  _atom_site_type_symbol
  _atom_site_label
  _atom_site_symmetry_multiplicity
  _atom_site_fract_x
  _atom_site_fract_y
  _atom_site_fract_z
  _atom_site_occupancy
  Na  Na1       1.0  0.58700  0.91300  0.08680  1.0000
  Na  Na2       1.0  0.82800  0.32800  0.17200  1.0000
  Na  Na3       1.0  0.18400  0.18400  0.18400  1.0000
  Na  Na4       1.0  0.81600  0.68400  0.31600  1.0000
  Na  Na5       1.0  0.17200  0.82800  0.32800  1.0000
  Na  Na6       1.0  0.41300  0.41300  0.41300  1.0000
  Na  Na7       1.0  0.91300  0.08680  0.58700  1.0000
  Na  Na8       1.0  0.67200  0.67200  0.67200  1.0000
  Na  Na9       1.0  0.31600  0.81600  0.68400  1.0000
  Na  Na10      1.0  0.68400  0.31600  0.81600  1.0000
  Na  Na11      1.0  0.32800  0.17200  0.82800  1.0000
  Na  Na12      1.0  0.08680  0.58700  0.91300  1.0000
  Sb  Sb1       1.0  0.45900  0.54100  0.04060  1.0000
  Sb  Sb2       1.0  0.54100  0.04060  0.45900  1.0000
  Sb  Sb3       1.0  0.04060  0.45900  0.54100  1.0000
  Sb  Sb4       1.0  0.95900  0.95900  0.95900  1.0000
  Te  Te1       1.0  0.24200  0.88000  0.00356  1.0000
  Te  Te2       1.0  0.50400  0.25800  0.12000  1.0000
  Te  Te3       1.0  0.88000  0.00356  0.24200  1.0000
  Te  Te4       1.0  0.12000  0.50400  0.25800  1.0000
  Te  Te5       1.0  0.49600  0.75800  0.38000  1.0000
  Te  Te6       1.0  0.75800  0.38000  0.49600  1.0000
  Te  Te7       1.0  0.25800  0.12000  0.50400  1.0000
  Te  Te8       1.0  0.99600  0.74200  0.62000  1.0000
  Te  Te9       1.0  0.62000  0.99600  0.74200  1.0000
  Te  Te10      1.0  0.38000  0.49600  0.75800  1.0000
  Te  Te11      1.0  0.00356  0.24200  0.88000  1.0000
  Te  Te12      1.0  0.74200  0.62000  0.99600  1.0000
