data_image0
_chemical_formula_structural       Cs8O16Se4
_chemical_formula_sum              "Cs8 O16 Se4"
_cell_length_a       8.3224
_cell_length_b       11.1679
_cell_length_c       6.38462
_cell_angle_alpha    90
_cell_angle_beta     90
_cell_angle_gamma    90

_space_group_name_H-M_alt    "P 1"
_space_group_IT_number       1

loop_
  _space_group_symop_operation_xyz
  'x, y, z'

loop_
  _atom_site_type_symbol
  _atom_site_label
  _atom_site_symmetry_multiplicity
  _atom_site_fract_x
  _atom_site_fract_y
  _atom_site_fract_z
  _atom_site_occupancy
  Cs  Cs1       1.0  0.17400  0.08990  0.25000  1.0000
  Cs  Cs2       1.0  0.67400  0.41000  0.25000  1.0000
  Cs  Cs3       1.0  0.99000  0.70400  0.25000  1.0000
  Cs  Cs4       1.0  0.49000  0.79600  0.25000  1.0000
  Cs  Cs5       1.0  0.51000  0.20400  0.75000  1.0000
  Cs  Cs6       1.0  0.01050  0.29600  0.75000  1.0000
  Cs  Cs7       1.0  0.32600  0.59000  0.75000  1.0000
  Cs  Cs8       1.0  0.82600  0.91000  0.75000  1.0000
  O   O1        1.0  0.80400  0.15000  0.03560  1.0000
  O   O2        1.0  0.30400  0.35000  0.03560  1.0000
  O   O3        1.0  0.53400  0.08330  0.25000  1.0000
  O   O4        1.0  0.03390  0.41700  0.25000  1.0000
  O   O5        1.0  0.30400  0.56100  0.25000  1.0000
  O   O6        1.0  0.80400  0.93900  0.25000  1.0000
  O   O7        1.0  0.80400  0.15000  0.46400  1.0000
  O   O8        1.0  0.30400  0.35000  0.46400  1.0000
  O   O9        1.0  0.69600  0.65000  0.53600  1.0000
  O   O10       1.0  0.19600  0.85000  0.53600  1.0000
  O   O11       1.0  0.19600  0.06070  0.75000  1.0000
  O   O12       1.0  0.69600  0.43900  0.75000  1.0000
  O   O13       1.0  0.96600  0.58300  0.75000  1.0000
  O   O14       1.0  0.46600  0.91700  0.75000  1.0000
  O   O15       1.0  0.69600  0.65000  0.96400  1.0000
  O   O16       1.0  0.19600  0.85000  0.96400  1.0000
  Se  Se1       1.0  0.73500  0.08050  0.25000  1.0000
  Se  Se2       1.0  0.23500  0.41900  0.25000  1.0000
  Se  Se3       1.0  0.76500  0.58100  0.75000  1.0000
  Se  Se4       1.0  0.26500  0.91900  0.75000  1.0000
