data_image0
_chemical_formula_structural       H7Li4O13RhS3
_chemical_formula_sum              "H7 Li4 O13 Rh1 S3"
_cell_length_a       6.37763
_cell_length_b       6.37763
_cell_length_c       6.37763
_cell_angle_alpha    101.917
_cell_angle_beta     78.0834
_cell_angle_gamma    101.917

_space_group_name_H-M_alt    "P 1"
_space_group_IT_number       1

loop_
  _space_group_symop_operation_xyz
  'x, y, z'

loop_
  _atom_site_type_symbol
  _atom_site_label
  _atom_site_symmetry_multiplicity
  _atom_site_fract_x
  _atom_site_fract_y
  _atom_site_fract_z
  _atom_site_occupancy
  H   H1        1.0  0.40000  0.06210  0.07870  1.0000
  H   H2        1.0  0.90100  0.69000  0.25600  1.0000
  H   H3        1.0  0.25600  0.09930  0.31000  1.0000
  H   H4        1.0  0.93800  0.92100  0.40000  1.0000
  H   H5        1.0  0.47900  0.52100  0.47900  1.0000
  H   H6        1.0  0.31000  0.74400  0.90100  1.0000
  H   H7        1.0  0.07870  0.60000  0.93800  1.0000
  Li  Li1       1.0  0.41100  0.45800  0.11700  1.0000
  Li  Li2       1.0  0.54200  0.88300  0.41100  1.0000
  Li  Li3       1.0  0.11700  0.58900  0.54200  1.0000
  Li  Li4       1.0  0.70100  0.29900  0.70100  1.0000
  O   O1        1.0  0.52400  0.78000  0.00254  1.0000
  O   O2        1.0  0.69800  0.34600  0.02950  1.0000
  O   O3        1.0  0.27800  0.13500  0.15800  1.0000
  O   O4        1.0  0.00254  0.47600  0.22000  1.0000
  O   O5        1.0  0.86500  0.84200  0.27800  1.0000
  O   O6        1.0  0.68800  0.21700  0.36600  1.0000
  O   O7        1.0  0.40500  0.59500  0.40500  1.0000
  O   O8        1.0  0.22000  0.99700  0.52400  1.0000
  O   O9        1.0  0.02950  0.30200  0.65400  1.0000
  O   O10       1.0  0.78300  0.63400  0.68800  1.0000
  O   O11       1.0  0.65400  0.97100  0.69800  1.0000
  O   O12       1.0  0.36600  0.31200  0.78300  1.0000
  O   O13       1.0  0.15800  0.72200  0.86500  1.0000
  Rh  Rh1       1.0  0.99800  0.00202  0.99800  1.0000
  S   S1        1.0  0.82800  0.28200  0.16500  1.0000
  S   S2        1.0  0.16500  0.17200  0.71800  1.0000
  S   S3        1.0  0.71800  0.83500  0.82800  1.0000
