data_image0
_chemical_formula_structural       Ca4In4Se16Yb4
_chemical_formula_sum              "Ca4 In4 Se16 Yb4"
_cell_length_a       14.3607
_cell_length_b       8.34559
_cell_length_c       7.04078
_cell_angle_alpha    90
_cell_angle_beta     90
_cell_angle_gamma    90

_space_group_name_H-M_alt    "P 1"
_space_group_IT_number       1

loop_
  _space_group_symop_operation_xyz
  'x, y, z'

loop_
  _atom_site_type_symbol
  _atom_site_label
  _atom_site_symmetry_multiplicity
  _atom_site_fract_x
  _atom_site_fract_y
  _atom_site_fract_z
  _atom_site_occupancy
  Ca  Ca1       1.0  0.73200  0.75000  0.01050  1.0000
  Ca  Ca2       1.0  0.23200  0.75000  0.49000  1.0000
  Ca  Ca3       1.0  0.76800  0.25000  0.51000  1.0000
  Ca  Ca4       1.0  0.26800  0.25000  0.99000  1.0000
  In  In1       1.0  0.59200  0.25000  0.09310  1.0000
  In  In2       1.0  0.09190  0.25000  0.40700  1.0000
  In  In3       1.0  0.90800  0.75000  0.59300  1.0000
  In  In4       1.0  0.40800  0.75000  0.90700  1.0000
  Se  Se1       1.0  0.91000  0.75000  0.22700  1.0000
  Se  Se2       1.0  0.17100  0.00839  0.23100  1.0000
  Se  Se3       1.0  0.17100  0.49200  0.23100  1.0000
  Se  Se4       1.0  0.92600  0.25000  0.24700  1.0000
  Se  Se5       1.0  0.42600  0.25000  0.25300  1.0000
  Se  Se6       1.0  0.67100  0.00839  0.26900  1.0000
  Se  Se7       1.0  0.67100  0.49200  0.26900  1.0000
  Se  Se8       1.0  0.41000  0.75000  0.27300  1.0000
  Se  Se9       1.0  0.59000  0.25000  0.72700  1.0000
  Se  Se10      1.0  0.32900  0.50800  0.73100  1.0000
  Se  Se11      1.0  0.32900  0.99200  0.73100  1.0000
  Se  Se12      1.0  0.57400  0.75000  0.74700  1.0000
  Se  Se13      1.0  0.07450  0.75000  0.75300  1.0000
  Se  Se14      1.0  0.82900  0.50800  0.76900  1.0000
  Se  Se15      1.0  0.82900  0.99200  0.76900  1.0000
  Se  Se16      1.0  0.08990  0.25000  0.77300  1.0000
  Yb  Yb1       1.0  0.00000  0.00000  0.00000  1.0000
  Yb  Yb2       1.0  0.00000  0.50000  0.00000  1.0000
  Yb  Yb3       1.0  0.50000  0.00000  0.50000  1.0000
  Yb  Yb4       1.0  0.50000  0.50000  0.50000  1.0000
