data_image0
_chemical_formula_structural       Ba4F16O4Ti4
_chemical_formula_sum              "Ba4 F16 O4 Ti4"
_cell_length_a       5.04971
_cell_length_b       13.6117
_cell_length_c       5.46992
_cell_angle_alpha    90
_cell_angle_beta     90
_cell_angle_gamma    90

_space_group_name_H-M_alt    "P 1"
_space_group_IT_number       1

loop_
  _space_group_symop_operation_xyz
  'x, y, z'

loop_
  _atom_site_type_symbol
  _atom_site_label
  _atom_site_symmetry_multiplicity
  _atom_site_fract_x
  _atom_site_fract_y
  _atom_site_fract_z
  _atom_site_occupancy
  Ba  Ba1       1.0  0.23100  0.09340  0.25000  1.0000
  Ba  Ba2       1.0  0.76900  0.59300  0.25000  1.0000
  Ba  Ba3       1.0  0.23100  0.40700  0.75000  1.0000
  Ba  Ba4       1.0  0.76900  0.90700  0.75000  1.0000
  F   F1        1.0  0.68200  0.42000  0.00574  1.0000
  F   F2        1.0  0.31800  0.92000  0.00574  1.0000
  F   F3        1.0  0.48000  0.26500  0.25000  1.0000
  F   F4        1.0  0.11000  0.41700  0.25000  1.0000
  F   F5        1.0  0.52000  0.76500  0.25000  1.0000
  F   F6        1.0  0.89000  0.91700  0.25000  1.0000
  F   F7        1.0  0.68200  0.42000  0.49400  1.0000
  F   F8        1.0  0.31800  0.92000  0.49400  1.0000
  F   F9        1.0  0.68200  0.07970  0.50600  1.0000
  F   F10       1.0  0.31800  0.58000  0.50600  1.0000
  F   F11       1.0  0.11000  0.08330  0.75000  1.0000
  F   F12       1.0  0.48000  0.23500  0.75000  1.0000
  F   F13       1.0  0.89000  0.58300  0.75000  1.0000
  F   F14       1.0  0.52000  0.73500  0.75000  1.0000
  F   F15       1.0  0.68200  0.07970  0.99400  1.0000
  F   F16       1.0  0.31800  0.58000  0.99400  1.0000
  O   O1        1.0  0.96000  0.25000  0.00000  1.0000
  O   O2        1.0  0.03980  0.75000  0.00000  1.0000
  O   O3        1.0  0.96000  0.25000  0.50000  1.0000
  O   O4        1.0  0.03980  0.75000  0.50000  1.0000
  Ti  Ti1       1.0  0.81200  0.32500  0.25000  1.0000
  Ti  Ti2       1.0  0.18800  0.82500  0.25000  1.0000
  Ti  Ti3       1.0  0.81200  0.17500  0.75000  1.0000
  Ti  Ti4       1.0  0.18800  0.67500  0.75000  1.0000
