data_image0
_chemical_formula_structural       Cs12In4O12
_chemical_formula_sum              "Cs12 In4 O12"
_cell_length_a       11.7944
_cell_length_b       7.29898
_cell_length_c       8.17963
_cell_angle_alpha    90
_cell_angle_beta     95.1336
_cell_angle_gamma    90

_space_group_name_H-M_alt    "P 1"
_space_group_IT_number       1

loop_
  _space_group_symop_operation_xyz
  'x, y, z'

loop_
  _atom_site_type_symbol
  _atom_site_label
  _atom_site_symmetry_multiplicity
  _atom_site_fract_x
  _atom_site_fract_y
  _atom_site_fract_z
  _atom_site_occupancy
  Cs  Cs1       1.0  0.65600  0.87900  0.04730  1.0000
  Cs  Cs2       1.0  0.15600  0.62100  0.04730  1.0000
  Cs  Cs3       1.0  0.92800  0.67000  0.35200  1.0000
  Cs  Cs4       1.0  0.42800  0.83000  0.35200  1.0000
  Cs  Cs5       1.0  0.30700  0.32200  0.37500  1.0000
  Cs  Cs6       1.0  0.80700  0.17800  0.37500  1.0000
  Cs  Cs7       1.0  0.69300  0.67800  0.62500  1.0000
  Cs  Cs8       1.0  0.19300  0.82200  0.62500  1.0000
  Cs  Cs9       1.0  0.07170  0.33000  0.64800  1.0000
  Cs  Cs10      1.0  0.57200  0.17000  0.64800  1.0000
  Cs  Cs11      1.0  0.34400  0.12100  0.95300  1.0000
  Cs  Cs12      1.0  0.84400  0.37900  0.95300  1.0000
  In  In1       1.0  0.56700  0.41500  0.15700  1.0000
  In  In2       1.0  0.06720  0.08460  0.15700  1.0000
  In  In3       1.0  0.43300  0.58500  0.84300  1.0000
  In  In4       1.0  0.93300  0.91500  0.84300  1.0000
  O   O1        1.0  0.40700  0.55300  0.10000  1.0000
  O   O2        1.0  0.90700  0.94700  0.10000  1.0000
  O   O3        1.0  0.03940  0.34300  0.24900  1.0000
  O   O4        1.0  0.53900  0.15700  0.24900  1.0000
  O   O5        1.0  0.19300  0.94000  0.29300  1.0000
  O   O6        1.0  0.69300  0.56000  0.29300  1.0000
  O   O7        1.0  0.80700  0.05970  0.70700  1.0000
  O   O8        1.0  0.30700  0.44000  0.70700  1.0000
  O   O9        1.0  0.46100  0.84300  0.75100  1.0000
  O   O10       1.0  0.96100  0.65700  0.75100  1.0000
  O   O11       1.0  0.09310  0.05350  0.90000  1.0000
  O   O12       1.0  0.59300  0.44700  0.90000  1.0000
