data_image0
_chemical_formula_structural       Ga12I4Te12
_chemical_formula_sum              "Ga12 I4 Te12"
_cell_length_a       11.15
_cell_length_b       19.4912
_cell_length_c       4.12672
_cell_angle_alpha    90
_cell_angle_beta     90
_cell_angle_gamma    90

_space_group_name_H-M_alt    "P 1"
_space_group_IT_number       1

loop_
  _space_group_symop_operation_xyz
  'x, y, z'

loop_
  _atom_site_type_symbol
  _atom_site_label
  _atom_site_symmetry_multiplicity
  _atom_site_fract_x
  _atom_site_fract_y
  _atom_site_fract_z
  _atom_site_occupancy
  Ga  Ga1       1.0  0.43800  0.60100  0.33200  1.0000
  Ga  Ga2       1.0  0.56200  0.39900  0.83200  1.0000
  Ga  Ga3       1.0  0.06160  0.10100  0.83200  1.0000
  Ga  Ga4       1.0  0.93800  0.89900  0.33200  1.0000
  Ga  Ga5       1.0  0.32400  0.49300  0.33400  1.0000
  Ga  Ga6       1.0  0.67600  0.50700  0.83400  1.0000
  Ga  Ga7       1.0  0.17600  0.99300  0.83400  1.0000
  Ga  Ga8       1.0  0.82400  0.00719  0.33400  1.0000
  Ga  Ga9       1.0  0.15400  0.63200  0.83800  1.0000
  Ga  Ga10      1.0  0.84600  0.36800  0.33800  1.0000
  Ga  Ga11      1.0  0.34600  0.13200  0.33800  1.0000
  Ga  Ga12      1.0  0.65400  0.86800  0.83800  1.0000
  I   I1        1.0  0.93400  0.67200  0.85600  1.0000
  I   I2        1.0  0.06620  0.32800  0.35600  1.0000
  I   I3        1.0  0.56600  0.17200  0.35600  1.0000
  I   I4        1.0  0.43400  0.82800  0.85600  1.0000
  Te  Te1       1.0  0.26100  0.69400  0.33800  1.0000
  Te  Te2       1.0  0.73900  0.30600  0.83800  1.0000
  Te  Te3       1.0  0.23900  0.19400  0.83800  1.0000
  Te  Te4       1.0  0.76100  0.80600  0.33800  1.0000
  Te  Te5       1.0  0.58300  0.63400  0.83300  1.0000
  Te  Te6       1.0  0.41700  0.36600  0.33300  1.0000
  Te  Te7       1.0  0.91700  0.13400  0.33300  1.0000
  Te  Te8       1.0  0.08290  0.86600  0.83300  1.0000
  Te  Te9       1.0  0.16700  0.49500  0.83600  1.0000
  Te  Te10      1.0  0.83300  0.50500  0.33600  1.0000
  Te  Te11      1.0  0.33300  0.99500  0.33600  1.0000
  Te  Te12      1.0  0.66700  0.00468  0.83600  1.0000
