data_image0
_chemical_formula_structural       I12Pr12Pt4
_chemical_formula_sum              "I12 Pr12 Pt4"
_cell_length_a       10.9114
_cell_length_b       10.9114
_cell_length_c       10.9114
_cell_angle_alpha    109.471
_cell_angle_beta     109.471
_cell_angle_gamma    109.471

_space_group_name_H-M_alt    "P 1"
_space_group_IT_number       1

loop_
  _space_group_symop_operation_xyz
  'x, y, z'

loop_
  _atom_site_type_symbol
  _atom_site_label
  _atom_site_symmetry_multiplicity
  _atom_site_fract_x
  _atom_site_fract_y
  _atom_site_fract_z
  _atom_site_occupancy
  I   I1        1.0  0.25900  0.24100  0.25000  1.0000
  I   I2        1.0  0.49100  0.00930  0.25000  1.0000
  I   I3        1.0  0.25900  0.01860  0.50900  1.0000
  I   I4        1.0  0.75000  0.49100  0.50900  1.0000
  I   I5        1.0  0.00930  0.25900  0.51900  1.0000
  I   I6        1.0  0.75000  0.25900  0.74100  1.0000
  I   I7        1.0  0.49100  0.48100  0.74100  1.0000
  I   I8        1.0  0.01860  0.00930  0.75900  1.0000
  I   I9        1.0  0.24100  0.75000  0.75900  1.0000
  I   I10       1.0  0.24100  0.49100  0.98100  1.0000
  I   I11       1.0  0.48100  0.24100  0.99100  1.0000
  I   I12       1.0  0.00930  0.75000  0.99100  1.0000
  Pr  Pr1       1.0  0.98100  0.25000  0.01930  1.0000
  Pr  Pr2       1.0  0.53900  0.76900  0.01930  1.0000
  Pr  Pr3       1.0  0.76900  0.51900  0.03860  1.0000
  Pr  Pr4       1.0  0.76900  0.25000  0.23100  1.0000
  Pr  Pr5       1.0  0.96100  0.98100  0.23100  1.0000
  Pr  Pr6       1.0  0.25000  0.73100  0.26900  1.0000
  Pr  Pr7       1.0  0.51900  0.53900  0.26900  1.0000
  Pr  Pr8       1.0  0.98100  0.73100  0.46100  1.0000
  Pr  Pr9       1.0  0.25000  0.51900  0.48100  1.0000
  Pr  Pr10      1.0  0.73100  0.96100  0.48100  1.0000
  Pr  Pr11      1.0  0.51900  0.98100  0.75000  1.0000
  Pr  Pr12      1.0  0.73100  0.76900  0.75000  1.0000
  Pt  Pt1       1.0  0.75000  0.00000  0.00000  1.0000
  Pt  Pt2       1.0  0.00000  0.50000  0.25000  1.0000
  Pt  Pt3       1.0  0.75000  0.75000  0.25000  1.0000
  Pt  Pt4       1.0  0.50000  0.75000  0.50000  1.0000
