data_image0
_chemical_formula_structural       Cs4Ge4S16Sm4
_chemical_formula_sum              "Cs4 Ge4 S16 Sm4"
_cell_length_a       6.81048
_cell_length_b       17.9768
_cell_length_c       6.57033
_cell_angle_alpha    90
_cell_angle_beta     90
_cell_angle_gamma    90

_space_group_name_H-M_alt    "P 1"
_space_group_IT_number       1

loop_
  _space_group_symop_operation_xyz
  'x, y, z'

loop_
  _atom_site_type_symbol
  _atom_site_label
  _atom_site_symmetry_multiplicity
  _atom_site_fract_x
  _atom_site_fract_y
  _atom_site_fract_z
  _atom_site_occupancy
  Cs  Cs1       1.0  0.00703  0.03170  0.00248  1.0000
  Cs  Cs2       1.0  0.99300  0.53200  0.49800  1.0000
  Cs  Cs3       1.0  0.49300  0.96800  0.50200  1.0000
  Cs  Cs4       1.0  0.50700  0.46800  0.99800  1.0000
  Ge  Ge1       1.0  0.51600  0.16600  0.20800  1.0000
  Ge  Ge2       1.0  0.48400  0.66600  0.29200  1.0000
  Ge  Ge3       1.0  0.98400  0.83400  0.70800  1.0000
  Ge  Ge4       1.0  0.01570  0.33400  0.79200  1.0000
  S   S1        1.0  0.01190  0.40800  0.06000  1.0000
  S   S2        1.0  0.24600  0.64600  0.06180  1.0000
  S   S3        1.0  0.75400  0.65400  0.09820  1.0000
  S   S4        1.0  0.57600  0.28100  0.10400  1.0000
  S   S5        1.0  0.42400  0.78100  0.39600  1.0000
  S   S6        1.0  0.24600  0.15400  0.40200  1.0000
  S   S7        1.0  0.75400  0.14600  0.43800  1.0000
  S   S8        1.0  0.98800  0.90800  0.44000  1.0000
  S   S9        1.0  0.48800  0.59200  0.56000  1.0000
  S   S10       1.0  0.25400  0.35400  0.56200  1.0000
  S   S11       1.0  0.74600  0.34600  0.59800  1.0000
  S   S12       1.0  0.92400  0.71900  0.60400  1.0000
  S   S13       1.0  0.07590  0.21900  0.89600  1.0000
  S   S14       1.0  0.25400  0.84600  0.90200  1.0000
  S   S15       1.0  0.74600  0.85400  0.93800  1.0000
  S   S16       1.0  0.51200  0.09200  0.94000  1.0000
  Sm  Sm1       1.0  0.01860  0.77300  0.20800  1.0000
  Sm  Sm2       1.0  0.98100  0.27300  0.29200  1.0000
  Sm  Sm3       1.0  0.48100  0.22700  0.70800  1.0000
  Sm  Sm4       1.0  0.51900  0.72700  0.79200  1.0000
