data_image0
_chemical_formula_structural       O18P4V2Zn4
_chemical_formula_sum              "O18 P4 V2 Zn4"
_cell_length_a       7.73048
_cell_length_b       7.73048
_cell_length_c       7.73048
_cell_angle_alpha    109.097
_cell_angle_beta     109.659
_cell_angle_gamma    109.659

_space_group_name_H-M_alt    "P 1"
_space_group_IT_number       1

loop_
  _space_group_symop_operation_xyz
  'x, y, z'

loop_
  _atom_site_type_symbol
  _atom_site_label
  _atom_site_symmetry_multiplicity
  _atom_site_fract_x
  _atom_site_fract_y
  _atom_site_fract_z
  _atom_site_occupancy
  O   O1        1.0  0.30800  0.98200  0.02430  1.0000
  O   O2        1.0  0.00000  0.08250  0.08250  1.0000
  O   O3        1.0  0.28300  0.64500  0.14500  1.0000
  O   O4        1.0  0.50000  0.38500  0.17200  1.0000
  O   O5        1.0  0.95800  0.48200  0.17400  1.0000
  O   O6        1.0  0.69200  0.17400  0.21600  1.0000
  O   O7        1.0  0.71700  0.86200  0.36200  1.0000
  O   O8        1.0  0.21300  0.88500  0.38500  1.0000
  O   O9        1.0  0.30800  0.52400  0.48200  1.0000
  O   O10       1.0  0.04190  0.21600  0.52400  1.0000
  O   O11       1.0  0.00000  0.58300  0.58300  1.0000
  O   O12       1.0  0.50000  0.36200  0.64500  1.0000
  O   O13       1.0  0.78700  0.17200  0.67200  1.0000
  O   O14       1.0  0.69200  0.71600  0.67400  1.0000
  O   O15       1.0  0.04190  0.02430  0.71600  1.0000
  O   O16       1.0  0.50000  0.14500  0.86200  1.0000
  O   O17       1.0  0.50000  0.67200  0.88500  1.0000
  O   O18       1.0  0.95800  0.67400  0.98200  1.0000
  P   P1        1.0  0.50000  0.18400  0.07200  1.0000
  P   P2        1.0  0.11200  0.68400  0.18400  1.0000
  P   P3        1.0  0.88800  0.07200  0.57200  1.0000
  P   P4        1.0  0.50000  0.57200  0.68400  1.0000
  V   V1        1.0  0.00000  0.40100  0.40100  1.0000
  V   V2        1.0  0.00000  0.90100  0.90100  1.0000
  Zn  Zn1       1.0  0.50000  0.85300  0.11800  1.0000
  Zn  Zn2       1.0  0.50000  0.61800  0.35300  1.0000
  Zn  Zn3       1.0  0.26500  0.11800  0.61800  1.0000
  Zn  Zn4       1.0  0.73500  0.35300  0.85300  1.0000
