data_image0
_chemical_formula_structural       Ba4O16P4Rb4
_chemical_formula_sum              "Ba4 O16 P4 Rb4"
_cell_length_a       7.79407
_cell_length_b       5.72417
_cell_length_c       10.0292
_cell_angle_alpha    90
_cell_angle_beta     90
_cell_angle_gamma    90

_space_group_name_H-M_alt    "P 1"
_space_group_IT_number       1

loop_
  _space_group_symop_operation_xyz
  'x, y, z'

loop_
  _atom_site_type_symbol
  _atom_site_label
  _atom_site_symmetry_multiplicity
  _atom_site_fract_x
  _atom_site_fract_y
  _atom_site_fract_z
  _atom_site_occupancy
  Ba  Ba1       1.0  0.99400  0.75000  0.19400  1.0000
  Ba  Ba2       1.0  0.49400  0.75000  0.30600  1.0000
  Ba  Ba3       1.0  0.50600  0.25000  0.69400  1.0000
  Ba  Ba4       1.0  0.00598  0.25000  0.80600  1.0000
  O   O1        1.0  0.30200  0.75000  0.06280  1.0000
  O   O2        1.0  0.96800  0.25000  0.08210  1.0000
  O   O3        1.0  0.70300  0.02720  0.15700  1.0000
  O   O4        1.0  0.70300  0.47300  0.15700  1.0000
  O   O5        1.0  0.20300  0.02720  0.34300  1.0000
  O   O6        1.0  0.20300  0.47300  0.34300  1.0000
  O   O7        1.0  0.46800  0.25000  0.41800  1.0000
  O   O8        1.0  0.80200  0.75000  0.43700  1.0000
  O   O9        1.0  0.19800  0.25000  0.56300  1.0000
  O   O10       1.0  0.53200  0.75000  0.58200  1.0000
  O   O11       1.0  0.79700  0.52700  0.65700  1.0000
  O   O12       1.0  0.79700  0.97300  0.65700  1.0000
  O   O13       1.0  0.29700  0.52700  0.84300  1.0000
  O   O14       1.0  0.29700  0.97300  0.84300  1.0000
  O   O15       1.0  0.03250  0.75000  0.91800  1.0000
  O   O16       1.0  0.69800  0.25000  0.93700  1.0000
  P   P1        1.0  0.76800  0.25000  0.08330  1.0000
  P   P2        1.0  0.26800  0.25000  0.41700  1.0000
  P   P3        1.0  0.73200  0.75000  0.58300  1.0000
  P   P4        1.0  0.23200  0.75000  0.91700  1.0000
  Rb  Rb1       1.0  0.34200  0.25000  0.08730  1.0000
  Rb  Rb2       1.0  0.84200  0.25000  0.41300  1.0000
  Rb  Rb3       1.0  0.15800  0.75000  0.58700  1.0000
  Rb  Rb4       1.0  0.65800  0.75000  0.91300  1.0000
