data_image0
_chemical_formula_structural       Ge8Nd12Ru8
_chemical_formula_sum              "Ge8 Nd12 Ru8"
_cell_length_a       5.73712
_cell_length_b       7.96132
_cell_length_c       13.7751
_cell_angle_alpha    90
_cell_angle_beta     90
_cell_angle_gamma    90

_space_group_name_H-M_alt    "P 1"
_space_group_IT_number       1

loop_
  _space_group_symop_operation_xyz
  'x, y, z'

loop_
  _atom_site_type_symbol
  _atom_site_label
  _atom_site_symmetry_multiplicity
  _atom_site_fract_x
  _atom_site_fract_y
  _atom_site_fract_z
  _atom_site_occupancy
  Ge  Ge1       1.0  0.62100  0.25000  0.00000  1.0000
  Ge  Ge2       1.0  0.37900  0.75000  0.00000  1.0000
  Ge  Ge3       1.0  0.13600  0.39000  0.25000  1.0000
  Ge  Ge4       1.0  0.86400  0.89000  0.25000  1.0000
  Ge  Ge5       1.0  0.62100  0.25000  0.50000  1.0000
  Ge  Ge6       1.0  0.37900  0.75000  0.50000  1.0000
  Ge  Ge7       1.0  0.13600  0.11000  0.75000  1.0000
  Ge  Ge8       1.0  0.86400  0.61000  0.75000  1.0000
  Nd  Nd1       1.0  0.15000  0.09810  0.09850  1.0000
  Nd  Nd2       1.0  0.85000  0.59800  0.09850  1.0000
  Nd  Nd3       1.0  0.62900  0.23800  0.25000  1.0000
  Nd  Nd4       1.0  0.37100  0.73800  0.25000  1.0000
  Nd  Nd5       1.0  0.15000  0.09810  0.40100  1.0000
  Nd  Nd6       1.0  0.85000  0.59800  0.40100  1.0000
  Nd  Nd7       1.0  0.15000  0.40200  0.59900  1.0000
  Nd  Nd8       1.0  0.85000  0.90200  0.59900  1.0000
  Nd  Nd9       1.0  0.62900  0.26200  0.75000  1.0000
  Nd  Nd10      1.0  0.37100  0.76200  0.75000  1.0000
  Nd  Nd11      1.0  0.15000  0.40200  0.90100  1.0000
  Nd  Nd12      1.0  0.85000  0.90200  0.90100  1.0000
  Ru  Ru1       1.0  0.35600  0.46800  0.09060  1.0000
  Ru  Ru2       1.0  0.64400  0.96800  0.09060  1.0000
  Ru  Ru3       1.0  0.35600  0.46800  0.40900  1.0000
  Ru  Ru4       1.0  0.64400  0.96800  0.40900  1.0000
  Ru  Ru5       1.0  0.35600  0.03180  0.59100  1.0000
  Ru  Ru6       1.0  0.64400  0.53200  0.59100  1.0000
  Ru  Ru7       1.0  0.35600  0.03180  0.90900  1.0000
  Ru  Ru8       1.0  0.64400  0.53200  0.90900  1.0000
