data_image0
_chemical_formula_structural       O16P4Tl4Zn4
_chemical_formula_sum              "O16 P4 Tl4 Zn4"
_cell_length_a       8.6766
_cell_length_b       5.45238
_cell_length_c       8.7724
_cell_angle_alpha    90
_cell_angle_beta     90.7142
_cell_angle_gamma    90

_space_group_name_H-M_alt    "P 1"
_space_group_IT_number       1

loop_
  _space_group_symop_operation_xyz
  'x, y, z'

loop_
  _atom_site_type_symbol
  _atom_site_label
  _atom_site_symmetry_multiplicity
  _atom_site_fract_x
  _atom_site_fract_y
  _atom_site_fract_z
  _atom_site_occupancy
  O   O1        1.0  0.21200  0.23100  0.00917  1.0000
  O   O2        1.0  0.46400  0.99700  0.01130  1.0000
  O   O3        1.0  0.78600  0.27700  0.04570  1.0000
  O   O4        1.0  0.67600  0.57600  0.24100  1.0000
  O   O5        1.0  0.31800  0.59800  0.28900  1.0000
  O   O6        1.0  0.03340  0.51500  0.32000  1.0000
  O   O7        1.0  0.23200  0.22400  0.43500  1.0000
  O   O8        1.0  0.80000  0.14900  0.45200  1.0000
  O   O9        1.0  0.20000  0.64900  0.54800  1.0000
  O   O10       1.0  0.76800  0.72400  0.56500  1.0000
  O   O11       1.0  0.96700  0.01520  0.68000  1.0000
  O   O12       1.0  0.68200  0.09750  0.71100  1.0000
  O   O13       1.0  0.32400  0.07590  0.75900  1.0000
  O   O14       1.0  0.21400  0.77700  0.95400  1.0000
  O   O15       1.0  0.53600  0.49700  0.98900  1.0000
  O   O16       1.0  0.78800  0.73100  0.99100  1.0000
  P   P1        1.0  0.69600  0.52000  0.06900  1.0000
  P   P2        1.0  0.19400  0.49700  0.39900  1.0000
  P   P3        1.0  0.80600  0.99700  0.60100  1.0000
  P   P4        1.0  0.30400  0.02030  0.93100  1.0000
  Tl  Tl1       1.0  0.00231  0.00322  0.19200  1.0000
  Tl  Tl2       1.0  0.50800  0.00361  0.32100  1.0000
  Tl  Tl3       1.0  0.49200  0.50400  0.67900  1.0000
  Tl  Tl4       1.0  0.99800  0.50300  0.80800  1.0000
  Zn  Zn1       1.0  0.32900  0.52400  0.07290  1.0000
  Zn  Zn2       1.0  0.82600  0.49900  0.40300  1.0000
  Zn  Zn3       1.0  0.17400  0.99900  0.59700  1.0000
  Zn  Zn4       1.0  0.67100  0.02350  0.92700  1.0000
