data_image0
_chemical_formula_structural       C4Zn12Zr12
_chemical_formula_sum              "C4 Zn12 Zr12"
_cell_length_a       8.66783
_cell_length_b       8.66783
_cell_length_c       8.66783
_cell_angle_alpha    120
_cell_angle_beta     90
_cell_angle_gamma    120

_space_group_name_H-M_alt    "P 1"
_space_group_IT_number       1

loop_
  _space_group_symop_operation_xyz
  'x, y, z'

loop_
  _atom_site_type_symbol
  _atom_site_label
  _atom_site_symmetry_multiplicity
  _atom_site_fract_x
  _atom_site_fract_y
  _atom_site_fract_z
  _atom_site_occupancy
  C   C1        1.0  0.37500  0.75000  0.12500  1.0000
  C   C2        1.0  0.37500  0.25000  0.62500  1.0000
  C   C3        1.0  0.87500  0.25000  0.62500  1.0000
  C   C4        1.0  0.37500  0.75000  0.62500  1.0000
  Zn  Zn1       1.0  0.66900  0.33900  0.00832  1.0000
  Zn  Zn2       1.0  0.37500  0.25000  0.12500  1.0000
  Zn  Zn3       1.0  0.87500  0.25000  0.12500  1.0000
  Zn  Zn4       1.0  0.87500  0.75000  0.12500  1.0000
  Zn  Zn5       1.0  0.08060  0.16100  0.24200  1.0000
  Zn  Zn6       1.0  0.66900  0.33900  0.33100  1.0000
  Zn  Zn7       1.0  0.66900  0.66100  0.33100  1.0000
  Zn  Zn8       1.0  0.99200  0.66100  0.33100  1.0000
  Zn  Zn9       1.0  0.87500  0.75000  0.62500  1.0000
  Zn  Zn10      1.0  0.08060  0.16100  0.91900  1.0000
  Zn  Zn11      1.0  0.08060  0.83900  0.91900  1.0000
  Zn  Zn12      1.0  0.75800  0.83900  0.91900  1.0000
  Zr  Zr1       1.0  0.31000  0.00000  0.31000  1.0000
  Zr  Zr2       1.0  0.69000  0.00000  0.31000  1.0000
  Zr  Zr3       1.0  0.31000  0.62000  0.31000  1.0000
  Zr  Zr4       1.0  0.06000  0.12000  0.56000  1.0000
  Zr  Zr5       1.0  0.06000  0.50000  0.56000  1.0000
  Zr  Zr6       1.0  0.44000  0.50000  0.56000  1.0000
  Zr  Zr7       1.0  0.69000  0.00000  0.69000  1.0000
  Zr  Zr8       1.0  0.31000  0.00000  0.69000  1.0000
  Zr  Zr9       1.0  0.69000  0.38000  0.69000  1.0000
  Zr  Zr10      1.0  0.06000  0.50000  0.94000  1.0000
  Zr  Zr11      1.0  0.44000  0.50000  0.94000  1.0000
  Zr  Zr12      1.0  0.44000  0.88000  0.94000  1.0000
