data_image0
_chemical_formula_structural       F20Rb4S4
_chemical_formula_sum              "F20 Rb4 S4"
_cell_length_a       7.32463
_cell_length_b       9.20916
_cell_length_c       5.73009
_cell_angle_alpha    90
_cell_angle_beta     90
_cell_angle_gamma    90

_space_group_name_H-M_alt    "P 1"
_space_group_IT_number       1

loop_
  _space_group_symop_operation_xyz
  'x, y, z'

loop_
  _atom_site_type_symbol
  _atom_site_label
  _atom_site_symmetry_multiplicity
  _atom_site_fract_x
  _atom_site_fract_y
  _atom_site_fract_z
  _atom_site_occupancy
  F   F1        1.0  0.17700  0.07920  0.02890  1.0000
  F   F2        1.0  0.32300  0.57900  0.02890  1.0000
  F   F3        1.0  0.50500  0.14400  0.03700  1.0000
  F   F4        1.0  0.99500  0.64400  0.03700  1.0000
  F   F5        1.0  0.29100  0.26500  0.25000  1.0000
  F   F6        1.0  0.20900  0.76500  0.25000  1.0000
  F   F7        1.0  0.50500  0.14400  0.46300  1.0000
  F   F8        1.0  0.99500  0.64400  0.46300  1.0000
  F   F9        1.0  0.17700  0.07920  0.47100  1.0000
  F   F10       1.0  0.32300  0.57900  0.47100  1.0000
  F   F11       1.0  0.67700  0.42100  0.52900  1.0000
  F   F12       1.0  0.82300  0.92100  0.52900  1.0000
  F   F13       1.0  0.00538  0.35600  0.53700  1.0000
  F   F14       1.0  0.49500  0.85600  0.53700  1.0000
  F   F15       1.0  0.79100  0.23500  0.75000  1.0000
  F   F16       1.0  0.70900  0.73500  0.75000  1.0000
  F   F17       1.0  0.00538  0.35600  0.96300  1.0000
  F   F18       1.0  0.49500  0.85600  0.96300  1.0000
  F   F19       1.0  0.67700  0.42100  0.97100  1.0000
  F   F20       1.0  0.82300  0.92100  0.97100  1.0000
  Rb  Rb1       1.0  0.84500  0.15900  0.25000  1.0000
  Rb  Rb2       1.0  0.65500  0.65900  0.25000  1.0000
  Rb  Rb3       1.0  0.34500  0.34100  0.75000  1.0000
  Rb  Rb4       1.0  0.15500  0.84100  0.75000  1.0000
  S   S1        1.0  0.34600  0.09450  0.25000  1.0000
  S   S2        1.0  0.15400  0.59400  0.25000  1.0000
  S   S3        1.0  0.84600  0.40600  0.75000  1.0000
  S   S4        1.0  0.65400  0.90600  0.75000  1.0000
