data_image0
_chemical_formula_structural       As4O16Tl4Zn4
_chemical_formula_sum              "As4 O16 Tl4 Zn4"
_cell_length_a       8.89797
_cell_length_b       5.62119
_cell_length_c       8.88664
_cell_angle_alpha    90
_cell_angle_beta     91.2794
_cell_angle_gamma    90

_space_group_name_H-M_alt    "P 1"
_space_group_IT_number       1

loop_
  _space_group_symop_operation_xyz
  'x, y, z'

loop_
  _atom_site_type_symbol
  _atom_site_label
  _atom_site_symmetry_multiplicity
  _atom_site_fract_x
  _atom_site_fract_y
  _atom_site_fract_z
  _atom_site_occupancy
  As  As1       1.0  0.69300  0.53800  0.06270  1.0000
  As  As2       1.0  0.18900  0.49300  0.39900  1.0000
  As  As3       1.0  0.81100  0.99300  0.60100  1.0000
  As  As4       1.0  0.30700  0.03790  0.93700  1.0000
  O   O1        1.0  0.20800  0.26500  0.01850  1.0000
  O   O2        1.0  0.47800  0.00826  0.03160  1.0000
  O   O3        1.0  0.79400  0.28200  0.03340  1.0000
  O   O4        1.0  0.66700  0.59000  0.25100  1.0000
  O   O5        1.0  0.33200  0.60000  0.29200  1.0000
  O   O6        1.0  0.02000  0.53300  0.30500  1.0000
  O   O7        1.0  0.22100  0.19400  0.42800  1.0000
  O   O8        1.0  0.80500  0.14500  0.43200  1.0000
  O   O9        1.0  0.19500  0.64500  0.56800  1.0000
  O   O10       1.0  0.77900  0.69400  0.57200  1.0000
  O   O11       1.0  0.98000  0.03280  0.69500  1.0000
  O   O12       1.0  0.66800  0.10000  0.70800  1.0000
  O   O13       1.0  0.33300  0.08970  0.74900  1.0000
  O   O14       1.0  0.20600  0.78200  0.96700  1.0000
  O   O15       1.0  0.52200  0.50800  0.96800  1.0000
  O   O16       1.0  0.79200  0.76500  0.98200  1.0000
  Tl  Tl1       1.0  0.99900  0.01060  0.18400  1.0000
  Tl  Tl2       1.0  0.50300  0.99700  0.33300  1.0000
  Tl  Tl3       1.0  0.49700  0.49700  0.66700  1.0000
  Tl  Tl4       1.0  0.00143  0.51100  0.81600  1.0000
  Zn  Zn1       1.0  0.33200  0.54300  0.07580  1.0000
  Zn  Zn2       1.0  0.82400  0.49300  0.39900  1.0000
  Zn  Zn3       1.0  0.17600  0.99300  0.60100  1.0000
  Zn  Zn4       1.0  0.66800  0.04290  0.92400  1.0000
