data_image0
_chemical_formula_structural       Ca4In4S16Yb4
_chemical_formula_sum              "Ca4 In4 S16 Yb4"
_cell_length_a       13.7357
_cell_length_b       8.03351
_cell_length_c       6.73073
_cell_angle_alpha    90
_cell_angle_beta     90
_cell_angle_gamma    90

_space_group_name_H-M_alt    "P 1"
_space_group_IT_number       1

loop_
  _space_group_symop_operation_xyz
  'x, y, z'

loop_
  _atom_site_type_symbol
  _atom_site_label
  _atom_site_symmetry_multiplicity
  _atom_site_fract_x
  _atom_site_fract_y
  _atom_site_fract_z
  _atom_site_occupancy
  Ca  Ca1       1.0  0.73100  0.75000  0.00813  1.0000
  Ca  Ca2       1.0  0.23100  0.75000  0.49200  1.0000
  Ca  Ca3       1.0  0.76900  0.25000  0.50800  1.0000
  Ca  Ca4       1.0  0.26900  0.25000  0.99200  1.0000
  In  In1       1.0  0.59100  0.25000  0.08400  1.0000
  In  In2       1.0  0.09120  0.25000  0.41600  1.0000
  In  In3       1.0  0.90900  0.75000  0.58400  1.0000
  In  In4       1.0  0.40900  0.75000  0.91600  1.0000
  S   S1        1.0  0.91000  0.75000  0.22200  1.0000
  S   S2        1.0  0.16800  0.01180  0.23900  1.0000
  S   S3        1.0  0.16800  0.48800  0.23900  1.0000
  S   S4        1.0  0.92800  0.25000  0.24900  1.0000
  S   S5        1.0  0.42800  0.25000  0.25100  1.0000
  S   S6        1.0  0.66800  0.01180  0.26100  1.0000
  S   S7        1.0  0.66800  0.48800  0.26100  1.0000
  S   S8        1.0  0.41000  0.75000  0.27800  1.0000
  S   S9        1.0  0.59000  0.25000  0.72200  1.0000
  S   S10       1.0  0.33200  0.51200  0.73900  1.0000
  S   S11       1.0  0.33200  0.98800  0.73900  1.0000
  S   S12       1.0  0.57200  0.75000  0.74900  1.0000
  S   S13       1.0  0.07220  0.75000  0.75100  1.0000
  S   S14       1.0  0.83200  0.51200  0.76100  1.0000
  S   S15       1.0  0.83200  0.98800  0.76100  1.0000
  S   S16       1.0  0.08990  0.25000  0.77800  1.0000
  Yb  Yb1       1.0  0.00000  0.00000  0.00000  1.0000
  Yb  Yb2       1.0  0.00000  0.50000  0.00000  1.0000
  Yb  Yb3       1.0  0.50000  0.00000  0.50000  1.0000
  Yb  Yb4       1.0  0.50000  0.50000  0.50000  1.0000
