data_image0
_chemical_formula_structural       Li4Nb4O16Zn4
_chemical_formula_sum              "Li4 Nb4 O16 Zn4"
_cell_length_a       6.03148
_cell_length_b       6.03148
_cell_length_c       8.28201
_cell_angle_alpha    90
_cell_angle_beta     90
_cell_angle_gamma    90

_space_group_name_H-M_alt    "P 1"
_space_group_IT_number       1

loop_
  _space_group_symop_operation_xyz
  'x, y, z'

loop_
  _atom_site_type_symbol
  _atom_site_label
  _atom_site_symmetry_multiplicity
  _atom_site_fract_x
  _atom_site_fract_y
  _atom_site_fract_z
  _atom_site_occupancy
  Li  Li1       1.0  0.21800  0.00000  0.25000  1.0000
  Li  Li2       1.0  0.78200  0.00000  0.75000  1.0000
  Li  Li3       1.0  0.00000  0.78200  0.50000  1.0000
  Li  Li4       1.0  0.00000  0.21800  0.00000  1.0000
  Nb  Nb1       1.0  0.50000  0.20900  0.00000  1.0000
  Nb  Nb2       1.0  0.50000  0.79100  0.50000  1.0000
  Nb  Nb3       1.0  0.79100  0.50000  0.75000  1.0000
  Nb  Nb4       1.0  0.20900  0.50000  0.25000  1.0000
  O   O1        1.0  0.25700  0.01110  0.00122  1.0000
  O   O2        1.0  0.74300  0.98900  0.50100  1.0000
  O   O3        1.0  0.25700  0.98900  0.49900  1.0000
  O   O4        1.0  0.74300  0.01110  0.99900  1.0000
  O   O5        1.0  0.98900  0.74300  0.74900  1.0000
  O   O6        1.0  0.01110  0.25700  0.24900  1.0000
  O   O7        1.0  0.01110  0.74300  0.25100  1.0000
  O   O8        1.0  0.98900  0.25700  0.75100  1.0000
  O   O9        1.0  0.26100  0.47700  0.01180  1.0000
  O   O10       1.0  0.73900  0.52300  0.51200  1.0000
  O   O11       1.0  0.26100  0.52300  0.48800  1.0000
  O   O12       1.0  0.73900  0.47700  0.98800  1.0000
  O   O13       1.0  0.52300  0.73900  0.73800  1.0000
  O   O14       1.0  0.47700  0.26100  0.23800  1.0000
  O   O15       1.0  0.47700  0.73900  0.26200  1.0000
  O   O16       1.0  0.52300  0.26100  0.76200  1.0000
  Zn  Zn1       1.0  0.26000  0.26000  0.62500  1.0000
  Zn  Zn2       1.0  0.74000  0.74000  0.12500  1.0000
  Zn  Zn3       1.0  0.26000  0.74000  0.87500  1.0000
  Zn  Zn4       1.0  0.74000  0.26000  0.37500  1.0000
