data_image0
_chemical_formula_structural       Ba4Ga4Nd4O16
_chemical_formula_sum              "Ba4 Ga4 Nd4 O16"
_cell_length_a       9.94067
_cell_length_b       7.08644
_cell_length_c       5.84772
_cell_angle_alpha    90
_cell_angle_beta     90
_cell_angle_gamma    90

_space_group_name_H-M_alt    "P 1"
_space_group_IT_number       1

loop_
  _space_group_symop_operation_xyz
  'x, y, z'

loop_
  _atom_site_type_symbol
  _atom_site_label
  _atom_site_symmetry_multiplicity
  _atom_site_fract_x
  _atom_site_fract_y
  _atom_site_fract_z
  _atom_site_occupancy
  Ba  Ba1       1.0  0.67100  0.33000  0.24600  1.0000
  Ba  Ba2       1.0  0.32900  0.83000  0.25400  1.0000
  Ba  Ba3       1.0  0.82900  0.67000  0.74600  1.0000
  Ba  Ba4       1.0  0.17100  0.17000  0.75400  1.0000
  Ga  Ga1       1.0  0.66800  0.78700  0.23800  1.0000
  Ga  Ga2       1.0  0.33200  0.28700  0.26200  1.0000
  Ga  Ga3       1.0  0.83200  0.21300  0.73800  1.0000
  Ga  Ga4       1.0  0.16800  0.71300  0.76200  1.0000
  Nd  Nd1       1.0  0.04890  0.49900  0.23800  1.0000
  Nd  Nd2       1.0  0.95100  0.99900  0.26200  1.0000
  Nd  Nd3       1.0  0.45100  0.50100  0.73800  1.0000
  Nd  Nd4       1.0  0.54900  0.00137  0.76200  1.0000
  O   O1        1.0  0.43400  0.23400  0.00373  1.0000
  O   O2        1.0  0.55200  0.69600  0.00815  1.0000
  O   O3        1.0  0.72400  0.00000  0.07600  1.0000
  O   O4        1.0  0.17200  0.15000  0.24900  1.0000
  O   O5        1.0  0.82800  0.65000  0.25100  1.0000
  O   O6        1.0  0.27600  0.50000  0.42400  1.0000
  O   O7        1.0  0.44800  0.19600  0.49200  1.0000
  O   O8        1.0  0.56600  0.73400  0.49600  1.0000
  O   O9        1.0  0.06620  0.76600  0.50400  1.0000
  O   O10       1.0  0.94800  0.30400  0.50800  1.0000
  O   O11       1.0  0.77600  0.00031  0.57600  1.0000
  O   O12       1.0  0.32800  0.85000  0.74900  1.0000
  O   O13       1.0  0.67200  0.35000  0.75100  1.0000
  O   O14       1.0  0.22400  0.50000  0.92400  1.0000
  O   O15       1.0  0.05170  0.80400  0.99200  1.0000
  O   O16       1.0  0.93400  0.26600  0.99600  1.0000
