data_image0
_chemical_formula_structural       Ge4Na12Se12
_chemical_formula_sum              "Ge4 Na12 Se12"
_cell_length_a       8.45446
_cell_length_b       12.0217
_cell_length_c       8.27391
_cell_angle_alpha    90
_cell_angle_beta     118.993
_cell_angle_gamma    90

_space_group_name_H-M_alt    "P 1"
_space_group_IT_number       1

loop_
  _space_group_symop_operation_xyz
  'x, y, z'

loop_
  _atom_site_type_symbol
  _atom_site_label
  _atom_site_symmetry_multiplicity
  _atom_site_fract_x
  _atom_site_fract_y
  _atom_site_fract_z
  _atom_site_occupancy
  Ge  Ge1       1.0  0.65900  0.49100  0.12600  1.0000
  Ge  Ge2       1.0  0.34100  0.99100  0.37400  1.0000
  Ge  Ge3       1.0  0.65900  0.00870  0.62600  1.0000
  Ge  Ge4       1.0  0.34100  0.50900  0.87400  1.0000
  Na  Na1       1.0  0.99700  0.16000  0.01960  1.0000
  Na  Na2       1.0  0.22700  0.56500  0.20700  1.0000
  Na  Na3       1.0  0.53700  0.78000  0.23100  1.0000
  Na  Na4       1.0  0.46300  0.28000  0.26900  1.0000
  Na  Na5       1.0  0.77300  0.06540  0.29300  1.0000
  Na  Na6       1.0  0.00277  0.66000  0.48000  1.0000
  Na  Na7       1.0  0.99700  0.34000  0.52000  1.0000
  Na  Na8       1.0  0.22700  0.93500  0.70700  1.0000
  Na  Na9       1.0  0.53700  0.72000  0.73100  1.0000
  Na  Na10      1.0  0.46300  0.22000  0.76900  1.0000
  Na  Na11      1.0  0.77300  0.43500  0.79300  1.0000
  Na  Na12      1.0  0.00277  0.84000  0.98000  1.0000
  Se  Se1       1.0  0.83600  0.62200  0.06420  1.0000
  Se  Se2       1.0  0.33700  0.03320  0.09270  1.0000
  Se  Se3       1.0  0.74900  0.30300  0.11900  1.0000
  Se  Se4       1.0  0.25100  0.80300  0.38100  1.0000
  Se  Se5       1.0  0.66300  0.53300  0.40700  1.0000
  Se  Se6       1.0  0.16400  0.12200  0.43600  1.0000
  Se  Se7       1.0  0.83600  0.87800  0.56400  1.0000
  Se  Se8       1.0  0.33700  0.46700  0.59300  1.0000
  Se  Se9       1.0  0.74900  0.19700  0.61900  1.0000
  Se  Se10      1.0  0.25100  0.69700  0.88100  1.0000
  Se  Se11      1.0  0.66300  0.96700  0.90700  1.0000
  Se  Se12      1.0  0.16400  0.37800  0.93600  1.0000
