data_image0
_chemical_formula_structural       Cs8Sn4Te16
_chemical_formula_sum              "Cs8 Sn4 Te16"
_cell_length_a       12.8476
_cell_length_b       12.0929
_cell_length_c       7.78725
_cell_angle_alpha    90
_cell_angle_beta     90
_cell_angle_gamma    90

_space_group_name_H-M_alt    "P 1"
_space_group_IT_number       1

loop_
  _space_group_symop_operation_xyz
  'x, y, z'

loop_
  _atom_site_type_symbol
  _atom_site_label
  _atom_site_symmetry_multiplicity
  _atom_site_fract_x
  _atom_site_fract_y
  _atom_site_fract_z
  _atom_site_occupancy
  Cs  Cs1       1.0  0.85400  0.55600  0.10500  1.0000
  Cs  Cs2       1.0  0.85400  0.94400  0.10500  1.0000
  Cs  Cs3       1.0  0.35400  0.55600  0.39500  1.0000
  Cs  Cs4       1.0  0.35400  0.94400  0.39500  1.0000
  Cs  Cs5       1.0  0.64600  0.05610  0.60500  1.0000
  Cs  Cs6       1.0  0.64600  0.44400  0.60500  1.0000
  Cs  Cs7       1.0  0.14600  0.05610  0.89500  1.0000
  Cs  Cs8       1.0  0.14600  0.44400  0.89500  1.0000
  Sn  Sn1       1.0  0.43400  0.25000  0.00132  1.0000
  Sn  Sn2       1.0  0.93400  0.25000  0.49900  1.0000
  Sn  Sn3       1.0  0.06570  0.75000  0.50100  1.0000
  Sn  Sn4       1.0  0.56600  0.75000  0.99900  1.0000
  Te  Te1       1.0  0.57100  0.07060  0.09160  1.0000
  Te  Te2       1.0  0.57100  0.42900  0.09160  1.0000
  Te  Te3       1.0  0.12600  0.75000  0.15700  1.0000
  Te  Te4       1.0  0.77500  0.25000  0.24700  1.0000
  Te  Te5       1.0  0.27500  0.25000  0.25300  1.0000
  Te  Te6       1.0  0.62600  0.75000  0.34300  1.0000
  Te  Te7       1.0  0.07080  0.07060  0.40800  1.0000
  Te  Te8       1.0  0.07080  0.42900  0.40800  1.0000
  Te  Te9       1.0  0.92900  0.57100  0.59200  1.0000
  Te  Te10      1.0  0.92900  0.92900  0.59200  1.0000
  Te  Te11      1.0  0.37400  0.25000  0.65700  1.0000
  Te  Te12      1.0  0.72500  0.75000  0.74700  1.0000
  Te  Te13      1.0  0.22500  0.75000  0.75300  1.0000
  Te  Te14      1.0  0.87400  0.25000  0.84300  1.0000
  Te  Te15      1.0  0.42900  0.57100  0.90800  1.0000
  Te  Te16      1.0  0.42900  0.92900  0.90800  1.0000
