data_image0
_chemical_formula_structural       NiO4Pr2
_chemical_formula_sum              "Ni1 O4 Pr2"
_cell_length_a       3.82688
_cell_length_b       3.82688
_cell_length_c       6.75957
_cell_angle_alpha    106.391
_cell_angle_beta     106.391
_cell_angle_gamma    90.1786

_space_group_name_H-M_alt    "P 1"
_space_group_IT_number       1

loop_
  _space_group_symop_operation_xyz
  'x, y, z'

loop_
  _atom_site_type_symbol
  _atom_site_label
  _atom_site_symmetry_multiplicity
  _atom_site_fract_x
  _atom_site_fract_y
  _atom_site_fract_z
  _atom_site_occupancy
  Ni  Ni1       1.0  0.00000  0.00000  0.00000  1.0000
  O   O1        1.0  0.50000  0.00000  0.00000  1.0000
  O   O2        1.0  0.00000  0.50000  0.00000  1.0000
  O   O3        1.0  0.17700  0.17700  0.35400  1.0000
  O   O4        1.0  0.82300  0.82300  0.64600  1.0000
  Pr  Pr1       1.0  0.63600  0.63600  0.27200  1.0000
  Pr  Pr2       1.0  0.36400  0.36400  0.72800  1.0000
