data_image0
_chemical_formula_structural       P4S16Sn4Tl4
_chemical_formula_sum              "P4 S16 Sn4 Tl4"
_cell_length_a       12.0187
_cell_length_b       8.93267
_cell_length_c       6.70894
_cell_angle_alpha    90
_cell_angle_beta     90
_cell_angle_gamma    90

_space_group_name_H-M_alt    "P 1"
_space_group_IT_number       1

loop_
  _space_group_symop_operation_xyz
  'x, y, z'

loop_
  _atom_site_type_symbol
  _atom_site_label
  _atom_site_symmetry_multiplicity
  _atom_site_fract_x
  _atom_site_fract_y
  _atom_site_fract_z
  _atom_site_occupancy
  P   P1        1.0  0.34200  0.62900  0.02270  1.0000
  P   P2        1.0  0.84200  0.87100  0.02270  1.0000
  P   P3        1.0  0.15800  0.12900  0.52300  1.0000
  P   P4        1.0  0.65800  0.37100  0.52300  1.0000
  S   S1        1.0  0.95500  0.69700  0.00717  1.0000
  S   S2        1.0  0.45500  0.80300  0.00717  1.0000
  S   S3        1.0  0.93000  0.07010  0.04740  1.0000
  S   S4        1.0  0.43000  0.43000  0.04740  1.0000
  S   S5        1.0  0.24000  0.65200  0.26200  1.0000
  S   S6        1.0  0.74000  0.84800  0.26200  1.0000
  S   S7        1.0  0.25500  0.13000  0.27200  1.0000
  S   S8        1.0  0.75500  0.37000  0.27200  1.0000
  S   S9        1.0  0.54500  0.19700  0.50700  1.0000
  S   S10       1.0  0.04530  0.30300  0.50700  1.0000
  S   S11       1.0  0.57000  0.57000  0.54700  1.0000
  S   S12       1.0  0.06970  0.93000  0.54700  1.0000
  S   S13       1.0  0.26000  0.15200  0.76200  1.0000
  S   S14       1.0  0.76000  0.34800  0.76200  1.0000
  S   S15       1.0  0.24500  0.63000  0.77200  1.0000
  S   S16       1.0  0.74500  0.87000  0.77200  1.0000
  Sn  Sn1       1.0  0.87000  0.11300  0.45900  1.0000
  Sn  Sn2       1.0  0.37000  0.38700  0.45900  1.0000
  Sn  Sn3       1.0  0.63000  0.61300  0.95900  1.0000
  Sn  Sn4       1.0  0.13000  0.88700  0.95900  1.0000
  Tl  Tl1       1.0  0.89500  0.63400  0.49800  1.0000
  Tl  Tl2       1.0  0.39500  0.86600  0.49800  1.0000
  Tl  Tl3       1.0  0.60500  0.13400  0.99800  1.0000
  Tl  Tl4       1.0  0.10500  0.36600  0.99800  1.0000
