data_image0
_chemical_formula_structural       Br16Na8Zn4
_chemical_formula_sum              "Br16 Na8 Zn4"
_cell_length_a       14.5482
_cell_length_b       8.59817
_cell_length_c       6.82835
_cell_angle_alpha    90
_cell_angle_beta     90
_cell_angle_gamma    90

_space_group_name_H-M_alt    "P 1"
_space_group_IT_number       1

loop_
  _space_group_symop_operation_xyz
  'x, y, z'

loop_
  _atom_site_type_symbol
  _atom_site_label
  _atom_site_symmetry_multiplicity
  _atom_site_fract_x
  _atom_site_fract_y
  _atom_site_fract_z
  _atom_site_occupancy
  Br  Br1       1.0  0.43600  0.25000  0.23800  1.0000
  Br  Br2       1.0  0.90800  0.75000  0.24100  1.0000
  Br  Br3       1.0  0.66700  0.02490  0.24400  1.0000
  Br  Br4       1.0  0.66700  0.47500  0.24400  1.0000
  Br  Br5       1.0  0.16700  0.02490  0.25600  1.0000
  Br  Br6       1.0  0.16700  0.47500  0.25600  1.0000
  Br  Br7       1.0  0.40800  0.75000  0.25900  1.0000
  Br  Br8       1.0  0.93600  0.25000  0.26200  1.0000
  Br  Br9       1.0  0.06400  0.75000  0.73800  1.0000
  Br  Br10      1.0  0.59200  0.25000  0.74100  1.0000
  Br  Br11      1.0  0.83300  0.52500  0.74400  1.0000
  Br  Br12      1.0  0.83300  0.97500  0.74400  1.0000
  Br  Br13      1.0  0.33300  0.52500  0.75600  1.0000
  Br  Br14      1.0  0.33300  0.97500  0.75600  1.0000
  Br  Br15      1.0  0.09250  0.25000  0.75900  1.0000
  Br  Br16      1.0  0.56400  0.75000  0.76200  1.0000
  Na  Na1       1.0  0.00000  0.00000  0.00000  1.0000
  Na  Na2       1.0  0.00000  0.50000  0.00000  1.0000
  Na  Na3       1.0  0.73000  0.75000  0.00794  1.0000
  Na  Na4       1.0  0.23000  0.75000  0.49200  1.0000
  Na  Na5       1.0  0.50000  0.00000  0.50000  1.0000
  Na  Na6       1.0  0.50000  0.50000  0.50000  1.0000
  Na  Na7       1.0  0.77000  0.25000  0.50800  1.0000
  Na  Na8       1.0  0.27000  0.25000  0.99200  1.0000
  Zn  Zn1       1.0  0.59100  0.25000  0.09410  1.0000
  Zn  Zn2       1.0  0.09130  0.25000  0.40600  1.0000
  Zn  Zn3       1.0  0.90900  0.75000  0.59400  1.0000
  Zn  Zn4       1.0  0.40900  0.75000  0.90600  1.0000
