data_image0
_chemical_formula_structural       S16Tm8Zn4
_chemical_formula_sum              "S16 Tm8 Zn4"
_cell_length_a       13.3432
_cell_length_b       7.77623
_cell_length_c       6.28492
_cell_angle_alpha    90
_cell_angle_beta     90
_cell_angle_gamma    90

_space_group_name_H-M_alt    "P 1"
_space_group_IT_number       1

loop_
  _space_group_symop_operation_xyz
  'x, y, z'

loop_
  _atom_site_type_symbol
  _atom_site_label
  _atom_site_symmetry_multiplicity
  _atom_site_fract_x
  _atom_site_fract_y
  _atom_site_fract_z
  _atom_site_occupancy
  S   S1        1.0  0.09040  0.25000  0.22300  1.0000
  S   S2        1.0  0.83100  0.51100  0.24200  1.0000
  S   S3        1.0  0.83100  0.98900  0.24200  1.0000
  S   S4        1.0  0.57100  0.75000  0.24500  1.0000
  S   S5        1.0  0.07090  0.75000  0.25500  1.0000
  S   S6        1.0  0.33100  0.51100  0.25800  1.0000
  S   S7        1.0  0.33100  0.98900  0.25800  1.0000
  S   S8        1.0  0.59000  0.25000  0.27700  1.0000
  S   S9        1.0  0.41000  0.75000  0.72300  1.0000
  S   S10       1.0  0.66900  0.01150  0.74200  1.0000
  S   S11       1.0  0.66900  0.48900  0.74200  1.0000
  S   S12       1.0  0.92900  0.25000  0.74500  1.0000
  S   S13       1.0  0.42900  0.25000  0.75500  1.0000
  S   S14       1.0  0.16900  0.01150  0.75800  1.0000
  S   S15       1.0  0.16900  0.48900  0.75800  1.0000
  S   S16       1.0  0.91000  0.75000  0.77700  1.0000
  Tm  Tm1       1.0  0.00000  0.00000  0.00000  1.0000
  Tm  Tm2       1.0  0.00000  0.50000  0.00000  1.0000
  Tm  Tm3       1.0  0.26600  0.25000  0.00366  1.0000
  Tm  Tm4       1.0  0.76600  0.25000  0.49600  1.0000
  Tm  Tm5       1.0  0.50000  0.00000  0.50000  1.0000
  Tm  Tm6       1.0  0.50000  0.50000  0.50000  1.0000
  Tm  Tm7       1.0  0.23400  0.75000  0.50400  1.0000
  Tm  Tm8       1.0  0.73400  0.75000  0.99600  1.0000
  Zn  Zn1       1.0  0.40800  0.75000  0.08870  1.0000
  Zn  Zn2       1.0  0.90800  0.75000  0.41100  1.0000
  Zn  Zn3       1.0  0.09220  0.25000  0.58900  1.0000
  Zn  Zn4       1.0  0.59200  0.25000  0.91100  1.0000
