data_image0
_chemical_formula_structural       Ga2K12Na6Sb8
_chemical_formula_sum              "Ga2 K12 Na6 Sb8"
_cell_length_a       10.2566
_cell_length_b       10.2565
_cell_length_c       10.5282
_cell_angle_alpha    90
_cell_angle_beta     90
_cell_angle_gamma    120

_space_group_name_H-M_alt    "P 1"
_space_group_IT_number       1

loop_
  _space_group_symop_operation_xyz
  'x, y, z'

loop_
  _atom_site_type_symbol
  _atom_site_label
  _atom_site_symmetry_multiplicity
  _atom_site_fract_x
  _atom_site_fract_y
  _atom_site_fract_z
  _atom_site_occupancy
  Ga  Ga1       1.0  0.33300  0.66700  0.25000  1.0000
  Ga  Ga2       1.0  0.66700  0.33300  0.75000  1.0000
  K   K1        1.0  0.41500  0.20700  0.04020  1.0000
  K   K2        1.0  0.79300  0.20700  0.04020  1.0000
  K   K3        1.0  0.79300  0.58500  0.04020  1.0000
  K   K4        1.0  0.79300  0.58500  0.46000  1.0000
  K   K5        1.0  0.41500  0.20700  0.46000  1.0000
  K   K6        1.0  0.79300  0.20700  0.46000  1.0000
  K   K7        1.0  0.20700  0.79300  0.54000  1.0000
  K   K8        1.0  0.58500  0.79300  0.54000  1.0000
  K   K9        1.0  0.20700  0.41500  0.54000  1.0000
  K   K10       1.0  0.20700  0.41500  0.96000  1.0000
  K   K11       1.0  0.20700  0.79300  0.96000  1.0000
  K   K12       1.0  0.58500  0.79300  0.96000  1.0000
  Na  Na1       1.0  0.11600  0.23200  0.25000  1.0000
  Na  Na2       1.0  0.11600  0.88400  0.25000  1.0000
  Na  Na3       1.0  0.76800  0.88400  0.25000  1.0000
  Na  Na4       1.0  0.23200  0.11600  0.75000  1.0000
  Na  Na5       1.0  0.88400  0.11600  0.75000  1.0000
  Na  Na6       1.0  0.88400  0.76800  0.75000  1.0000
  Sb  Sb1       1.0  0.00000  0.00000  0.00000  1.0000
  Sb  Sb2       1.0  0.03610  0.51800  0.25000  1.0000
  Sb  Sb3       1.0  0.48200  0.51800  0.25000  1.0000
  Sb  Sb4       1.0  0.48200  0.96400  0.25000  1.0000
  Sb  Sb5       1.0  0.00000  0.00000  0.50000  1.0000
  Sb  Sb6       1.0  0.51800  0.03610  0.75000  1.0000
  Sb  Sb7       1.0  0.51800  0.48200  0.75000  1.0000
  Sb  Sb8       1.0  0.96400  0.48200  0.75000  1.0000
