data_image0
_chemical_formula_structural       K8Se20
_chemical_formula_sum              "K8 Se20"
_cell_length_a       6.81057
_cell_length_b       7.09076
_cell_length_c       18.1326
_cell_angle_alpha    90
_cell_angle_beta     90
_cell_angle_gamma    90

_space_group_name_H-M_alt    "P 1"
_space_group_IT_number       1

loop_
  _space_group_symop_operation_xyz
  'x, y, z'

loop_
  _atom_site_type_symbol
  _atom_site_label
  _atom_site_symmetry_multiplicity
  _atom_site_fract_x
  _atom_site_fract_y
  _atom_site_fract_z
  _atom_site_occupancy
  K   K1        1.0  0.62400  0.91200  0.00667  1.0000
  K   K2        1.0  0.91000  0.25900  0.16200  1.0000
  K   K3        1.0  0.09020  0.75900  0.33800  1.0000
  K   K4        1.0  0.37600  0.41200  0.49300  1.0000
  K   K5        1.0  0.87600  0.08830  0.50700  1.0000
  K   K6        1.0  0.59000  0.74100  0.66200  1.0000
  K   K7        1.0  0.41000  0.24100  0.83800  1.0000
  K   K8        1.0  0.12400  0.58800  0.99300  1.0000
  Se  Se1       1.0  0.59900  0.41700  0.01550  1.0000
  Se  Se2       1.0  0.42600  0.35500  0.12600  1.0000
  Se  Se3       1.0  0.25900  0.86200  0.15100  1.0000
  Se  Se4       1.0  0.92700  0.75500  0.16300  1.0000
  Se  Se5       1.0  0.47000  0.62500  0.20500  1.0000
  Se  Se6       1.0  0.53000  0.12500  0.29500  1.0000
  Se  Se7       1.0  0.07300  0.25500  0.33700  1.0000
  Se  Se8       1.0  0.74100  0.36200  0.34900  1.0000
  Se  Se9       1.0  0.57400  0.85500  0.37400  1.0000
  Se  Se10      1.0  0.40100  0.91700  0.48400  1.0000
  Se  Se11      1.0  0.90100  0.58300  0.51600  1.0000
  Se  Se12      1.0  0.07360  0.64500  0.62600  1.0000
  Se  Se13      1.0  0.24100  0.13800  0.65100  1.0000
  Se  Se14      1.0  0.57300  0.24500  0.66300  1.0000
  Se  Se15      1.0  0.03030  0.37500  0.70500  1.0000
  Se  Se16      1.0  0.97000  0.87500  0.79500  1.0000
  Se  Se17      1.0  0.42700  0.74500  0.83700  1.0000
  Se  Se18      1.0  0.75900  0.63800  0.84900  1.0000
  Se  Se19      1.0  0.92600  0.14500  0.87400  1.0000
  Se  Se20      1.0  0.09930  0.08330  0.98400  1.0000
