data_image0
_chemical_formula_structural       Bi4K12Se12
_chemical_formula_sum              "Bi4 K12 Se12"
_cell_length_a       9.91716
_cell_length_b       9.91716
_cell_length_c       9.91716
_cell_angle_alpha    90
_cell_angle_beta     90
_cell_angle_gamma    90

_space_group_name_H-M_alt    "P 1"
_space_group_IT_number       1

loop_
  _space_group_symop_operation_xyz
  'x, y, z'

loop_
  _atom_site_type_symbol
  _atom_site_label
  _atom_site_symmetry_multiplicity
  _atom_site_fract_x
  _atom_site_fract_y
  _atom_site_fract_z
  _atom_site_occupancy
  Bi  Bi1       1.0  0.03390  0.03390  0.03390  1.0000
  Bi  Bi2       1.0  0.96600  0.53400  0.46600  1.0000
  Bi  Bi3       1.0  0.46600  0.96600  0.53400  1.0000
  Bi  Bi4       1.0  0.53400  0.46600  0.96600  1.0000
  K   K1        1.0  0.92700  0.42700  0.07260  1.0000
  K   K2        1.0  0.67800  0.82200  0.17800  1.0000
  K   K3        1.0  0.31400  0.68600  0.18600  1.0000
  K   K4        1.0  0.68600  0.18600  0.31400  1.0000
  K   K5        1.0  0.32200  0.32200  0.32200  1.0000
  K   K6        1.0  0.07260  0.92700  0.42700  1.0000
  K   K7        1.0  0.57300  0.57300  0.57300  1.0000
  K   K8        1.0  0.82200  0.17800  0.67800  1.0000
  K   K9        1.0  0.18600  0.31400  0.68600  1.0000
  K   K10       1.0  0.81400  0.81400  0.81400  1.0000
  K   K11       1.0  0.17800  0.67800  0.82200  1.0000
  K   K12       1.0  0.42700  0.07260  0.92700  1.0000
  Se  Se1       1.0  0.77500  0.11200  0.00125  1.0000
  Se  Se2       1.0  0.00125  0.77500  0.11200  1.0000
  Se  Se3       1.0  0.61200  0.49900  0.22500  1.0000
  Se  Se4       1.0  0.38800  0.99900  0.27500  1.0000
  Se  Se5       1.0  0.99900  0.27500  0.38800  1.0000
  Se  Se6       1.0  0.22500  0.61200  0.49900  1.0000
  Se  Se7       1.0  0.72500  0.88800  0.50100  1.0000
  Se  Se8       1.0  0.49900  0.22500  0.61200  1.0000
  Se  Se9       1.0  0.88800  0.50100  0.72500  1.0000
  Se  Se10      1.0  0.11200  0.00125  0.77500  1.0000
  Se  Se11      1.0  0.50100  0.72500  0.88800  1.0000
  Se  Se12      1.0  0.27500  0.38800  0.99900  1.0000
