data_image0
_chemical_formula_structural       S16Yb12
_chemical_formula_sum              "S16 Yb12"
_cell_length_a       14.0387
_cell_length_b       4.09858
_cell_length_c       11.4762
_cell_angle_alpha    90
_cell_angle_beta     90
_cell_angle_gamma    90

_space_group_name_H-M_alt    "P 1"
_space_group_IT_number       1

loop_
  _space_group_symop_operation_xyz
  'x, y, z'

loop_
  _atom_site_type_symbol
  _atom_site_label
  _atom_site_symmetry_multiplicity
  _atom_site_fract_x
  _atom_site_fract_y
  _atom_site_fract_z
  _atom_site_occupancy
  S   S1        1.0  0.25800  0.75000  0.03260  1.0000
  S   S2        1.0  0.95300  0.75000  0.11300  1.0000
  S   S3        1.0  0.50800  0.25000  0.14100  1.0000
  S   S4        1.0  0.22000  0.75000  0.21300  1.0000
  S   S5        1.0  0.72000  0.75000  0.28700  1.0000
  S   S6        1.0  0.00802  0.25000  0.35900  1.0000
  S   S7        1.0  0.45300  0.75000  0.38700  1.0000
  S   S8        1.0  0.75800  0.75000  0.46700  1.0000
  S   S9        1.0  0.24200  0.25000  0.53300  1.0000
  S   S10       1.0  0.54700  0.25000  0.61300  1.0000
  S   S11       1.0  0.99200  0.75000  0.64100  1.0000
  S   S12       1.0  0.28000  0.25000  0.71300  1.0000
  S   S13       1.0  0.78000  0.25000  0.78700  1.0000
  S   S14       1.0  0.49200  0.75000  0.85900  1.0000
  S   S15       1.0  0.04650  0.25000  0.88700  1.0000
  S   S16       1.0  0.74200  0.25000  0.96700  1.0000
  Yb  Yb1       1.0  0.60600  0.75000  0.04850  1.0000
  Yb  Yb2       1.0  0.09010  0.25000  0.11700  1.0000
  Yb  Yb3       1.0  0.85700  0.25000  0.20900  1.0000
  Yb  Yb4       1.0  0.35700  0.25000  0.29100  1.0000
  Yb  Yb5       1.0  0.59000  0.25000  0.38300  1.0000
  Yb  Yb6       1.0  0.10600  0.75000  0.45100  1.0000
  Yb  Yb7       1.0  0.89400  0.25000  0.54900  1.0000
  Yb  Yb8       1.0  0.41000  0.75000  0.61700  1.0000
  Yb  Yb9       1.0  0.64300  0.75000  0.70900  1.0000
  Yb  Yb10      1.0  0.14300  0.75000  0.79100  1.0000
  Yb  Yb11      1.0  0.91000  0.75000  0.88300  1.0000
  Yb  Yb12      1.0  0.39400  0.25000  0.95100  1.0000
