data_image0
_chemical_formula_structural       As4Be4Cs4O16
_chemical_formula_sum              "As4 Be4 Cs4 O16"
_cell_length_a       9.37589
_cell_length_b       8.79292
_cell_length_c       5.13617
_cell_angle_alpha    90
_cell_angle_beta     90
_cell_angle_gamma    90

_space_group_name_H-M_alt    "P 1"
_space_group_IT_number       1

loop_
  _space_group_symop_operation_xyz
  'x, y, z'

loop_
  _atom_site_type_symbol
  _atom_site_label
  _atom_site_symmetry_multiplicity
  _atom_site_fract_x
  _atom_site_fract_y
  _atom_site_fract_z
  _atom_site_occupancy
  As  As1       1.0  0.17600  0.58400  0.00000  1.0000
  As  As2       1.0  0.67600  0.91600  0.00000  1.0000
  As  As3       1.0  0.32400  0.08370  0.50000  1.0000
  As  As4       1.0  0.82400  0.41600  0.50000  1.0000
  Be  Be1       1.0  0.82800  0.59600  0.00134  1.0000
  Be  Be2       1.0  0.32800  0.90400  0.00134  1.0000
  Be  Be3       1.0  0.67200  0.09600  0.50100  1.0000
  Be  Be4       1.0  0.17200  0.40400  0.50100  1.0000
  Cs  Cs1       1.0  0.00450  0.18200  0.00343  1.0000
  Cs  Cs2       1.0  0.50500  0.31800  0.00343  1.0000
  Cs  Cs3       1.0  0.49500  0.68200  0.50300  1.0000
  Cs  Cs4       1.0  0.99500  0.81800  0.50300  1.0000
  O   O1        1.0  0.77400  0.56200  0.29800  1.0000
  O   O2        1.0  0.27400  0.93800  0.29800  1.0000
  O   O3        1.0  0.22800  0.54100  0.31100  1.0000
  O   O4        1.0  0.72800  0.95900  0.31100  1.0000
  O   O5        1.0  0.23900  0.24400  0.39500  1.0000
  O   O6        1.0  0.73900  0.25600  0.39500  1.0000
  O   O7        1.0  0.50100  0.12300  0.48500  1.0000
  O   O8        1.0  0.00103  0.37700  0.48500  1.0000
  O   O9        1.0  0.72600  0.06250  0.79800  1.0000
  O   O10       1.0  0.22600  0.43800  0.79800  1.0000
  O   O11       1.0  0.27200  0.04140  0.81100  1.0000
  O   O12       1.0  0.77200  0.45900  0.81100  1.0000
  O   O13       1.0  0.26100  0.74400  0.89500  1.0000
  O   O14       1.0  0.76100  0.75600  0.89500  1.0000
  O   O15       1.0  0.99900  0.62300  0.98500  1.0000
  O   O16       1.0  0.49900  0.87700  0.98500  1.0000
