data_image0
_chemical_formula_structural       In4P12Sr12
_chemical_formula_sum              "In4 P12 Sr12"
_cell_length_a       12.921
_cell_length_b       4.33712
_cell_length_c       13.9676
_cell_angle_alpha    90
_cell_angle_beta     90
_cell_angle_gamma    90

_space_group_name_H-M_alt    "P 1"
_space_group_IT_number       1

loop_
  _space_group_symop_operation_xyz
  'x, y, z'

loop_
  _atom_site_type_symbol
  _atom_site_label
  _atom_site_symmetry_multiplicity
  _atom_site_fract_x
  _atom_site_fract_y
  _atom_site_fract_z
  _atom_site_occupancy
  In  In1       1.0  0.44800  0.75000  0.20200  1.0000
  In  In2       1.0  0.94800  0.75000  0.29800  1.0000
  In  In3       1.0  0.05170  0.25000  0.70200  1.0000
  In  In4       1.0  0.55200  0.25000  0.79800  1.0000
  P   P1        1.0  0.90500  0.75000  0.11500  1.0000
  P   P2        1.0  0.25800  0.75000  0.12800  1.0000
  P   P3        1.0  0.54800  0.25000  0.14200  1.0000
  P   P4        1.0  0.04780  0.25000  0.35800  1.0000
  P   P5        1.0  0.75800  0.75000  0.37200  1.0000
  P   P6        1.0  0.40500  0.75000  0.38500  1.0000
  P   P7        1.0  0.59500  0.25000  0.61500  1.0000
  P   P8        1.0  0.24200  0.25000  0.62800  1.0000
  P   P9        1.0  0.95200  0.75000  0.64200  1.0000
  P   P10       1.0  0.45200  0.75000  0.85800  1.0000
  P   P11       1.0  0.74200  0.25000  0.87200  1.0000
  P   P12       1.0  0.09530  0.25000  0.88500  1.0000
  Sr  Sr1       1.0  0.35700  0.25000  0.00564  1.0000
  Sr  Sr2       1.0  0.07270  0.25000  0.10400  1.0000
  Sr  Sr3       1.0  0.77400  0.25000  0.20600  1.0000
  Sr  Sr4       1.0  0.27400  0.25000  0.29400  1.0000
  Sr  Sr5       1.0  0.57300  0.25000  0.39600  1.0000
  Sr  Sr6       1.0  0.85700  0.25000  0.49400  1.0000
  Sr  Sr7       1.0  0.14300  0.75000  0.50600  1.0000
  Sr  Sr8       1.0  0.42700  0.75000  0.60400  1.0000
  Sr  Sr9       1.0  0.72600  0.75000  0.70600  1.0000
  Sr  Sr10      1.0  0.22600  0.75000  0.79400  1.0000
  Sr  Sr11      1.0  0.92700  0.75000  0.89600  1.0000
  Sr  Sr12      1.0  0.64300  0.75000  0.99400  1.0000
