data_image0
_chemical_formula_structural       O16P4Rb4Zn4
_chemical_formula_sum              "O16 P4 Rb4 Zn4"
_cell_length_a       8.77892
_cell_length_b       5.38542
_cell_length_c       8.87178
_cell_angle_alpha    90
_cell_angle_beta     90.4918
_cell_angle_gamma    90

_space_group_name_H-M_alt    "P 1"
_space_group_IT_number       1

loop_
  _space_group_symop_operation_xyz
  'x, y, z'

loop_
  _atom_site_type_symbol
  _atom_site_label
  _atom_site_symmetry_multiplicity
  _atom_site_fract_x
  _atom_site_fract_y
  _atom_site_fract_z
  _atom_site_occupancy
  O   O1        1.0  0.29500  0.35100  0.05470  1.0000
  O   O2        1.0  0.72900  0.43000  0.07320  1.0000
  O   O3        1.0  0.53500  0.74300  0.16900  1.0000
  O   O4        1.0  0.81600  0.81900  0.20700  1.0000
  O   O5        1.0  0.18600  0.80000  0.25300  1.0000
  O   O6        1.0  0.28500  0.49700  0.45200  1.0000
  O   O7        1.0  0.03610  0.71100  0.49100  1.0000
  O   O8        1.0  0.71800  0.45500  0.49200  1.0000
  O   O9        1.0  0.28200  0.95500  0.50800  1.0000
  O   O10       1.0  0.96400  0.21100  0.50900  1.0000
  O   O11       1.0  0.71500  0.99700  0.54800  1.0000
  O   O12       1.0  0.81400  0.30000  0.74700  1.0000
  O   O13       1.0  0.18400  0.31900  0.79300  1.0000
  O   O14       1.0  0.46500  0.24300  0.83100  1.0000
  O   O15       1.0  0.27100  0.93000  0.92700  1.0000
  O   O16       1.0  0.70500  0.85100  0.94500  1.0000
  P   P1        1.0  0.69400  0.71000  0.09800  1.0000
  P   P2        1.0  0.19700  0.74300  0.42400  1.0000
  P   P3        1.0  0.80300  0.24300  0.57600  1.0000
  P   P4        1.0  0.30600  0.21000  0.90200  1.0000
  Rb  Rb1       1.0  0.01130  0.25500  0.19400  1.0000
  Rb  Rb2       1.0  0.50300  0.21300  0.30800  1.0000
  Rb  Rb3       1.0  0.49700  0.71300  0.69200  1.0000
  Rb  Rb4       1.0  0.98900  0.75500  0.80600  1.0000
  Zn  Zn1       1.0  0.32700  0.70800  0.09250  1.0000
  Zn  Zn2       1.0  0.82500  0.75300  0.42200  1.0000
  Zn  Zn3       1.0  0.17500  0.25300  0.57800  1.0000
  Zn  Zn4       1.0  0.67300  0.20800  0.90700  1.0000
