data_image0
_chemical_formula_structural       Co16Eu2P10
_chemical_formula_sum              "Co16 Eu2 P10"
_cell_length_a       10.4314
_cell_length_b       3.51865
_cell_length_c       9.21549
_cell_angle_alpha    90
_cell_angle_beta     90
_cell_angle_gamma    90

_space_group_name_H-M_alt    "P 1"
_space_group_IT_number       1

loop_
  _space_group_symop_operation_xyz
  'x, y, z'

loop_
  _atom_site_type_symbol
  _atom_site_label
  _atom_site_symmetry_multiplicity
  _atom_site_fract_x
  _atom_site_fract_y
  _atom_site_fract_z
  _atom_site_occupancy
  Co  Co1       1.0  0.50400  0.75000  0.11100  1.0000
  Co  Co2       1.0  0.99600  0.75000  0.11100  1.0000
  Co  Co3       1.0  0.75000  0.75000  0.14800  1.0000
  Co  Co4       1.0  0.60700  0.25000  0.30200  1.0000
  Co  Co5       1.0  0.89300  0.25000  0.30200  1.0000
  Co  Co6       1.0  0.25000  0.75000  0.45500  1.0000
  Co  Co7       1.0  0.08270  0.25000  0.48000  1.0000
  Co  Co8       1.0  0.41700  0.25000  0.48000  1.0000
  Co  Co9       1.0  0.58300  0.75000  0.52000  1.0000
  Co  Co10      1.0  0.91700  0.75000  0.52000  1.0000
  Co  Co11      1.0  0.75000  0.25000  0.54500  1.0000
  Co  Co12      1.0  0.10700  0.75000  0.69800  1.0000
  Co  Co13      1.0  0.39300  0.75000  0.69800  1.0000
  Co  Co14      1.0  0.25000  0.25000  0.85200  1.0000
  Co  Co15      1.0  0.00445  0.25000  0.88900  1.0000
  Co  Co16      1.0  0.49600  0.25000  0.88900  1.0000
  Eu  Eu1       1.0  0.25000  0.25000  0.17900  1.0000
  Eu  Eu2       1.0  0.75000  0.75000  0.82100  1.0000
  P   P1        1.0  0.63000  0.25000  0.06570  1.0000
  P   P2        1.0  0.87000  0.25000  0.06570  1.0000
  P   P3        1.0  0.05930  0.75000  0.33800  1.0000
  P   P4        1.0  0.44100  0.75000  0.33800  1.0000
  P   P5        1.0  0.75000  0.75000  0.38500  1.0000
  P   P6        1.0  0.25000  0.25000  0.61500  1.0000
  P   P7        1.0  0.55900  0.25000  0.66200  1.0000
  P   P8        1.0  0.94100  0.25000  0.66200  1.0000
  P   P9        1.0  0.13000  0.75000  0.93400  1.0000
  P   P10       1.0  0.37000  0.75000  0.93400  1.0000
