data_image0
_chemical_formula_structural       Ba4Cl8Hg8O8
_chemical_formula_sum              "Ba4 Cl8 Hg8 O8"
_cell_length_a       12.0516
_cell_length_b       12.0516
_cell_length_c       4.29058
_cell_angle_alpha    90
_cell_angle_beta     90
_cell_angle_gamma    90

_space_group_name_H-M_alt    "P 1"
_space_group_IT_number       1

loop_
  _space_group_symop_operation_xyz
  'x, y, z'

loop_
  _atom_site_type_symbol
  _atom_site_label
  _atom_site_symmetry_multiplicity
  _atom_site_fract_x
  _atom_site_fract_y
  _atom_site_fract_z
  _atom_site_occupancy
  Ba  Ba1       1.0  0.36500  0.13500  0.00000  1.0000
  Ba  Ba2       1.0  0.86500  0.36500  0.00000  1.0000
  Ba  Ba3       1.0  0.13500  0.63500  0.00000  1.0000
  Ba  Ba4       1.0  0.63500  0.86500  0.00000  1.0000
  Cl  Cl1       1.0  0.00000  0.00000  0.00000  1.0000
  Cl  Cl2       1.0  0.67200  0.17200  0.00000  1.0000
  Cl  Cl3       1.0  0.17200  0.32800  0.00000  1.0000
  Cl  Cl4       1.0  0.50000  0.50000  0.00000  1.0000
  Cl  Cl5       1.0  0.82800  0.67200  0.00000  1.0000
  Cl  Cl6       1.0  0.32800  0.82800  0.00000  1.0000
  Cl  Cl7       1.0  0.50000  0.00000  0.50000  1.0000
  Cl  Cl8       1.0  0.00000  0.50000  0.50000  1.0000
  Hg  Hg1       1.0  0.82700  0.07910  0.50000  1.0000
  Hg  Hg2       1.0  0.07910  0.17300  0.50000  1.0000
  Hg  Hg3       1.0  0.57900  0.32700  0.50000  1.0000
  Hg  Hg4       1.0  0.32700  0.42100  0.50000  1.0000
  Hg  Hg5       1.0  0.67300  0.57900  0.50000  1.0000
  Hg  Hg6       1.0  0.42100  0.67300  0.50000  1.0000
  Hg  Hg7       1.0  0.92100  0.82700  0.50000  1.0000
  Hg  Hg8       1.0  0.17300  0.92100  0.50000  1.0000
  O   O1        1.0  0.23000  0.08530  0.50000  1.0000
  O   O2        1.0  0.91500  0.23000  0.50000  1.0000
  O   O3        1.0  0.41500  0.27000  0.50000  1.0000
  O   O4        1.0  0.73000  0.41500  0.50000  1.0000
  O   O5        1.0  0.27000  0.58500  0.50000  1.0000
  O   O6        1.0  0.58500  0.73000  0.50000  1.0000
  O   O7        1.0  0.08530  0.77000  0.50000  1.0000
  O   O8        1.0  0.77000  0.91500  0.50000  1.0000
