data_image0
_chemical_formula_structural       Bi4K8Rb4Se12
_chemical_formula_sum              "Bi4 K8 Rb4 Se12"
_cell_length_a       10.0721
_cell_length_b       10.0721
_cell_length_c       10.0721
_cell_angle_alpha    90
_cell_angle_beta     90
_cell_angle_gamma    90

_space_group_name_H-M_alt    "P 1"
_space_group_IT_number       1

loop_
  _space_group_symop_operation_xyz
  'x, y, z'

loop_
  _atom_site_type_symbol
  _atom_site_label
  _atom_site_symmetry_multiplicity
  _atom_site_fract_x
  _atom_site_fract_y
  _atom_site_fract_z
  _atom_site_occupancy
  Bi  Bi1       1.0  0.03040  0.03040  0.03040  1.0000
  Bi  Bi2       1.0  0.97000  0.53000  0.47000  1.0000
  Bi  Bi3       1.0  0.47000  0.97000  0.53000  1.0000
  Bi  Bi4       1.0  0.53000  0.47000  0.97000  1.0000
  K   K1        1.0  0.68100  0.81900  0.18100  1.0000
  K   K2        1.0  0.31300  0.68700  0.18700  1.0000
  K   K3        1.0  0.68700  0.18700  0.31300  1.0000
  K   K4        1.0  0.31900  0.31900  0.31900  1.0000
  K   K5        1.0  0.81900  0.18100  0.68100  1.0000
  K   K6        1.0  0.18700  0.31300  0.68700  1.0000
  K   K7        1.0  0.81300  0.81300  0.81300  1.0000
  K   K8        1.0  0.18100  0.68100  0.81900  1.0000
  Rb  Rb1       1.0  0.92800  0.42800  0.07160  1.0000
  Rb  Rb2       1.0  0.07160  0.92800  0.42800  1.0000
  Rb  Rb3       1.0  0.57200  0.57200  0.57200  1.0000
  Rb  Rb4       1.0  0.42800  0.07160  0.92800  1.0000
  Se  Se1       1.0  0.77500  0.10500  0.00252  1.0000
  Se  Se2       1.0  0.00252  0.77500  0.10500  1.0000
  Se  Se3       1.0  0.60500  0.49700  0.22500  1.0000
  Se  Se4       1.0  0.39500  0.99700  0.27500  1.0000
  Se  Se5       1.0  0.99700  0.27500  0.39500  1.0000
  Se  Se6       1.0  0.22500  0.60500  0.49700  1.0000
  Se  Se7       1.0  0.72500  0.89500  0.50300  1.0000
  Se  Se8       1.0  0.49700  0.22500  0.60500  1.0000
  Se  Se9       1.0  0.89500  0.50300  0.72500  1.0000
  Se  Se10      1.0  0.10500  0.00252  0.77500  1.0000
  Se  Se11      1.0  0.50300  0.72500  0.89500  1.0000
  Se  Se12      1.0  0.27500  0.39500  0.99700  1.0000
