data_image0
_chemical_formula_structural       Fe18La2Si8
_chemical_formula_sum              "Fe18 La2 Si8"
_cell_length_a       7.81929
_cell_length_b       7.81929
_cell_length_c       7.98006
_cell_angle_alpha    119.336
_cell_angle_beta     119.336
_cell_angle_gamma    90

_space_group_name_H-M_alt    "P 1"
_space_group_IT_number       1

loop_
  _space_group_symop_operation_xyz
  'x, y, z'

loop_
  _atom_site_type_symbol
  _atom_site_label
  _atom_site_symmetry_multiplicity
  _atom_site_fract_x
  _atom_site_fract_y
  _atom_site_fract_z
  _atom_site_occupancy
  Fe  Fe1       1.0  0.50000  0.00000  0.00000  1.0000
  Fe  Fe2       1.0  0.80000  0.06680  0.00000  1.0000
  Fe  Fe3       1.0  0.06680  0.20000  0.00000  1.0000
  Fe  Fe4       1.0  0.56700  0.30000  0.00000  1.0000
  Fe  Fe5       1.0  0.30000  0.43300  0.00000  1.0000
  Fe  Fe6       1.0  0.00000  0.50000  0.00000  1.0000
  Fe  Fe7       1.0  0.70000  0.56700  0.00000  1.0000
  Fe  Fe8       1.0  0.43300  0.70000  0.00000  1.0000
  Fe  Fe9       1.0  0.93300  0.80000  0.00000  1.0000
  Fe  Fe10      1.0  0.20000  0.93300  0.00000  1.0000
  Fe  Fe11      1.0  0.55600  0.05650  0.35900  1.0000
  Fe  Fe12      1.0  0.80300  0.30300  0.35900  1.0000
  Fe  Fe13      1.0  0.30300  0.55600  0.35900  1.0000
  Fe  Fe14      1.0  0.05650  0.80300  0.35900  1.0000
  Fe  Fe15      1.0  0.94400  0.19700  0.64100  1.0000
  Fe  Fe16      1.0  0.69700  0.44400  0.64100  1.0000
  Fe  Fe17      1.0  0.19700  0.69700  0.64100  1.0000
  Fe  Fe18      1.0  0.44400  0.94400  0.64100  1.0000
  La  La1       1.0  0.25000  0.25000  0.50000  1.0000
  La  La2       1.0  0.75000  0.75000  0.50000  1.0000
  Si  Si1       1.0  0.44800  0.29200  0.24000  1.0000
  Si  Si2       1.0  0.94800  0.44800  0.24000  1.0000
  Si  Si3       1.0  0.29200  0.79200  0.24000  1.0000
  Si  Si4       1.0  0.79200  0.94800  0.24000  1.0000
  Si  Si5       1.0  0.20800  0.05210  0.76000  1.0000
  Si  Si6       1.0  0.70800  0.20800  0.76000  1.0000
  Si  Si7       1.0  0.05210  0.55200  0.76000  1.0000
  Si  Si8       1.0  0.55200  0.70800  0.76000  1.0000
