data_image0
_chemical_formula_structural       B6Ir14Sn8
_chemical_formula_sum              "B6 Ir14 Sn8"
_cell_length_a       9.37249
_cell_length_b       9.37247
_cell_length_c       5.68932
_cell_angle_alpha    90
_cell_angle_beta     90
_cell_angle_gamma    120

_space_group_name_H-M_alt    "P 1"
_space_group_IT_number       1

loop_
  _space_group_symop_operation_xyz
  'x, y, z'

loop_
  _atom_site_type_symbol
  _atom_site_label
  _atom_site_symmetry_multiplicity
  _atom_site_fract_x
  _atom_site_fract_y
  _atom_site_fract_z
  _atom_site_occupancy
  B   B1        1.0  0.21000  0.03730  0.25000  1.0000
  B   B2        1.0  0.96300  0.17200  0.25000  1.0000
  B   B3        1.0  0.82800  0.79000  0.25000  1.0000
  B   B4        1.0  0.17200  0.21000  0.75000  1.0000
  B   B5        1.0  0.03730  0.82800  0.75000  1.0000
  B   B6        1.0  0.79000  0.96300  0.75000  1.0000
  Ir  Ir1       1.0  0.00000  0.00000  0.00000  1.0000
  Ir  Ir2       1.0  0.76900  0.12300  0.00096  1.0000
  Ir  Ir3       1.0  0.35400  0.23100  0.00096  1.0000
  Ir  Ir4       1.0  0.87700  0.64600  0.00096  1.0000
  Ir  Ir5       1.0  0.76900  0.12300  0.49900  1.0000
  Ir  Ir6       1.0  0.35400  0.23100  0.49900  1.0000
  Ir  Ir7       1.0  0.87700  0.64600  0.49900  1.0000
  Ir  Ir8       1.0  0.00000  0.00000  0.50000  1.0000
  Ir  Ir9       1.0  0.12300  0.35400  0.50100  1.0000
  Ir  Ir10      1.0  0.64600  0.76900  0.50100  1.0000
  Ir  Ir11      1.0  0.23100  0.87700  0.50100  1.0000
  Ir  Ir12      1.0  0.12300  0.35400  0.99900  1.0000
  Ir  Ir13      1.0  0.64600  0.76900  0.99900  1.0000
  Ir  Ir14      1.0  0.23100  0.87700  0.99900  1.0000
  Sn  Sn1       1.0  0.66700  0.33300  0.25000  1.0000
  Sn  Sn2       1.0  0.41000  0.50200  0.25000  1.0000
  Sn  Sn3       1.0  0.09220  0.59000  0.25000  1.0000
  Sn  Sn4       1.0  0.49800  0.90800  0.25000  1.0000
  Sn  Sn5       1.0  0.50200  0.09220  0.75000  1.0000
  Sn  Sn6       1.0  0.90800  0.41000  0.75000  1.0000
  Sn  Sn7       1.0  0.59000  0.49800  0.75000  1.0000
  Sn  Sn8       1.0  0.33300  0.66700  0.75000  1.0000
