data_image0
_chemical_formula_structural       Ba4Tb8Te16
_chemical_formula_sum              "Ba4 Tb8 Te16"
_cell_length_a       13.8051
_cell_length_b       4.50092
_cell_length_c       16.3494
_cell_angle_alpha    90
_cell_angle_beta     90
_cell_angle_gamma    90

_space_group_name_H-M_alt    "P 1"
_space_group_IT_number       1

loop_
  _space_group_symop_operation_xyz
  'x, y, z'

loop_
  _atom_site_type_symbol
  _atom_site_label
  _atom_site_symmetry_multiplicity
  _atom_site_fract_x
  _atom_site_fract_y
  _atom_site_fract_z
  _atom_site_occupancy
  Ba  Ba1       1.0  0.26100  0.75000  0.16900  1.0000
  Ba  Ba2       1.0  0.76100  0.75000  0.33100  1.0000
  Ba  Ba3       1.0  0.23900  0.25000  0.66900  1.0000
  Ba  Ba4       1.0  0.73900  0.25000  0.83100  1.0000
  Tb  Tb1       1.0  0.58000  0.25000  0.09680  1.0000
  Tb  Tb2       1.0  0.93900  0.75000  0.10900  1.0000
  Tb  Tb3       1.0  0.43900  0.75000  0.39100  1.0000
  Tb  Tb4       1.0  0.08030  0.25000  0.40300  1.0000
  Tb  Tb5       1.0  0.92000  0.75000  0.59700  1.0000
  Tb  Tb6       1.0  0.56100  0.25000  0.60900  1.0000
  Tb  Tb7       1.0  0.06080  0.25000  0.89100  1.0000
  Tb  Tb8       1.0  0.42000  0.75000  0.90300  1.0000
  Te  Te1       1.0  0.37200  0.25000  0.02830  1.0000
  Te  Te2       1.0  0.08960  0.25000  0.07710  1.0000
  Te  Te3       1.0  0.79500  0.25000  0.16300  1.0000
  Te  Te4       1.0  0.52600  0.75000  0.21600  1.0000
  Te  Te5       1.0  0.02630  0.75000  0.28400  1.0000
  Te  Te6       1.0  0.29500  0.25000  0.33700  1.0000
  Te  Te7       1.0  0.59000  0.25000  0.42300  1.0000
  Te  Te8       1.0  0.87200  0.25000  0.47200  1.0000
  Te  Te9       1.0  0.12800  0.75000  0.52800  1.0000
  Te  Te10      1.0  0.41000  0.75000  0.57700  1.0000
  Te  Te11      1.0  0.70500  0.75000  0.66300  1.0000
  Te  Te12      1.0  0.97400  0.25000  0.71600  1.0000
  Te  Te13      1.0  0.47400  0.25000  0.78400  1.0000
  Te  Te14      1.0  0.20500  0.75000  0.83700  1.0000
  Te  Te15      1.0  0.91000  0.75000  0.92300  1.0000
  Te  Te16      1.0  0.62800  0.75000  0.97200  1.0000
