data_image0
_chemical_formula_structural       Hf18S2V8
_chemical_formula_sum              "Hf18 S2 V8"
_cell_length_a       8.55722
_cell_length_b       8.55744
_cell_length_c       8.39533
_cell_angle_alpha    90
_cell_angle_beta     90
_cell_angle_gamma    119.999

_space_group_name_H-M_alt    "P 1"
_space_group_IT_number       1

loop_
  _space_group_symop_operation_xyz
  'x, y, z'

loop_
  _atom_site_type_symbol
  _atom_site_label
  _atom_site_symmetry_multiplicity
  _atom_site_fract_x
  _atom_site_fract_y
  _atom_site_fract_z
  _atom_site_occupancy
  Hf  Hf1       1.0  0.80400  0.60900  0.05090  1.0000
  Hf  Hf2       1.0  0.39100  0.19600  0.05090  1.0000
  Hf  Hf3       1.0  0.80400  0.19600  0.05090  1.0000
  Hf  Hf4       1.0  0.08710  0.54400  0.25000  1.0000
  Hf  Hf5       1.0  0.45600  0.54400  0.25000  1.0000
  Hf  Hf6       1.0  0.45600  0.91300  0.25000  1.0000
  Hf  Hf7       1.0  0.39100  0.19600  0.44900  1.0000
  Hf  Hf8       1.0  0.80400  0.19600  0.44900  1.0000
  Hf  Hf9       1.0  0.80400  0.60900  0.44900  1.0000
  Hf  Hf10      1.0  0.19600  0.39100  0.55100  1.0000
  Hf  Hf11      1.0  0.19600  0.80400  0.55100  1.0000
  Hf  Hf12      1.0  0.60900  0.80400  0.55100  1.0000
  Hf  Hf13      1.0  0.54400  0.08710  0.75000  1.0000
  Hf  Hf14      1.0  0.54400  0.45600  0.75000  1.0000
  Hf  Hf15      1.0  0.91300  0.45600  0.75000  1.0000
  Hf  Hf16      1.0  0.19600  0.80400  0.94900  1.0000
  Hf  Hf17      1.0  0.60900  0.80400  0.94900  1.0000
  Hf  Hf18      1.0  0.19600  0.39100  0.94900  1.0000
  S   S1        1.0  0.66700  0.33300  0.25000  1.0000
  S   S2        1.0  0.33300  0.66700  0.75000  1.0000
  V   V1        1.0  0.00000  0.00000  0.00000  1.0000
  V   V2        1.0  0.10600  0.21300  0.25000  1.0000
  V   V3        1.0  0.10600  0.89400  0.25000  1.0000
  V   V4        1.0  0.78700  0.89400  0.25000  1.0000
  V   V5        1.0  0.00000  0.00000  0.50000  1.0000
  V   V6        1.0  0.21300  0.10600  0.75000  1.0000
  V   V7        1.0  0.89400  0.10600  0.75000  1.0000
  V   V8        1.0  0.89400  0.78700  0.75000  1.0000
