data_image0
_chemical_formula_structural       K4O16Pb4V4
_chemical_formula_sum              "K4 O16 Pb4 V4"
_cell_length_a       7.64763
_cell_length_b       5.75716
_cell_length_c       10.0765
_cell_angle_alpha    90
_cell_angle_beta     90
_cell_angle_gamma    90

_space_group_name_H-M_alt    "P 1"
_space_group_IT_number       1

loop_
  _space_group_symop_operation_xyz
  'x, y, z'

loop_
  _atom_site_type_symbol
  _atom_site_label
  _atom_site_symmetry_multiplicity
  _atom_site_fract_x
  _atom_site_fract_y
  _atom_site_fract_z
  _atom_site_occupancy
  K   K1        1.0  0.17400  0.25000  0.09100  1.0000
  K   K2        1.0  0.67400  0.25000  0.40900  1.0000
  K   K3        1.0  0.32600  0.75000  0.59100  1.0000
  K   K4        1.0  0.82600  0.75000  0.90900  1.0000
  O   O1        1.0  0.21400  0.75000  0.09260  1.0000
  O   O2        1.0  0.52300  0.25000  0.10400  1.0000
  O   O3        1.0  0.83600  0.00345  0.14900  1.0000
  O   O4        1.0  0.83600  0.49700  0.14900  1.0000
  O   O5        1.0  0.33600  0.00345  0.35100  1.0000
  O   O6        1.0  0.33600  0.49700  0.35100  1.0000
  O   O7        1.0  0.02300  0.25000  0.39600  1.0000
  O   O8        1.0  0.71400  0.75000  0.40700  1.0000
  O   O9        1.0  0.28600  0.25000  0.59300  1.0000
  O   O10       1.0  0.97700  0.75000  0.60400  1.0000
  O   O11       1.0  0.66400  0.50300  0.64900  1.0000
  O   O12       1.0  0.66400  0.99700  0.64900  1.0000
  O   O13       1.0  0.16400  0.50300  0.85100  1.0000
  O   O14       1.0  0.16400  0.99700  0.85100  1.0000
  O   O15       1.0  0.47700  0.75000  0.89600  1.0000
  O   O16       1.0  0.78600  0.25000  0.90700  1.0000
  Pb  Pb1       1.0  0.49400  0.75000  0.20900  1.0000
  Pb  Pb2       1.0  0.99400  0.75000  0.29100  1.0000
  Pb  Pb3       1.0  0.00625  0.25000  0.70900  1.0000
  Pb  Pb4       1.0  0.50600  0.25000  0.79100  1.0000
  V   V1        1.0  0.74400  0.25000  0.07950  1.0000
  V   V2        1.0  0.24400  0.25000  0.42100  1.0000
  V   V3        1.0  0.75600  0.75000  0.57900  1.0000
  V   V4        1.0  0.25600  0.75000  0.92100  1.0000
