data_image0
_chemical_formula_structural       Bi4Cs12Se12
_chemical_formula_sum              "Bi4 Cs12 Se12"
_cell_length_a       10.7549
_cell_length_b       10.7549
_cell_length_c       10.7549
_cell_angle_alpha    90
_cell_angle_beta     90
_cell_angle_gamma    90

_space_group_name_H-M_alt    "P 1"
_space_group_IT_number       1

loop_
  _space_group_symop_operation_xyz
  'x, y, z'

loop_
  _atom_site_type_symbol
  _atom_site_label
  _atom_site_symmetry_multiplicity
  _atom_site_fract_x
  _atom_site_fract_y
  _atom_site_fract_z
  _atom_site_occupancy
  Bi  Bi1       1.0  0.02880  0.02880  0.02880  1.0000
  Bi  Bi2       1.0  0.97100  0.52900  0.47100  1.0000
  Bi  Bi3       1.0  0.47100  0.97100  0.52900  1.0000
  Bi  Bi4       1.0  0.52900  0.47100  0.97100  1.0000
  Cs  Cs1       1.0  0.93000  0.43000  0.06990  1.0000
  Cs  Cs2       1.0  0.68000  0.82000  0.18000  1.0000
  Cs  Cs3       1.0  0.31200  0.68800  0.18800  1.0000
  Cs  Cs4       1.0  0.68800  0.18800  0.31200  1.0000
  Cs  Cs5       1.0  0.32000  0.32000  0.32000  1.0000
  Cs  Cs6       1.0  0.06990  0.93000  0.43000  1.0000
  Cs  Cs7       1.0  0.57000  0.57000  0.57000  1.0000
  Cs  Cs8       1.0  0.82000  0.18000  0.68000  1.0000
  Cs  Cs9       1.0  0.18800  0.31200  0.68800  1.0000
  Cs  Cs10      1.0  0.81200  0.81200  0.81200  1.0000
  Cs  Cs11      1.0  0.18000  0.68000  0.82000  1.0000
  Cs  Cs12      1.0  0.43000  0.06990  0.93000  1.0000
  Se  Se1       1.0  0.79100  0.10500  0.00443  1.0000
  Se  Se2       1.0  0.00443  0.79100  0.10500  1.0000
  Se  Se3       1.0  0.60500  0.49600  0.20900  1.0000
  Se  Se4       1.0  0.39500  0.99600  0.29100  1.0000
  Se  Se5       1.0  0.99600  0.29100  0.39500  1.0000
  Se  Se6       1.0  0.20900  0.60500  0.49600  1.0000
  Se  Se7       1.0  0.70900  0.89500  0.50400  1.0000
  Se  Se8       1.0  0.49600  0.20900  0.60500  1.0000
  Se  Se9       1.0  0.89500  0.50400  0.70900  1.0000
  Se  Se10      1.0  0.10500  0.00443  0.79100  1.0000
  Se  Se11      1.0  0.50400  0.70900  0.89500  1.0000
  Se  Se12      1.0  0.29100  0.39500  0.99600  1.0000
