data_image0
_chemical_formula_structural       K4Mn4O16P4
_chemical_formula_sum              "K4 Mn4 O16 P4"
_cell_length_a       5.45272
_cell_length_b       8.55009
_cell_length_c       8.81513
_cell_angle_alpha    87.5322
_cell_angle_beta     89.1385
_cell_angle_gamma    87.9934

_space_group_name_H-M_alt    "P 1"
_space_group_IT_number       1

loop_
  _space_group_symop_operation_xyz
  'x, y, z'

loop_
  _atom_site_type_symbol
  _atom_site_label
  _atom_site_symmetry_multiplicity
  _atom_site_fract_x
  _atom_site_fract_y
  _atom_site_fract_z
  _atom_site_occupancy
  K   K1        1.0  0.21900  0.50600  0.17000  1.0000
  K   K2        1.0  0.23800  0.00246  0.31600  1.0000
  K   K3        1.0  0.76200  0.99800  0.68400  1.0000
  K   K4        1.0  0.78100  0.49400  0.83000  1.0000
  Mn  Mn1       1.0  0.72400  0.82300  0.10500  1.0000
  Mn  Mn2       1.0  0.68700  0.34500  0.42000  1.0000
  Mn  Mn3       1.0  0.31300  0.65500  0.58000  1.0000
  Mn  Mn4       1.0  0.27600  0.17700  0.89500  1.0000
  O   O1        1.0  0.35900  0.79800  0.06330  1.0000
  O   O2        1.0  0.04360  0.24400  0.06630  1.0000
  O   O3        1.0  0.75300  0.04280  0.17900  1.0000
  O   O4        1.0  0.64500  0.33300  0.18800  1.0000
  O   O5        1.0  0.83300  0.67000  0.27700  1.0000
  O   O6        1.0  0.26500  0.45100  0.46300  1.0000
  O   O7        1.0  0.54900  0.81000  0.46300  1.0000
  O   O8        1.0  0.99600  0.21400  0.48700  1.0000
  O   O9        1.0  0.00392  0.78600  0.51300  1.0000
  O   O10       1.0  0.45100  0.19000  0.53700  1.0000
  O   O11       1.0  0.73500  0.54900  0.53700  1.0000
  O   O12       1.0  0.16700  0.33000  0.72300  1.0000
  O   O13       1.0  0.35500  0.66700  0.81200  1.0000
  O   O14       1.0  0.24700  0.95700  0.82100  1.0000
  O   O15       1.0  0.95600  0.75600  0.93400  1.0000
  O   O16       1.0  0.64100  0.20200  0.93700  1.0000
  P   P1        1.0  0.76900  0.20400  0.09350  1.0000
  P   P2        1.0  0.78400  0.70500  0.44500  1.0000
  P   P3        1.0  0.21600  0.29500  0.55500  1.0000
  P   P4        1.0  0.23100  0.79600  0.90700  1.0000
