data_image0
_chemical_formula_structural       Fe2Na6O16P4
_chemical_formula_sum              "Fe2 Na6 O16 P4"
_cell_length_a       5.02104
_cell_length_b       5.16742
_cell_length_c       13.7092
_cell_angle_alpha    91.1722
_cell_angle_beta     90
_cell_angle_gamma    119.067

_space_group_name_H-M_alt    "P 1"
_space_group_IT_number       1

loop_
  _space_group_symop_operation_xyz
  'x, y, z'

loop_
  _atom_site_type_symbol
  _atom_site_label
  _atom_site_symmetry_multiplicity
  _atom_site_fract_x
  _atom_site_fract_y
  _atom_site_fract_z
  _atom_site_occupancy
  Fe  Fe1       1.0  0.00000  0.00000  0.00000  1.0000
  Fe  Fe2       1.0  0.00000  0.00000  0.50000  1.0000
  Na  Na1       1.0  0.62300  0.33600  0.13100  1.0000
  Na  Na2       1.0  0.95200  0.00000  0.25000  1.0000
  Na  Na3       1.0  0.28700  0.66400  0.36900  1.0000
  Na  Na4       1.0  0.71300  0.33600  0.63100  1.0000
  Na  Na5       1.0  0.04810  0.00000  0.75000  1.0000
  Na  Na6       1.0  0.37700  0.66400  0.86900  1.0000
  O   O1        1.0  0.56100  0.78000  0.03670  1.0000
  O   O2        1.0  0.06580  0.33600  0.08690  1.0000
  O   O3        1.0  0.14100  0.84900  0.11800  1.0000
  O   O4        1.0  0.45000  0.66600  0.21400  1.0000
  O   O5        1.0  0.78400  0.33400  0.28600  1.0000
  O   O6        1.0  0.29200  0.15100  0.38200  1.0000
  O   O7        1.0  0.72900  0.66400  0.41300  1.0000
  O   O8        1.0  0.78100  0.22000  0.46300  1.0000
  O   O9        1.0  0.21900  0.78000  0.53700  1.0000
  O   O10       1.0  0.27100  0.33600  0.58700  1.0000
  O   O11       1.0  0.70800  0.84900  0.61800  1.0000
  O   O12       1.0  0.21600  0.66600  0.71400  1.0000
  O   O13       1.0  0.55000  0.33400  0.78600  1.0000
  O   O14       1.0  0.85900  0.15100  0.88200  1.0000
  O   O15       1.0  0.93400  0.66400  0.91300  1.0000
  O   O16       1.0  0.43900  0.22000  0.96300  1.0000
  P   P1        1.0  0.30900  0.66100  0.11500  1.0000
  P   P2        1.0  0.64800  0.33900  0.38500  1.0000
  P   P3        1.0  0.35200  0.66100  0.61500  1.0000
  P   P4        1.0  0.69100  0.33900  0.88500  1.0000
