data_image0
_chemical_formula_structural       Co4P12Si12
_chemical_formula_sum              "Co4 P12 Si12"
_cell_length_a       5.90681
_cell_length_b       5.70444
_cell_length_c       12.7602
_cell_angle_alpha    90
_cell_angle_beta     89.8851
_cell_angle_gamma    90

_space_group_name_H-M_alt    "P 1"
_space_group_IT_number       1

loop_
  _space_group_symop_operation_xyz
  'x, y, z'

loop_
  _atom_site_type_symbol
  _atom_site_label
  _atom_site_symmetry_multiplicity
  _atom_site_fract_x
  _atom_site_fract_y
  _atom_site_fract_z
  _atom_site_occupancy
  Co  Co1       1.0  0.00564  0.46500  0.12100  1.0000
  Co  Co2       1.0  0.51800  0.03250  0.38600  1.0000
  Co  Co3       1.0  0.48200  0.53200  0.61400  1.0000
  Co  Co4       1.0  0.99400  0.96500  0.87900  1.0000
  P   P1        1.0  0.43800  0.01650  0.07260  1.0000
  P   P2        1.0  0.97400  0.09150  0.17400  1.0000
  P   P3        1.0  0.65300  0.54100  0.18000  1.0000
  P   P4        1.0  0.13100  0.57500  0.28000  1.0000
  P   P5        1.0  0.87500  0.10600  0.42600  1.0000
  P   P6        1.0  0.58500  0.66300  0.45100  1.0000
  P   P7        1.0  0.41500  0.16300  0.54900  1.0000
  P   P8        1.0  0.12500  0.60600  0.57400  1.0000
  P   P9        1.0  0.86900  0.07530  0.72000  1.0000
  P   P10       1.0  0.34700  0.04120  0.82000  1.0000
  P   P11       1.0  0.02560  0.59100  0.82600  1.0000
  P   P12       1.0  0.56200  0.51700  0.92700  1.0000
  Si  Si1       1.0  0.07860  0.83200  0.04540  1.0000
  Si  Si2       1.0  0.36100  0.41500  0.07260  1.0000
  Si  Si3       1.0  0.62700  0.93500  0.22300  1.0000
  Si  Si4       1.0  0.17300  0.97000  0.32000  1.0000
  Si  Si5       1.0  0.47200  0.40100  0.32800  1.0000
  Si  Si6       1.0  0.93600  0.50200  0.42700  1.0000
  Si  Si7       1.0  0.06400  0.00153  0.57300  1.0000
  Si  Si8       1.0  0.52800  0.90100  0.67200  1.0000
  Si  Si9       1.0  0.82700  0.47000  0.68000  1.0000
  Si  Si10      1.0  0.37300  0.43500  0.77700  1.0000
  Si  Si11      1.0  0.63900  0.91500  0.92700  1.0000
  Si  Si12      1.0  0.92100  0.33200  0.95500  1.0000
