data_image0
_chemical_formula_structural       Ba2O18Si8
_chemical_formula_sum              "Ba2 O18 Si8"
_cell_length_a       6.49014
_cell_length_b       6.49012
_cell_length_c       9.38956
_cell_angle_alpha    90
_cell_angle_beta     90
_cell_angle_gamma    120

_space_group_name_H-M_alt    "P 1"
_space_group_IT_number       1

loop_
  _space_group_symop_operation_xyz
  'x, y, z'

loop_
  _atom_site_type_symbol
  _atom_site_label
  _atom_site_symmetry_multiplicity
  _atom_site_fract_x
  _atom_site_fract_y
  _atom_site_fract_z
  _atom_site_occupancy
  Ba  Ba1       1.0  0.66700  0.33300  0.00000  1.0000
  Ba  Ba2       1.0  0.66700  0.33300  0.50000  1.0000
  O   O1        1.0  0.10400  0.44300  0.10600  1.0000
  O   O2        1.0  0.33900  0.89600  0.10600  1.0000
  O   O3        1.0  0.55700  0.66100  0.10600  1.0000
  O   O4        1.0  0.80900  0.07750  0.25000  1.0000
  O   O5        1.0  0.26800  0.19100  0.25000  1.0000
  O   O6        1.0  0.92200  0.73200  0.25000  1.0000
  O   O7        1.0  0.10400  0.44300  0.39400  1.0000
  O   O8        1.0  0.55700  0.66100  0.39400  1.0000
  O   O9        1.0  0.33900  0.89600  0.39400  1.0000
  O   O10       1.0  0.33900  0.44300  0.60600  1.0000
  O   O11       1.0  0.55700  0.89600  0.60600  1.0000
  O   O12       1.0  0.10400  0.66100  0.60600  1.0000
  O   O13       1.0  0.26800  0.07750  0.75000  1.0000
  O   O14       1.0  0.92300  0.19100  0.75000  1.0000
  O   O15       1.0  0.80900  0.73200  0.75000  1.0000
  O   O16       1.0  0.33900  0.44300  0.89400  1.0000
  O   O17       1.0  0.10400  0.66100  0.89400  1.0000
  O   O18       1.0  0.55700  0.89600  0.89400  1.0000
  Si  Si1       1.0  0.33300  0.66700  0.00000  1.0000
  Si  Si2       1.0  0.08840  0.30100  0.25000  1.0000
  Si  Si3       1.0  0.69900  0.78700  0.25000  1.0000
  Si  Si4       1.0  0.21300  0.91200  0.25000  1.0000
  Si  Si5       1.0  0.33300  0.66700  0.50000  1.0000
  Si  Si6       1.0  0.21300  0.30100  0.75000  1.0000
  Si  Si7       1.0  0.08840  0.78700  0.75000  1.0000
  Si  Si8       1.0  0.69900  0.91200  0.75000  1.0000
