data_image0
_chemical_formula_structural       Eu4O16P4Rb4
_chemical_formula_sum              "Eu4 O16 P4 Rb4"
_cell_length_a       7.32662
_cell_length_b       5.49392
_cell_length_c       9.4849
_cell_angle_alpha    90
_cell_angle_beta     90
_cell_angle_gamma    90

_space_group_name_H-M_alt    "P 1"
_space_group_IT_number       1

loop_
  _space_group_symop_operation_xyz
  'x, y, z'

loop_
  _atom_site_type_symbol
  _atom_site_label
  _atom_site_symmetry_multiplicity
  _atom_site_fract_x
  _atom_site_fract_y
  _atom_site_fract_z
  _atom_site_occupancy
  Eu  Eu1       1.0  0.99800  0.25000  0.19600  1.0000
  Eu  Eu2       1.0  0.49800  0.25000  0.30400  1.0000
  Eu  Eu3       1.0  0.50200  0.75000  0.69600  1.0000
  Eu  Eu4       1.0  0.00189  0.75000  0.80400  1.0000
  O   O1        1.0  0.99100  0.75000  0.07200  1.0000
  O   O2        1.0  0.29800  0.25000  0.07310  1.0000
  O   O3        1.0  0.71600  0.51700  0.16000  1.0000
  O   O4        1.0  0.71600  0.98300  0.16000  1.0000
  O   O5        1.0  0.21600  0.51700  0.34000  1.0000
  O   O6        1.0  0.21600  0.98300  0.34000  1.0000
  O   O7        1.0  0.79800  0.25000  0.42700  1.0000
  O   O8        1.0  0.49100  0.75000  0.42800  1.0000
  O   O9        1.0  0.50900  0.25000  0.57200  1.0000
  O   O10       1.0  0.20200  0.75000  0.57300  1.0000
  O   O11       1.0  0.78400  0.01710  0.66000  1.0000
  O   O12       1.0  0.78400  0.48300  0.66000  1.0000
  O   O13       1.0  0.28400  0.01710  0.84000  1.0000
  O   O14       1.0  0.28400  0.48300  0.84000  1.0000
  O   O15       1.0  0.70200  0.75000  0.92700  1.0000
  O   O16       1.0  0.00936  0.25000  0.92800  1.0000
  P   P1        1.0  0.78000  0.75000  0.08030  1.0000
  P   P2        1.0  0.28000  0.75000  0.42000  1.0000
  P   P3        1.0  0.72000  0.25000  0.58000  1.0000
  P   P4        1.0  0.22000  0.25000  0.92000  1.0000
  Rb  Rb1       1.0  0.35600  0.75000  0.08900  1.0000
  Rb  Rb2       1.0  0.85600  0.75000  0.41100  1.0000
  Rb  Rb3       1.0  0.14400  0.25000  0.58900  1.0000
  Rb  Rb4       1.0  0.64400  0.25000  0.91100  1.0000
