data_image0
_chemical_formula_structural       Br16Re4Te8
_chemical_formula_sum              "Br16 Re4 Te8"
_cell_length_a       10.882
_cell_length_b       10.882
_cell_length_c       10.882
_cell_angle_alpha    116.103
_cell_angle_beta     96.8944
_cell_angle_gamma    116.103

_space_group_name_H-M_alt    "P 1"
_space_group_IT_number       1

loop_
  _space_group_symop_operation_xyz
  'x, y, z'

loop_
  _atom_site_type_symbol
  _atom_site_label
  _atom_site_symmetry_multiplicity
  _atom_site_fract_x
  _atom_site_fract_y
  _atom_site_fract_z
  _atom_site_occupancy
  Br  Br1       1.0  0.84200  0.55600  0.05960  1.0000
  Br  Br2       1.0  0.36600  0.62100  0.07560  1.0000
  Br  Br3       1.0  0.30000  0.91000  0.10000  1.0000
  Br  Br4       1.0  0.80000  0.90400  0.13900  1.0000
  Br  Br5       1.0  0.71400  0.21800  0.15800  1.0000
  Br  Br6       1.0  0.10400  0.33900  0.20000  1.0000
  Br  Br7       1.0  0.50400  0.44400  0.28600  1.0000
  Br  Br8       1.0  0.19100  0.09040  0.39000  1.0000
  Br  Br9       1.0  0.94000  0.78200  0.49600  1.0000
  Br  Br10      1.0  0.92400  0.29000  0.54500  1.0000
  Br  Br11      1.0  0.25500  0.71000  0.63400  1.0000
  Br  Br12      1.0  0.61000  0.80100  0.70000  1.0000
  Br  Br13      1.0  0.45500  0.37900  0.74500  1.0000
  Br  Br14      1.0  0.86100  0.66100  0.76500  1.0000
  Br  Br15      1.0  0.90000  0.19900  0.80900  1.0000
  Br  Br16      1.0  0.23500  0.09570  0.89600  1.0000
  Re  Re1       1.0  0.46200  0.91600  0.31200  1.0000
  Re  Re2       1.0  0.45500  0.85000  0.53800  1.0000
  Re  Re3       1.0  0.39600  0.08380  0.54500  1.0000
  Re  Re4       1.0  0.68800  0.15000  0.60400  1.0000
  Te  Te1       1.0  0.57000  0.91800  0.09460  1.0000
  Te  Te2       1.0  0.21500  0.76400  0.34500  1.0000
  Te  Te3       1.0  0.65500  0.87000  0.41900  1.0000
  Te  Te4       1.0  0.34900  0.52500  0.43000  1.0000
  Te  Te5       1.0  0.58100  0.23600  0.45100  1.0000
  Te  Te6       1.0  0.17600  0.08170  0.65100  1.0000
  Te  Te7       1.0  0.54900  0.13000  0.78500  1.0000
  Te  Te8       1.0  0.90500  0.47500  0.82400  1.0000
