data_image0
_chemical_formula_structural       Cu4O16P4Rb4
_chemical_formula_sum              "Cu4 O16 P4 Rb4"
_cell_length_a       8.65246
_cell_length_b       5.12002
_cell_length_c       9.16087
_cell_angle_alpha    90
_cell_angle_beta     90
_cell_angle_gamma    90

_space_group_name_H-M_alt    "P 1"
_space_group_IT_number       1

loop_
  _space_group_symop_operation_xyz
  'x, y, z'

loop_
  _atom_site_type_symbol
  _atom_site_label
  _atom_site_symmetry_multiplicity
  _atom_site_fract_x
  _atom_site_fract_y
  _atom_site_fract_z
  _atom_site_occupancy
  Cu  Cu1       1.0  0.90600  0.45500  0.14100  1.0000
  Cu  Cu2       1.0  0.40600  0.95500  0.35900  1.0000
  Cu  Cu3       1.0  0.59400  0.45500  0.64100  1.0000
  Cu  Cu4       1.0  0.09390  0.95500  0.85900  1.0000
  O   O1        1.0  0.18400  0.01120  0.04810  1.0000
  O   O2        1.0  0.94000  0.83500  0.17300  1.0000
  O   O3        1.0  0.69700  0.33000  0.20100  1.0000
  O   O4        1.0  0.55300  0.76200  0.24300  1.0000
  O   O5        1.0  0.05330  0.26200  0.25700  1.0000
  O   O6        1.0  0.19700  0.83000  0.29900  1.0000
  O   O7        1.0  0.44000  0.33500  0.32700  1.0000
  O   O8        1.0  0.68400  0.51100  0.45200  1.0000
  O   O9        1.0  0.31600  0.01120  0.54800  1.0000
  O   O10       1.0  0.56000  0.83500  0.67300  1.0000
  O   O11       1.0  0.80300  0.33000  0.70100  1.0000
  O   O12       1.0  0.94700  0.76200  0.74300  1.0000
  O   O13       1.0  0.44700  0.26200  0.75700  1.0000
  O   O14       1.0  0.30300  0.83000  0.79900  1.0000
  O   O15       1.0  0.05980  0.33500  0.82700  1.0000
  O   O16       1.0  0.81600  0.51100  0.95200  1.0000
  P   P1        1.0  0.09330  0.98600  0.19400  1.0000
  P   P2        1.0  0.59300  0.48600  0.30600  1.0000
  P   P3        1.0  0.40700  0.98600  0.69400  1.0000
  P   P4        1.0  0.90700  0.48600  0.80600  1.0000
  Rb  Rb1       1.0  0.32700  0.49100  0.03040  1.0000
  Rb  Rb2       1.0  0.82700  0.99100  0.47000  1.0000
  Rb  Rb3       1.0  0.17300  0.49100  0.53000  1.0000
  Rb  Rb4       1.0  0.67300  0.99100  0.97000  1.0000
