data_image0
_chemical_formula_structural       AlCa2ClF2H8O12S2
_chemical_formula_sum              "Al1 Ca2 Cl1 F2 H8 O12 S2"
_cell_length_a       6.7113
_cell_length_b       6.7113
_cell_length_c       8.08947
_cell_angle_alpha    114.508
_cell_angle_beta     114.508
_cell_angle_gamma    90

_space_group_name_H-M_alt    "P 1"
_space_group_IT_number       1

loop_
  _space_group_symop_operation_xyz
  'x, y, z'

loop_
  _atom_site_type_symbol
  _atom_site_label
  _atom_site_symmetry_multiplicity
  _atom_site_fract_x
  _atom_site_fract_y
  _atom_site_fract_z
  _atom_site_occupancy
  Al  Al1       1.0  0.00000  0.00000  0.00000  1.0000
  Ca  Ca1       1.0  0.69900  0.69900  0.39700  1.0000
  Ca  Ca2       1.0  0.30100  0.30100  0.60300  1.0000
  Cl  Cl1       1.0  0.50000  0.50000  0.00000  1.0000
  F   F1        1.0  0.13500  0.13500  0.27000  1.0000
  F   F2        1.0  0.86500  0.86500  0.73000  1.0000
  H   H1        1.0  0.40500  0.16400  0.12400  1.0000
  H   H2        1.0  0.96000  0.40500  0.12400  1.0000
  H   H3        1.0  0.16400  0.71900  0.12400  1.0000
  H   H4        1.0  0.71900  0.96000  0.12400  1.0000
  H   H5        1.0  0.28100  0.04000  0.87600  1.0000
  H   H6        1.0  0.83600  0.28100  0.87600  1.0000
  H   H7        1.0  0.04000  0.59500  0.87600  1.0000
  H   H8        1.0  0.59500  0.83600  0.87600  1.0000
  O   O1        1.0  0.28300  0.04100  0.00000  1.0000
  O   O2        1.0  0.95900  0.28300  0.00000  1.0000
  O   O3        1.0  0.04100  0.71700  0.00000  1.0000
  O   O4        1.0  0.71700  0.95900  0.00000  1.0000
  O   O5        1.0  0.75900  0.02070  0.36800  1.0000
  O   O6        1.0  0.60800  0.34700  0.36800  1.0000
  O   O7        1.0  0.02070  0.60800  0.36800  1.0000
  O   O8        1.0  0.34700  0.75900  0.36800  1.0000
  O   O9        1.0  0.65300  0.24100  0.63200  1.0000
  O   O10       1.0  0.97900  0.39200  0.63200  1.0000
  O   O11       1.0  0.39200  0.65300  0.63200  1.0000
  O   O12       1.0  0.24100  0.97900  0.63200  1.0000
  S   S1        1.0  0.75000  0.25000  0.50000  1.0000
  S   S2        1.0  0.25000  0.75000  0.50000  1.0000
