data_image0
_chemical_formula_structural       Ba4Dy8Te16
_chemical_formula_sum              "Ba4 Dy8 Te16"
_cell_length_a       13.7828
_cell_length_b       4.48562
_cell_length_c       16.2952
_cell_angle_alpha    90
_cell_angle_beta     90
_cell_angle_gamma    90

_space_group_name_H-M_alt    "P 1"
_space_group_IT_number       1

loop_
  _space_group_symop_operation_xyz
  'x, y, z'

loop_
  _atom_site_type_symbol
  _atom_site_label
  _atom_site_symmetry_multiplicity
  _atom_site_fract_x
  _atom_site_fract_y
  _atom_site_fract_z
  _atom_site_occupancy
  Ba  Ba1       1.0  0.26100  0.75000  0.16900  1.0000
  Ba  Ba2       1.0  0.76100  0.75000  0.33100  1.0000
  Ba  Ba3       1.0  0.23900  0.25000  0.66900  1.0000
  Ba  Ba4       1.0  0.73900  0.25000  0.83100  1.0000
  Dy  Dy1       1.0  0.58100  0.25000  0.09660  1.0000
  Dy  Dy2       1.0  0.94000  0.75000  0.10900  1.0000
  Dy  Dy3       1.0  0.44000  0.75000  0.39100  1.0000
  Dy  Dy4       1.0  0.08060  0.25000  0.40300  1.0000
  Dy  Dy5       1.0  0.91900  0.75000  0.59700  1.0000
  Dy  Dy6       1.0  0.56000  0.25000  0.60900  1.0000
  Dy  Dy7       1.0  0.05980  0.25000  0.89100  1.0000
  Dy  Dy8       1.0  0.41900  0.75000  0.90300  1.0000
  Te  Te1       1.0  0.37200  0.25000  0.02840  1.0000
  Te  Te2       1.0  0.08990  0.25000  0.07660  1.0000
  Te  Te3       1.0  0.79500  0.25000  0.16100  1.0000
  Te  Te4       1.0  0.52700  0.75000  0.21600  1.0000
  Te  Te5       1.0  0.02690  0.75000  0.28400  1.0000
  Te  Te6       1.0  0.29500  0.25000  0.33900  1.0000
  Te  Te7       1.0  0.59000  0.25000  0.42300  1.0000
  Te  Te8       1.0  0.87200  0.25000  0.47200  1.0000
  Te  Te9       1.0  0.12800  0.75000  0.52800  1.0000
  Te  Te10      1.0  0.41000  0.75000  0.57700  1.0000
  Te  Te11      1.0  0.70500  0.75000  0.66100  1.0000
  Te  Te12      1.0  0.97300  0.25000  0.71600  1.0000
  Te  Te13      1.0  0.47300  0.25000  0.78400  1.0000
  Te  Te14      1.0  0.20500  0.75000  0.83900  1.0000
  Te  Te15      1.0  0.91000  0.75000  0.92300  1.0000
  Te  Te16      1.0  0.62800  0.75000  0.97200  1.0000
