data_image0
_chemical_formula_structural       Nb8Si4Te16
_chemical_formula_sum              "Nb8 Si4 Te16"
_cell_length_a       15.082
_cell_length_b       7.96944
_cell_length_c       6.40236
_cell_angle_alpha    90
_cell_angle_beta     97.6887
_cell_angle_gamma    90

_space_group_name_H-M_alt    "P 1"
_space_group_IT_number       1

loop_
  _space_group_symop_operation_xyz
  'x, y, z'

loop_
  _atom_site_type_symbol
  _atom_site_label
  _atom_site_symmetry_multiplicity
  _atom_site_fract_x
  _atom_site_fract_y
  _atom_site_fract_z
  _atom_site_occupancy
  Nb  Nb1       1.0  0.75000  0.03760  0.10400  1.0000
  Nb  Nb2       1.0  0.25000  0.28800  0.10400  1.0000
  Nb  Nb3       1.0  0.25000  0.78800  0.39600  1.0000
  Nb  Nb4       1.0  0.75000  0.53800  0.39600  1.0000
  Nb  Nb5       1.0  0.25000  0.46200  0.60400  1.0000
  Nb  Nb6       1.0  0.75000  0.21200  0.60400  1.0000
  Nb  Nb7       1.0  0.75000  0.71200  0.89600  1.0000
  Nb  Nb8       1.0  0.25000  0.96200  0.89600  1.0000
  Si  Si1       1.0  0.75000  0.37500  0.00045  1.0000
  Si  Si2       1.0  0.75000  0.87500  0.50000  1.0000
  Si  Si3       1.0  0.25000  0.12500  0.50000  1.0000
  Si  Si4       1.0  0.25000  0.62500  0.00000  1.0000
  Te  Te1       1.0  0.62300  0.76500  0.18100  1.0000
  Te  Te2       1.0  0.12400  0.01610  0.18200  1.0000
  Te  Te3       1.0  0.12300  0.51700  0.23800  1.0000
  Te  Te4       1.0  0.62300  0.26700  0.23900  1.0000
  Te  Te5       1.0  0.87700  0.76700  0.26100  1.0000
  Te  Te6       1.0  0.37700  0.01700  0.26200  1.0000
  Te  Te7       1.0  0.37600  0.51600  0.31800  1.0000
  Te  Te8       1.0  0.87700  0.26500  0.31900  1.0000
  Te  Te9       1.0  0.12300  0.73500  0.68100  1.0000
  Te  Te10      1.0  0.62400  0.48400  0.68200  1.0000
  Te  Te11      1.0  0.62300  0.98300  0.73800  1.0000
  Te  Te12      1.0  0.12300  0.23300  0.73900  1.0000
  Te  Te13      1.0  0.37700  0.73300  0.76100  1.0000
  Te  Te14      1.0  0.87700  0.48300  0.76200  1.0000
  Te  Te15      1.0  0.87600  0.98400  0.81800  1.0000
  Te  Te16      1.0  0.37700  0.23500  0.81900  1.0000
