data_image0
_chemical_formula_structural       K4O16P4Zn4
_chemical_formula_sum              "K4 O16 P4 Zn4"
_cell_length_a       8.42841
_cell_length_b       8.94966
_cell_length_c       5.28968
_cell_angle_alpha    90
_cell_angle_beta     90
_cell_angle_gamma    90

_space_group_name_H-M_alt    "P 1"
_space_group_IT_number       1

loop_
  _space_group_symop_operation_xyz
  'x, y, z'

loop_
  _atom_site_type_symbol
  _atom_site_label
  _atom_site_symmetry_multiplicity
  _atom_site_fract_x
  _atom_site_fract_y
  _atom_site_fract_z
  _atom_site_occupancy
  K   K1        1.0  0.00506  0.23700  0.02650  1.0000
  K   K2        1.0  0.50500  0.26300  0.02650  1.0000
  K   K3        1.0  0.49500  0.73700  0.52600  1.0000
  K   K4        1.0  0.99500  0.76300  0.52600  1.0000
  O   O1        1.0  0.96800  0.58200  0.06030  1.0000
  O   O2        1.0  0.46800  0.91800  0.06030  1.0000
  O   O3        1.0  0.70800  0.56000  0.28900  1.0000
  O   O4        1.0  0.20800  0.94000  0.28900  1.0000
  O   O5        1.0  0.26100  0.56600  0.36700  1.0000
  O   O6        1.0  0.76100  0.93400  0.36700  1.0000
  O   O7        1.0  0.77200  0.21400  0.38100  1.0000
  O   O8        1.0  0.27200  0.28600  0.38100  1.0000
  O   O9        1.0  0.53200  0.08170  0.56000  1.0000
  O   O10       1.0  0.03220  0.41800  0.56000  1.0000
  O   O11       1.0  0.79200  0.06040  0.78900  1.0000
  O   O12       1.0  0.29200  0.44000  0.78900  1.0000
  O   O13       1.0  0.23900  0.06640  0.86700  1.0000
  O   O14       1.0  0.73900  0.43400  0.86700  1.0000
  O   O15       1.0  0.72800  0.71400  0.88100  1.0000
  O   O16       1.0  0.22800  0.78600  0.88100  1.0000
  P   P1        1.0  0.78800  0.57300  0.02380  1.0000
  P   P2        1.0  0.28800  0.92700  0.02380  1.0000
  P   P3        1.0  0.71200  0.07330  0.52400  1.0000
  P   P4        1.0  0.21200  0.42700  0.52400  1.0000
  Zn  Zn1       1.0  0.19700  0.58700  0.01670  1.0000
  Zn  Zn2       1.0  0.69700  0.91300  0.01670  1.0000
  Zn  Zn3       1.0  0.30300  0.08690  0.51700  1.0000
  Zn  Zn4       1.0  0.80300  0.41300  0.51700  1.0000
