data_image0
_chemical_formula_structural       Se20Th8
_chemical_formula_sum              "Se20 Th8"
_cell_length_a       8.0075
_cell_length_b       8.02011
_cell_length_c       10.7752
_cell_angle_alpha    90
_cell_angle_beta     90
_cell_angle_gamma    90

_space_group_name_H-M_alt    "P 1"
_space_group_IT_number       1

loop_
  _space_group_symop_operation_xyz
  'x, y, z'

loop_
  _atom_site_type_symbol
  _atom_site_label
  _atom_site_symmetry_multiplicity
  _atom_site_fract_x
  _atom_site_fract_y
  _atom_site_fract_z
  _atom_site_occupancy
  Se  Se1       1.0  0.38700  0.63700  0.10300  1.0000
  Se  Se2       1.0  0.61300  0.86300  0.10300  1.0000
  Se  Se3       1.0  0.87000  0.11900  0.10700  1.0000
  Se  Se4       1.0  0.13000  0.38100  0.10700  1.0000
  Se  Se5       1.0  0.50000  0.25000  0.25000  1.0000
  Se  Se6       1.0  0.00000  0.75000  0.25000  1.0000
  Se  Se7       1.0  0.63000  0.61900  0.39300  1.0000
  Se  Se8       1.0  0.37000  0.88100  0.39300  1.0000
  Se  Se9       1.0  0.11300  0.13700  0.39700  1.0000
  Se  Se10      1.0  0.88700  0.36300  0.39700  1.0000
  Se  Se11      1.0  0.11300  0.63700  0.60300  1.0000
  Se  Se12      1.0  0.88700  0.86300  0.60300  1.0000
  Se  Se13      1.0  0.63000  0.11900  0.60700  1.0000
  Se  Se14      1.0  0.37000  0.38100  0.60700  1.0000
  Se  Se15      1.0  0.00000  0.25000  0.75000  1.0000
  Se  Se16      1.0  0.50000  0.75000  0.75000  1.0000
  Se  Se17      1.0  0.87000  0.61900  0.89300  1.0000
  Se  Se18      1.0  0.13000  0.88100  0.89300  1.0000
  Se  Se19      1.0  0.38700  0.13700  0.89700  1.0000
  Se  Se20      1.0  0.61300  0.36300  0.89700  1.0000
  Th  Th1       1.0  0.24200  0.00868  0.14700  1.0000
  Th  Th2       1.0  0.75800  0.49100  0.14700  1.0000
  Th  Th3       1.0  0.25800  0.50900  0.35300  1.0000
  Th  Th4       1.0  0.74200  0.99100  0.35300  1.0000
  Th  Th5       1.0  0.25800  0.00868  0.64700  1.0000
  Th  Th6       1.0  0.74200  0.49100  0.64700  1.0000
  Th  Th7       1.0  0.24200  0.50900  0.85300  1.0000
  Th  Th8       1.0  0.75800  0.99100  0.85300  1.0000
