data_image0
_chemical_formula_structural       C4Mn12Mo12
_chemical_formula_sum              "C4 Mn12 Mo12"
_cell_length_a       7.85646
_cell_length_b       7.85646
_cell_length_c       7.85646
_cell_angle_alpha    120
_cell_angle_beta     90
_cell_angle_gamma    120

_space_group_name_H-M_alt    "P 1"
_space_group_IT_number       1

loop_
  _space_group_symop_operation_xyz
  'x, y, z'

loop_
  _atom_site_type_symbol
  _atom_site_label
  _atom_site_symmetry_multiplicity
  _atom_site_fract_x
  _atom_site_fract_y
  _atom_site_fract_z
  _atom_site_occupancy
  C   C1        1.0  0.37500  0.25000  0.12500  1.0000
  C   C2        1.0  0.87500  0.25000  0.12500  1.0000
  C   C3        1.0  0.87500  0.75000  0.12500  1.0000
  C   C4        1.0  0.87500  0.75000  0.62500  1.0000
  Mn  Mn1       1.0  0.37500  0.75000  0.12500  1.0000
  Mn  Mn2       1.0  0.57800  0.15600  0.42200  1.0000
  Mn  Mn3       1.0  0.26600  0.84400  0.42200  1.0000
  Mn  Mn4       1.0  0.57800  0.84400  0.42200  1.0000
  Mn  Mn5       1.0  0.17200  0.34400  0.51600  1.0000
  Mn  Mn6       1.0  0.87500  0.25000  0.62500  1.0000
  Mn  Mn7       1.0  0.37500  0.25000  0.62500  1.0000
  Mn  Mn8       1.0  0.37500  0.75000  0.62500  1.0000
  Mn  Mn9       1.0  0.57800  0.15600  0.73400  1.0000
  Mn  Mn10      1.0  0.17200  0.34400  0.82800  1.0000
  Mn  Mn11      1.0  0.17200  0.65600  0.82800  1.0000
  Mn  Mn12      1.0  0.48400  0.65600  0.82800  1.0000
  Mo  Mo1       1.0  0.55200  0.10400  0.05220  1.0000
  Mo  Mo2       1.0  0.55200  0.50000  0.05220  1.0000
  Mo  Mo3       1.0  0.94800  0.50000  0.05220  1.0000
  Mo  Mo4       1.0  0.80200  0.00000  0.19800  1.0000
  Mo  Mo5       1.0  0.19800  0.00000  0.19800  1.0000
  Mo  Mo6       1.0  0.19800  0.39600  0.19800  1.0000
  Mo  Mo7       1.0  0.94800  0.50000  0.44800  1.0000
  Mo  Mo8       1.0  0.94800  0.89600  0.44800  1.0000
  Mo  Mo9       1.0  0.55200  0.50000  0.44800  1.0000
  Mo  Mo10      1.0  0.80200  0.00000  0.80200  1.0000
  Mo  Mo11      1.0  0.19800  0.00000  0.80200  1.0000
  Mo  Mo12      1.0  0.80200  0.60400  0.80200  1.0000
