data_image0
_chemical_formula_structural       Br8Hg12S8
_chemical_formula_sum              "Br8 Hg12 S8"
_cell_length_a       9.48108
_cell_length_b       10.4161
_cell_length_c       10.6265
_cell_angle_alpha    112.791
_cell_angle_beta     90
_cell_angle_gamma    117.072

_space_group_name_H-M_alt    "P 1"
_space_group_IT_number       1

loop_
  _space_group_symop_operation_xyz
  'x, y, z'

loop_
  _atom_site_type_symbol
  _atom_site_label
  _atom_site_symmetry_multiplicity
  _atom_site_fract_x
  _atom_site_fract_y
  _atom_site_fract_z
  _atom_site_occupancy
  Br  Br1       1.0  0.00000  0.00000  0.00000  1.0000
  Br  Br2       1.0  0.50000  0.00000  0.00000  1.0000
  Br  Br3       1.0  0.25000  0.50000  0.00215  1.0000
  Br  Br4       1.0  0.11700  0.23500  0.48600  1.0000
  Br  Br5       1.0  0.61900  0.23800  0.49700  1.0000
  Br  Br6       1.0  0.38100  0.76200  0.50300  1.0000
  Br  Br7       1.0  0.88300  0.76500  0.51400  1.0000
  Br  Br8       1.0  0.75000  0.50000  0.99800  1.0000
  Hg  Hg1       1.0  0.39300  0.26000  0.00411  1.0000
  Hg  Hg2       1.0  0.86700  0.26000  0.00411  1.0000
  Hg  Hg3       1.0  0.92500  0.84900  0.27200  1.0000
  Hg  Hg4       1.0  0.21600  0.43300  0.28500  1.0000
  Hg  Hg5       1.0  0.34100  0.14600  0.29600  1.0000
  Hg  Hg6       1.0  0.80500  0.14600  0.29600  1.0000
  Hg  Hg7       1.0  0.19500  0.85400  0.70400  1.0000
  Hg  Hg8       1.0  0.65900  0.85400  0.70400  1.0000
  Hg  Hg9       1.0  0.78400  0.56700  0.71500  1.0000
  Hg  Hg10      1.0  0.07530  0.15100  0.72800  1.0000
  Hg  Hg11      1.0  0.13300  0.74000  0.99600  1.0000
  Hg  Hg12      1.0  0.60700  0.74000  0.99600  1.0000
  S   S1        1.0  0.18700  0.86200  0.25000  1.0000
  S   S2        1.0  0.67500  0.86200  0.25000  1.0000
  S   S3        1.0  0.45100  0.39000  0.25900  1.0000
  S   S4        1.0  0.93900  0.39000  0.25900  1.0000
  S   S5        1.0  0.06110  0.61000  0.74100  1.0000
  S   S6        1.0  0.54900  0.61000  0.74100  1.0000
  S   S7        1.0  0.32500  0.13800  0.75000  1.0000
  S   S8        1.0  0.81300  0.13800  0.75000  1.0000
