data_image0
_chemical_formula_structural       Ce12Ge8Rh8
_chemical_formula_sum              "Ce12 Ge8 Rh8"
_cell_length_a       5.8213
_cell_length_b       8.19158
_cell_length_c       13.6682
_cell_angle_alpha    90
_cell_angle_beta     90
_cell_angle_gamma    90

_space_group_name_H-M_alt    "P 1"
_space_group_IT_number       1

loop_
  _space_group_symop_operation_xyz
  'x, y, z'

loop_
  _atom_site_type_symbol
  _atom_site_label
  _atom_site_symmetry_multiplicity
  _atom_site_fract_x
  _atom_site_fract_y
  _atom_site_fract_z
  _atom_site_occupancy
  Ce  Ce1       1.0  0.14300  0.39300  0.09980  1.0000
  Ce  Ce2       1.0  0.85700  0.89300  0.09980  1.0000
  Ce  Ce3       1.0  0.64000  0.25100  0.25000  1.0000
  Ce  Ce4       1.0  0.36000  0.75100  0.25000  1.0000
  Ce  Ce5       1.0  0.14300  0.39300  0.40000  1.0000
  Ce  Ce6       1.0  0.85700  0.89300  0.40000  1.0000
  Ce  Ce7       1.0  0.14300  0.10700  0.60000  1.0000
  Ce  Ce8       1.0  0.85700  0.60700  0.60000  1.0000
  Ce  Ce9       1.0  0.64000  0.24900  0.75000  1.0000
  Ce  Ce10      1.0  0.36000  0.74900  0.75000  1.0000
  Ce  Ce11      1.0  0.14300  0.10700  0.90000  1.0000
  Ce  Ce12      1.0  0.85700  0.60700  0.90000  1.0000
  Ge  Ge1       1.0  0.64500  0.25000  0.00000  1.0000
  Ge  Ge2       1.0  0.35500  0.75000  0.00000  1.0000
  Ge  Ge3       1.0  0.14900  0.10500  0.25000  1.0000
  Ge  Ge4       1.0  0.85100  0.60500  0.25000  1.0000
  Ge  Ge5       1.0  0.64500  0.25000  0.50000  1.0000
  Ge  Ge6       1.0  0.35500  0.75000  0.50000  1.0000
  Ge  Ge7       1.0  0.14900  0.39500  0.75000  1.0000
  Ge  Ge8       1.0  0.85100  0.89500  0.75000  1.0000
  Rh  Rh1       1.0  0.38000  0.03820  0.09060  1.0000
  Rh  Rh2       1.0  0.62000  0.53800  0.09060  1.0000
  Rh  Rh3       1.0  0.38000  0.03820  0.40900  1.0000
  Rh  Rh4       1.0  0.62000  0.53800  0.40900  1.0000
  Rh  Rh5       1.0  0.38000  0.46200  0.59100  1.0000
  Rh  Rh6       1.0  0.62000  0.96200  0.59100  1.0000
  Rh  Rh7       1.0  0.38000  0.46200  0.90900  1.0000
  Rh  Rh8       1.0  0.62000  0.96200  0.90900  1.0000
