data_image0
_chemical_formula_structural       Ge4Nb8Te16
_chemical_formula_sum              "Ge4 Nb8 Te16"
_cell_length_a       14.8552
_cell_length_b       8.00695
_cell_length_c       6.54183
_cell_angle_alpha    90
_cell_angle_beta     97.7886
_cell_angle_gamma    90

_space_group_name_H-M_alt    "P 1"
_space_group_IT_number       1

loop_
  _space_group_symop_operation_xyz
  'x, y, z'

loop_
  _atom_site_type_symbol
  _atom_site_label
  _atom_site_symmetry_multiplicity
  _atom_site_fract_x
  _atom_site_fract_y
  _atom_site_fract_z
  _atom_site_occupancy
  Ge  Ge1       1.0  0.75000  0.37500  0.00028  1.0000
  Ge  Ge2       1.0  0.75000  0.87500  0.50000  1.0000
  Ge  Ge3       1.0  0.25000  0.12500  0.50000  1.0000
  Ge  Ge4       1.0  0.25000  0.62500  0.00000  1.0000
  Nb  Nb1       1.0  0.75000  0.03460  0.10700  1.0000
  Nb  Nb2       1.0  0.25000  0.28500  0.10700  1.0000
  Nb  Nb3       1.0  0.25000  0.78500  0.39300  1.0000
  Nb  Nb4       1.0  0.75000  0.53500  0.39300  1.0000
  Nb  Nb5       1.0  0.25000  0.46500  0.60700  1.0000
  Nb  Nb6       1.0  0.75000  0.21500  0.60700  1.0000
  Nb  Nb7       1.0  0.75000  0.71500  0.89300  1.0000
  Nb  Nb8       1.0  0.25000  0.96500  0.89300  1.0000
  Te  Te1       1.0  0.62100  0.75900  0.17100  1.0000
  Te  Te2       1.0  0.12100  0.01040  0.17200  1.0000
  Te  Te3       1.0  0.62100  0.26000  0.24900  1.0000
  Te  Te4       1.0  0.12100  0.51100  0.24900  1.0000
  Te  Te5       1.0  0.37900  0.01060  0.25100  1.0000
  Te  Te6       1.0  0.87900  0.76000  0.25100  1.0000
  Te  Te7       1.0  0.37900  0.51000  0.32800  1.0000
  Te  Te8       1.0  0.87900  0.25900  0.32900  1.0000
  Te  Te9       1.0  0.12100  0.74100  0.67100  1.0000
  Te  Te10      1.0  0.62100  0.49000  0.67200  1.0000
  Te  Te11      1.0  0.12100  0.24000  0.74900  1.0000
  Te  Te12      1.0  0.62100  0.98900  0.74900  1.0000
  Te  Te13      1.0  0.87900  0.48900  0.75100  1.0000
  Te  Te14      1.0  0.37900  0.74000  0.75100  1.0000
  Te  Te15      1.0  0.87900  0.99000  0.82800  1.0000
  Te  Te16      1.0  0.37900  0.24100  0.82900  1.0000
