data_image0
_chemical_formula_structural       O20S4Ti4
_chemical_formula_sum              "O20 S4 Ti4"
_cell_length_a       11.0621
_cell_length_b       5.20523
_cell_length_c       6.49271
_cell_angle_alpha    90
_cell_angle_beta     90
_cell_angle_gamma    90

_space_group_name_H-M_alt    "P 1"
_space_group_IT_number       1

loop_
  _space_group_symop_operation_xyz
  'x, y, z'

loop_
  _atom_site_type_symbol
  _atom_site_label
  _atom_site_symmetry_multiplicity
  _atom_site_fract_x
  _atom_site_fract_y
  _atom_site_fract_z
  _atom_site_occupancy
  O   O1        1.0  0.00000  0.00000  0.00000  1.0000
  O   O2        1.0  0.00000  0.50000  0.00000  1.0000
  O   O3        1.0  0.79000  0.75000  0.00630  1.0000
  O   O4        1.0  0.37600  0.01550  0.13100  1.0000
  O   O5        1.0  0.37600  0.48500  0.13100  1.0000
  O   O6        1.0  0.60100  0.75000  0.18600  1.0000
  O   O7        1.0  0.10100  0.75000  0.31400  1.0000
  O   O8        1.0  0.87600  0.01550  0.36900  1.0000
  O   O9        1.0  0.87600  0.48500  0.36900  1.0000
  O   O10       1.0  0.29000  0.75000  0.49400  1.0000
  O   O11       1.0  0.50000  0.00000  0.50000  1.0000
  O   O12       1.0  0.50000  0.50000  0.50000  1.0000
  O   O13       1.0  0.71000  0.25000  0.50600  1.0000
  O   O14       1.0  0.12400  0.51500  0.63100  1.0000
  O   O15       1.0  0.12400  0.98500  0.63100  1.0000
  O   O16       1.0  0.89900  0.25000  0.68600  1.0000
  O   O17       1.0  0.39900  0.25000  0.81400  1.0000
  O   O18       1.0  0.62400  0.51500  0.86900  1.0000
  O   O19       1.0  0.62400  0.98500  0.86900  1.0000
  O   O20       1.0  0.21000  0.25000  0.99400  1.0000
  S   S1        1.0  0.34200  0.25000  0.02050  1.0000
  S   S2        1.0  0.84200  0.25000  0.48000  1.0000
  S   S3        1.0  0.15800  0.75000  0.52000  1.0000
  S   S4        1.0  0.65800  0.75000  0.98000  1.0000
  Ti  Ti1       1.0  0.94300  0.75000  0.16300  1.0000
  Ti  Ti2       1.0  0.44300  0.75000  0.33700  1.0000
  Ti  Ti3       1.0  0.55700  0.25000  0.66300  1.0000
  Ti  Ti4       1.0  0.05660  0.25000  0.83700  1.0000
