data_image0
_chemical_formula_structural       Ca4Co2O12W2
_chemical_formula_sum              "Ca4 Co2 O12 W2"
_cell_length_a       5.3871
_cell_length_b       5.5904
_cell_length_c       7.67509
_cell_angle_alpha    90
_cell_angle_beta     90.3379
_cell_angle_gamma    90

_space_group_name_H-M_alt    "P 1"
_space_group_IT_number       1

loop_
  _space_group_symop_operation_xyz
  'x, y, z'

loop_
  _atom_site_type_symbol
  _atom_site_label
  _atom_site_symmetry_multiplicity
  _atom_site_fract_x
  _atom_site_fract_y
  _atom_site_fract_z
  _atom_site_occupancy
  Ca  Ca1       1.0  0.51400  0.55500  0.24900  1.0000
  Ca  Ca2       1.0  0.98600  0.05490  0.25100  1.0000
  Ca  Ca3       1.0  0.01380  0.94500  0.74900  1.0000
  Ca  Ca4       1.0  0.48600  0.44500  0.75100  1.0000
  Co  Co1       1.0  0.50000  0.00000  0.00000  1.0000
  Co  Co2       1.0  0.00000  0.50000  0.50000  1.0000
  O   O1        1.0  0.70900  0.30700  0.04670  1.0000
  O   O2        1.0  0.81300  0.78600  0.05240  1.0000
  O   O3        1.0  0.09600  0.46900  0.24200  1.0000
  O   O4        1.0  0.40400  0.96900  0.25800  1.0000
  O   O5        1.0  0.68700  0.28600  0.44800  1.0000
  O   O6        1.0  0.79100  0.80700  0.45300  1.0000
  O   O7        1.0  0.20900  0.19300  0.54700  1.0000
  O   O8        1.0  0.31300  0.71400  0.55200  1.0000
  O   O9        1.0  0.59600  0.03100  0.74200  1.0000
  O   O10       1.0  0.90400  0.53100  0.75800  1.0000
  O   O11       1.0  0.18700  0.21400  0.94800  1.0000
  O   O12       1.0  0.29100  0.69300  0.95300  1.0000
  W   W1        1.0  0.00000  0.50000  0.00000  1.0000
  W   W2        1.0  0.50000  0.00000  0.50000  1.0000
