data_image0
_chemical_formula_structural       Ce6Cl2S16Si4
_chemical_formula_sum              "Ce6 Cl2 S16 Si4"
_cell_length_a       7.79801
_cell_length_b       8.80178
_cell_length_c       11.0723
_cell_angle_alpha    96.5327
_cell_angle_beta     90
_cell_angle_gamma    116.294

_space_group_name_H-M_alt    "P 1"
_space_group_IT_number       1

loop_
  _space_group_symop_operation_xyz
  'x, y, z'

loop_
  _atom_site_type_symbol
  _atom_site_label
  _atom_site_symmetry_multiplicity
  _atom_site_fract_x
  _atom_site_fract_y
  _atom_site_fract_z
  _atom_site_occupancy
  Ce  Ce1       1.0  0.07240  0.38800  0.18600  1.0000
  Ce  Ce2       1.0  0.38000  0.00000  0.25000  1.0000
  Ce  Ce3       1.0  0.68400  0.61200  0.31400  1.0000
  Ce  Ce4       1.0  0.31600  0.38800  0.68600  1.0000
  Ce  Ce5       1.0  0.62000  0.00000  0.75000  1.0000
  Ce  Ce6       1.0  0.92800  0.61200  0.81400  1.0000
  Cl  Cl1       1.0  0.00580  0.00000  0.25000  1.0000
  Cl  Cl2       1.0  0.99400  0.00000  0.75000  1.0000
  S   S1        1.0  0.72100  0.13000  0.04950  1.0000
  S   S2        1.0  0.85700  0.56800  0.08490  1.0000
  S   S3        1.0  0.39800  0.29500  0.14200  1.0000
  S   S4        1.0  0.44200  0.70500  0.16000  1.0000
  S   S5        1.0  0.73700  0.29500  0.34000  1.0000
  S   S6        1.0  0.10400  0.70500  0.35800  1.0000
  S   S7        1.0  0.28900  0.43200  0.41500  1.0000
  S   S8        1.0  0.59000  0.87000  0.45000  1.0000
  S   S9        1.0  0.41000  0.13000  0.55000  1.0000
  S   S10       1.0  0.71100  0.56800  0.58500  1.0000
  S   S11       1.0  0.89600  0.29500  0.64200  1.0000
  S   S12       1.0  0.26300  0.70500  0.66000  1.0000
  S   S13       1.0  0.55800  0.29500  0.84000  1.0000
  S   S14       1.0  0.60200  0.70500  0.85800  1.0000
  S   S15       1.0  0.14300  0.43200  0.91500  1.0000
  S   S16       1.0  0.27900  0.87000  0.95000  1.0000
  Si  Si1       1.0  0.62800  0.32000  0.02930  1.0000
  Si  Si2       1.0  0.30800  0.68000  0.47100  1.0000
  Si  Si3       1.0  0.69200  0.32000  0.52900  1.0000
  Si  Si4       1.0  0.37200  0.68000  0.97100  1.0000
