data_image0
_chemical_formula_structural       K6O16P4Sm2
_chemical_formula_sum              "K6 O16 P4 Sm2"
_cell_length_a       7.36468
_cell_length_b       5.605
_cell_length_c       9.4527
_cell_angle_alpha    90
_cell_angle_beta     90.8435
_cell_angle_gamma    90

_space_group_name_H-M_alt    "P 1"
_space_group_IT_number       1

loop_
  _space_group_symop_operation_xyz
  'x, y, z'

loop_
  _atom_site_type_symbol
  _atom_site_label
  _atom_site_symmetry_multiplicity
  _atom_site_fract_x
  _atom_site_fract_y
  _atom_site_fract_z
  _atom_site_occupancy
  K   K1        1.0  0.20100  0.75000  0.08240  1.0000
  K   K2        1.0  0.50900  0.25000  0.19000  1.0000
  K   K3        1.0  0.63300  0.75000  0.40600  1.0000
  K   K4        1.0  0.36700  0.25000  0.59400  1.0000
  K   K5        1.0  0.49100  0.75000  0.81000  1.0000
  K   K6        1.0  0.79900  0.25000  0.91800  1.0000
  O   O1        1.0  0.17700  0.25000  0.07110  1.0000
  O   O2        1.0  0.55900  0.75000  0.10100  1.0000
  O   O3        1.0  0.84700  0.52500  0.16100  1.0000
  O   O4        1.0  0.84700  0.97500  0.16100  1.0000
  O   O5        1.0  0.25500  0.52400  0.34400  1.0000
  O   O6        1.0  0.25500  0.97600  0.34400  1.0000
  O   O7        1.0  0.71500  0.25000  0.42300  1.0000
  O   O8        1.0  0.98800  0.75000  0.44700  1.0000
  O   O9        1.0  0.01240  0.25000  0.55300  1.0000
  O   O10       1.0  0.28500  0.75000  0.57700  1.0000
  O   O11       1.0  0.74500  0.02380  0.65600  1.0000
  O   O12       1.0  0.74500  0.47600  0.65600  1.0000
  O   O13       1.0  0.15300  0.02450  0.83900  1.0000
  O   O14       1.0  0.15300  0.47500  0.83900  1.0000
  O   O15       1.0  0.44100  0.25000  0.89900  1.0000
  O   O16       1.0  0.82300  0.75000  0.92900  1.0000
  P   P1        1.0  0.76600  0.75000  0.08680  1.0000
  P   P2        1.0  0.19600  0.75000  0.42600  1.0000
  P   P3        1.0  0.80400  0.25000  0.57400  1.0000
  P   P4        1.0  0.23400  0.25000  0.91300  1.0000
  Sm  Sm1       1.0  0.00808  0.25000  0.29300  1.0000
  Sm  Sm2       1.0  0.99200  0.75000  0.70700  1.0000
