data_image0
_chemical_formula_structural       Cl8O12Si8
_chemical_formula_sum              "Cl8 O12 Si8"
_cell_length_a       8.19686
_cell_length_b       8.19686
_cell_length_c       8.19686
_cell_angle_alpha    95.5956
_cell_angle_beta     95.5956
_cell_angle_gamma    95.5956

_space_group_name_H-M_alt    "P 1"
_space_group_IT_number       1

loop_
  _space_group_symop_operation_xyz
  'x, y, z'

loop_
  _atom_site_type_symbol
  _atom_site_label
  _atom_site_symmetry_multiplicity
  _atom_site_fract_x
  _atom_site_fract_y
  _atom_site_fract_z
  _atom_site_occupancy
  Cl  Cl1       1.0  0.47300  0.74100  0.15000  1.0000
  Cl  Cl2       1.0  0.85000  0.52700  0.25900  1.0000
  Cl  Cl3       1.0  0.37000  0.37000  0.37000  1.0000
  Cl  Cl4       1.0  0.74100  0.15000  0.47300  1.0000
  Cl  Cl5       1.0  0.25900  0.85000  0.52700  1.0000
  Cl  Cl6       1.0  0.63000  0.63000  0.63000  1.0000
  Cl  Cl7       1.0  0.15000  0.47300  0.74100  1.0000
  Cl  Cl8       1.0  0.52700  0.25900  0.85000  1.0000
  O   O1        1.0  0.18100  0.29200  0.03920  1.0000
  O   O2        1.0  0.74400  0.13200  0.11300  1.0000
  O   O3        1.0  0.11300  0.74400  0.13200  1.0000
  O   O4        1.0  0.29200  0.03920  0.18100  1.0000
  O   O5        1.0  0.86800  0.88700  0.25600  1.0000
  O   O6        1.0  0.03920  0.18100  0.29200  1.0000
  O   O7        1.0  0.96100  0.81900  0.70800  1.0000
  O   O8        1.0  0.13200  0.11300  0.74400  1.0000
  O   O9        1.0  0.70800  0.96100  0.81900  1.0000
  O   O10       1.0  0.88700  0.25600  0.86800  1.0000
  O   O11       1.0  0.25600  0.86800  0.88700  1.0000
  O   O12       1.0  0.81900  0.70800  0.96100  1.0000
  Si  Si1       1.0  0.27300  0.85400  0.08430  1.0000
  Si  Si2       1.0  0.91600  0.72700  0.14600  1.0000
  Si  Si3       1.0  0.21200  0.21200  0.21200  1.0000
  Si  Si4       1.0  0.85400  0.08430  0.27300  1.0000
  Si  Si5       1.0  0.14600  0.91600  0.72700  1.0000
  Si  Si6       1.0  0.78800  0.78800  0.78800  1.0000
  Si  Si7       1.0  0.08430  0.27300  0.85400  1.0000
  Si  Si8       1.0  0.72700  0.14600  0.91600  1.0000
