data_image0
_chemical_formula_structural       Ba4F20Sb4
_chemical_formula_sum              "Ba4 F20 Sb4"
_cell_length_a       4.54054
_cell_length_b       8.89569
_cell_length_c       11.0079
_cell_angle_alpha    90
_cell_angle_beta     90
_cell_angle_gamma    90

_space_group_name_H-M_alt    "P 1"
_space_group_IT_number       1

loop_
  _space_group_symop_operation_xyz
  'x, y, z'

loop_
  _atom_site_type_symbol
  _atom_site_label
  _atom_site_symmetry_multiplicity
  _atom_site_fract_x
  _atom_site_fract_y
  _atom_site_fract_z
  _atom_site_occupancy
  Ba  Ba1       1.0  0.08940  0.25000  0.00000  1.0000
  Ba  Ba2       1.0  0.91100  0.75000  0.00000  1.0000
  Ba  Ba3       1.0  0.08940  0.25000  0.50000  1.0000
  Ba  Ba4       1.0  0.91100  0.75000  0.50000  1.0000
  F   F1        1.0  0.59900  0.17200  0.11200  1.0000
  F   F2        1.0  0.40100  0.67200  0.11200  1.0000
  F   F3        1.0  0.87400  0.47700  0.11800  1.0000
  F   F4        1.0  0.12600  0.97700  0.11800  1.0000
  F   F5        1.0  0.16500  0.21100  0.25000  1.0000
  F   F6        1.0  0.83500  0.71100  0.25000  1.0000
  F   F7        1.0  0.87400  0.47700  0.38200  1.0000
  F   F8        1.0  0.12600  0.97700  0.38200  1.0000
  F   F9        1.0  0.59900  0.17200  0.38800  1.0000
  F   F10       1.0  0.40100  0.67200  0.38800  1.0000
  F   F11       1.0  0.59900  0.32800  0.61200  1.0000
  F   F12       1.0  0.40100  0.82800  0.61200  1.0000
  F   F13       1.0  0.87400  0.02270  0.61800  1.0000
  F   F14       1.0  0.12600  0.52300  0.61800  1.0000
  F   F15       1.0  0.16500  0.28900  0.75000  1.0000
  F   F16       1.0  0.83500  0.78900  0.75000  1.0000
  F   F17       1.0  0.87400  0.02270  0.88200  1.0000
  F   F18       1.0  0.12600  0.52300  0.88200  1.0000
  F   F19       1.0  0.59900  0.32800  0.88800  1.0000
  F   F20       1.0  0.40100  0.82800  0.88800  1.0000
  Sb  Sb1       1.0  0.44200  0.03140  0.25000  1.0000
  Sb  Sb2       1.0  0.55800  0.53100  0.25000  1.0000
  Sb  Sb3       1.0  0.44200  0.46900  0.75000  1.0000
  Sb  Sb4       1.0  0.55800  0.96900  0.75000  1.0000
