data_image0
_chemical_formula_structural       Co8Na4O16
_chemical_formula_sum              "Co8 Na4 O16"
_cell_length_a       4.98053
_cell_length_b       5.70779
_cell_length_c       10.8904
_cell_angle_alpha    90
_cell_angle_beta     90
_cell_angle_gamma    90

_space_group_name_H-M_alt    "P 1"
_space_group_IT_number       1

loop_
  _space_group_symop_operation_xyz
  'x, y, z'

loop_
  _atom_site_type_symbol
  _atom_site_label
  _atom_site_symmetry_multiplicity
  _atom_site_fract_x
  _atom_site_fract_y
  _atom_site_fract_z
  _atom_site_occupancy
  Co  Co1       1.0  0.50000  0.00000  0.00000  1.0000
  Co  Co2       1.0  0.50000  0.50000  0.00000  1.0000
  Co  Co3       1.0  0.00183  0.25000  0.00909  1.0000
  Co  Co4       1.0  0.00183  0.25000  0.49100  1.0000
  Co  Co5       1.0  0.50000  0.00000  0.50000  1.0000
  Co  Co6       1.0  0.50000  0.50000  0.50000  1.0000
  Co  Co7       1.0  0.99800  0.75000  0.50900  1.0000
  Co  Co8       1.0  0.99800  0.75000  0.99100  1.0000
  Na  Na1       1.0  0.65300  0.25000  0.25000  1.0000
  Na  Na2       1.0  0.01380  0.75000  0.25000  1.0000
  Na  Na3       1.0  0.98600  0.25000  0.75000  1.0000
  Na  Na4       1.0  0.34700  0.75000  0.75000  1.0000
  O   O1        1.0  0.34500  0.75000  0.08840  1.0000
  O   O2        1.0  0.35100  0.25000  0.09300  1.0000
  O   O3        1.0  0.81700  0.50400  0.09430  1.0000
  O   O4        1.0  0.81700  0.99600  0.09430  1.0000
  O   O5        1.0  0.81700  0.50400  0.40600  1.0000
  O   O6        1.0  0.81700  0.99600  0.40600  1.0000
  O   O7        1.0  0.35100  0.25000  0.40700  1.0000
  O   O8        1.0  0.34500  0.75000  0.41200  1.0000
  O   O9        1.0  0.65500  0.25000  0.58800  1.0000
  O   O10       1.0  0.64900  0.75000  0.59300  1.0000
  O   O11       1.0  0.18300  0.00398  0.59400  1.0000
  O   O12       1.0  0.18300  0.49600  0.59400  1.0000
  O   O13       1.0  0.18300  0.00398  0.90600  1.0000
  O   O14       1.0  0.18300  0.49600  0.90600  1.0000
  O   O15       1.0  0.64900  0.75000  0.90700  1.0000
  O   O16       1.0  0.65500  0.25000  0.91200  1.0000
