data_image0
_chemical_formula_structural       Cl2O16Pr6Si4
_chemical_formula_sum              "Cl2 O16 Pr6 Si4"
_cell_length_a       6.43066
_cell_length_b       7.78466
_cell_length_c       8.8103
_cell_angle_alpha    97.7185
_cell_angle_beta     90
_cell_angle_gamma    114.396

_space_group_name_H-M_alt    "P 1"
_space_group_IT_number       1

loop_
  _space_group_symop_operation_xyz
  'x, y, z'

loop_
  _atom_site_type_symbol
  _atom_site_label
  _atom_site_symmetry_multiplicity
  _atom_site_fract_x
  _atom_site_fract_y
  _atom_site_fract_z
  _atom_site_occupancy
  Cl  Cl1       1.0  0.02640  0.00000  0.25000  1.0000
  Cl  Cl2       1.0  0.97400  0.00000  0.75000  1.0000
  O   O1        1.0  0.44800  0.15300  0.03090  1.0000
  O   O2        1.0  0.70400  0.52400  0.08200  1.0000
  O   O3        1.0  0.88100  0.28500  0.14500  1.0000
  O   O4        1.0  0.23200  0.69100  0.15500  1.0000
  O   O5        1.0  0.54100  0.30900  0.34500  1.0000
  O   O6        1.0  0.59600  0.71500  0.35500  1.0000
  O   O7        1.0  0.18000  0.47600  0.41800  1.0000
  O   O8        1.0  0.29500  0.84700  0.46900  1.0000
  O   O9        1.0  0.70500  0.15300  0.53100  1.0000
  O   O10       1.0  0.82000  0.52400  0.58200  1.0000
  O   O11       1.0  0.40400  0.28500  0.64500  1.0000
  O   O12       1.0  0.45900  0.69100  0.65500  1.0000
  O   O13       1.0  0.76800  0.30900  0.84500  1.0000
  O   O14       1.0  0.11900  0.71500  0.85500  1.0000
  O   O15       1.0  0.29600  0.47600  0.91800  1.0000
  O   O16       1.0  0.55200  0.84700  0.96900  1.0000
  Pr  Pr1       1.0  0.28900  0.37000  0.17000  1.0000
  Pr  Pr2       1.0  0.57500  0.00000  0.25000  1.0000
  Pr  Pr3       1.0  0.91900  0.63000  0.33000  1.0000
  Pr  Pr4       1.0  0.08060  0.37000  0.67000  1.0000
  Pr  Pr5       1.0  0.42500  0.00000  0.75000  1.0000
  Pr  Pr6       1.0  0.71100  0.63000  0.83000  1.0000
  Si  Si1       1.0  0.71200  0.31600  0.02520  1.0000
  Si  Si2       1.0  0.39600  0.68400  0.47500  1.0000
  Si  Si3       1.0  0.60400  0.31600  0.52500  1.0000
  Si  Si4       1.0  0.28800  0.68400  0.97500  1.0000
