data_image0
_chemical_formula_structural       C4Hf12Zn12
_chemical_formula_sum              "C4 Hf12 Zn12"
_cell_length_a       8.5665
_cell_length_b       8.5665
_cell_length_c       8.5665
_cell_angle_alpha    120
_cell_angle_beta     90
_cell_angle_gamma    120

_space_group_name_H-M_alt    "P 1"
_space_group_IT_number       1

loop_
  _space_group_symop_operation_xyz
  'x, y, z'

loop_
  _atom_site_type_symbol
  _atom_site_label
  _atom_site_symmetry_multiplicity
  _atom_site_fract_x
  _atom_site_fract_y
  _atom_site_fract_z
  _atom_site_occupancy
  C   C1        1.0  0.37500  0.75000  0.12500  1.0000
  C   C2        1.0  0.37500  0.25000  0.62500  1.0000
  C   C3        1.0  0.37500  0.75000  0.62500  1.0000
  C   C4        1.0  0.87500  0.25000  0.62500  1.0000
  Hf  Hf1       1.0  0.68900  0.00000  0.31100  1.0000
  Hf  Hf2       1.0  0.31100  0.00000  0.31100  1.0000
  Hf  Hf3       1.0  0.31100  0.62300  0.31100  1.0000
  Hf  Hf4       1.0  0.06130  0.12300  0.56100  1.0000
  Hf  Hf5       1.0  0.06130  0.50000  0.56100  1.0000
  Hf  Hf6       1.0  0.43900  0.50000  0.56100  1.0000
  Hf  Hf7       1.0  0.68900  0.00000  0.68900  1.0000
  Hf  Hf8       1.0  0.31100  0.00000  0.68900  1.0000
  Hf  Hf9       1.0  0.68900  0.37700  0.68900  1.0000
  Hf  Hf10      1.0  0.06130  0.50000  0.93900  1.0000
  Hf  Hf11      1.0  0.43900  0.50000  0.93900  1.0000
  Hf  Hf12      1.0  0.43900  0.87700  0.93900  1.0000
  Zn  Zn1       1.0  0.66800  0.33700  0.00479  1.0000
  Zn  Zn2       1.0  0.37500  0.25000  0.12500  1.0000
  Zn  Zn3       1.0  0.87500  0.25000  0.12500  1.0000
  Zn  Zn4       1.0  0.87500  0.75000  0.12500  1.0000
  Zn  Zn5       1.0  0.08170  0.16300  0.24500  1.0000
  Zn  Zn6       1.0  0.66800  0.33700  0.33200  1.0000
  Zn  Zn7       1.0  0.66800  0.66300  0.33200  1.0000
  Zn  Zn8       1.0  0.99500  0.66300  0.33200  1.0000
  Zn  Zn9       1.0  0.87500  0.75000  0.62500  1.0000
  Zn  Zn10      1.0  0.08170  0.16300  0.91800  1.0000
  Zn  Zn11      1.0  0.08170  0.83700  0.91800  1.0000
  Zn  Zn12      1.0  0.75500  0.83700  0.91800  1.0000
