data_image0
_chemical_formula_structural       Ba4S16Y8
_chemical_formula_sum              "Ba4 S16 Y8"
_cell_length_a       4.05431
_cell_length_b       12.3001
_cell_length_c       14.5778
_cell_angle_alpha    90
_cell_angle_beta     90
_cell_angle_gamma    90

_space_group_name_H-M_alt    "P 1"
_space_group_IT_number       1

loop_
  _space_group_symop_operation_xyz
  'x, y, z'

loop_
  _atom_site_type_symbol
  _atom_site_label
  _atom_site_symmetry_multiplicity
  _atom_site_fract_x
  _atom_site_fract_y
  _atom_site_fract_z
  _atom_site_occupancy
  Ba  Ba1       1.0  0.25000  0.24200  0.16200  1.0000
  Ba  Ba2       1.0  0.25000  0.74200  0.33800  1.0000
  Ba  Ba3       1.0  0.75000  0.25800  0.66200  1.0000
  Ba  Ba4       1.0  0.75000  0.75800  0.83800  1.0000
  S   S1        1.0  0.75000  0.12500  0.02330  1.0000
  S   S2        1.0  0.75000  0.41800  0.07710  1.0000
  S   S3        1.0  0.75000  0.70700  0.16400  1.0000
  S   S4        1.0  0.25000  0.97800  0.21700  1.0000
  S   S5        1.0  0.25000  0.47800  0.28300  1.0000
  S   S6        1.0  0.75000  0.20700  0.33600  1.0000
  S   S7        1.0  0.75000  0.91800  0.42300  1.0000
  S   S8        1.0  0.75000  0.62500  0.47700  1.0000
  S   S9        1.0  0.25000  0.37500  0.52300  1.0000
  S   S10       1.0  0.25000  0.08150  0.57700  1.0000
  S   S11       1.0  0.25000  0.79300  0.66400  1.0000
  S   S12       1.0  0.75000  0.52200  0.71700  1.0000
  S   S13       1.0  0.75000  0.02210  0.78300  1.0000
  S   S14       1.0  0.25000  0.29300  0.83600  1.0000
  S   S15       1.0  0.25000  0.58200  0.92300  1.0000
  S   S16       1.0  0.25000  0.87500  0.97700  1.0000
  Y   Y1        1.0  0.75000  0.92100  0.10200  1.0000
  Y   Y2        1.0  0.25000  0.56700  0.10800  1.0000
  Y   Y3        1.0  0.25000  0.06740  0.39200  1.0000
  Y   Y4        1.0  0.75000  0.42100  0.39800  1.0000
  Y   Y5        1.0  0.25000  0.57900  0.60200  1.0000
  Y   Y6        1.0  0.75000  0.93300  0.60800  1.0000
  Y   Y7        1.0  0.75000  0.43300  0.89200  1.0000
  Y   Y8        1.0  0.25000  0.07860  0.89800  1.0000
