data_image0
_chemical_formula_structural       Ba4Te16Y8
_chemical_formula_sum              "Ba4 Te16 Y8"
_cell_length_a       13.8014
_cell_length_b       4.48546
_cell_length_c       16.3035
_cell_angle_alpha    90
_cell_angle_beta     90
_cell_angle_gamma    90

_space_group_name_H-M_alt    "P 1"
_space_group_IT_number       1

loop_
  _space_group_symop_operation_xyz
  'x, y, z'

loop_
  _atom_site_type_symbol
  _atom_site_label
  _atom_site_symmetry_multiplicity
  _atom_site_fract_x
  _atom_site_fract_y
  _atom_site_fract_z
  _atom_site_occupancy
  Ba  Ba1       1.0  0.26100  0.75000  0.16900  1.0000
  Ba  Ba2       1.0  0.76100  0.75000  0.33100  1.0000
  Ba  Ba3       1.0  0.23900  0.25000  0.66900  1.0000
  Ba  Ba4       1.0  0.73900  0.25000  0.83100  1.0000
  Te  Te1       1.0  0.37200  0.25000  0.02880  1.0000
  Te  Te2       1.0  0.09070  0.25000  0.07640  1.0000
  Te  Te3       1.0  0.79500  0.25000  0.16200  1.0000
  Te  Te4       1.0  0.52700  0.75000  0.21600  1.0000
  Te  Te5       1.0  0.02720  0.75000  0.28400  1.0000
  Te  Te6       1.0  0.29500  0.25000  0.33800  1.0000
  Te  Te7       1.0  0.59100  0.25000  0.42400  1.0000
  Te  Te8       1.0  0.87200  0.25000  0.47100  1.0000
  Te  Te9       1.0  0.12800  0.75000  0.52900  1.0000
  Te  Te10      1.0  0.40900  0.75000  0.57600  1.0000
  Te  Te11      1.0  0.70500  0.75000  0.66200  1.0000
  Te  Te12      1.0  0.97300  0.25000  0.71600  1.0000
  Te  Te13      1.0  0.47300  0.25000  0.78400  1.0000
  Te  Te14      1.0  0.20500  0.75000  0.83800  1.0000
  Te  Te15      1.0  0.90900  0.75000  0.92400  1.0000
  Te  Te16      1.0  0.62800  0.75000  0.97100  1.0000
  Y   Y1        1.0  0.58100  0.25000  0.09630  1.0000
  Y   Y2        1.0  0.94100  0.75000  0.10900  1.0000
  Y   Y3        1.0  0.44100  0.75000  0.39100  1.0000
  Y   Y4        1.0  0.08090  0.25000  0.40400  1.0000
  Y   Y5        1.0  0.91900  0.75000  0.59600  1.0000
  Y   Y6        1.0  0.55900  0.25000  0.60900  1.0000
  Y   Y7        1.0  0.05940  0.25000  0.89100  1.0000
  Y   Y8        1.0  0.41900  0.75000  0.90400  1.0000
