data_image0
_chemical_formula_structural       Au4K4S20
_chemical_formula_sum              "Au4 K4 S20"
_cell_length_a       8.58755
_cell_length_b       10.4933
_cell_length_c       10.4933
_cell_angle_alpha    97.259
_cell_angle_beta     114.154
_cell_angle_gamma    114.154

_space_group_name_H-M_alt    "P 1"
_space_group_IT_number       1

loop_
  _space_group_symop_operation_xyz
  'x, y, z'

loop_
  _atom_site_type_symbol
  _atom_site_label
  _atom_site_symmetry_multiplicity
  _atom_site_fract_x
  _atom_site_fract_y
  _atom_site_fract_z
  _atom_site_occupancy
  Au  Au1       1.0  0.86200  0.61200  0.11200  1.0000
  Au  Au2       1.0  0.13800  0.88800  0.38800  1.0000
  Au  Au3       1.0  0.86200  0.11200  0.61200  1.0000
  Au  Au4       1.0  0.13800  0.38800  0.88800  1.0000
  K   K1        1.0  0.00000  0.00000  0.00000  1.0000
  K   K2        1.0  0.50000  0.75000  0.25000  1.0000
  K   K3        1.0  0.00000  0.50000  0.50000  1.0000
  K   K4        1.0  0.50000  0.25000  0.75000  1.0000
  S   S1        1.0  0.66200  0.71100  0.00886  1.0000
  S   S2        1.0  0.88500  0.28600  0.07230  1.0000
  S   S3        1.0  0.72600  0.16000  0.16000  1.0000
  S   S4        1.0  0.05810  0.50900  0.21100  1.0000
  S   S5        1.0  0.52700  0.42800  0.21400  1.0000
  S   S6        1.0  0.88500  0.07230  0.28600  1.0000
  S   S7        1.0  0.33800  0.99100  0.28900  1.0000
  S   S8        1.0  0.40600  0.34000  0.34000  1.0000
  S   S9        1.0  0.52700  0.21400  0.42800  1.0000
  S   S10       1.0  0.94200  0.78900  0.49100  1.0000
  S   S11       1.0  0.05810  0.21100  0.50900  1.0000
  S   S12       1.0  0.47300  0.78600  0.57200  1.0000
  S   S13       1.0  0.59400  0.66000  0.66000  1.0000
  S   S14       1.0  0.66200  0.00886  0.71100  1.0000
  S   S15       1.0  0.11500  0.92800  0.71400  1.0000
  S   S16       1.0  0.47300  0.57200  0.78600  1.0000
  S   S17       1.0  0.94200  0.49100  0.78900  1.0000
  S   S18       1.0  0.27400  0.84000  0.84000  1.0000
  S   S19       1.0  0.11500  0.71400  0.92800  1.0000
  S   S20       1.0  0.33800  0.28900  0.99100  1.0000
