data_image0
_chemical_formula_structural       Co4Cs8I16
_chemical_formula_sum              "Co4 Cs8 I16"
_cell_length_a       11.0041
_cell_length_b       8.34666
_cell_length_c       14.5237
_cell_angle_alpha    90
_cell_angle_beta     90
_cell_angle_gamma    90

_space_group_name_H-M_alt    "P 1"
_space_group_IT_number       1

loop_
  _space_group_symop_operation_xyz
  'x, y, z'

loop_
  _atom_site_type_symbol
  _atom_site_label
  _atom_site_symmetry_multiplicity
  _atom_site_fract_x
  _atom_site_fract_y
  _atom_site_fract_z
  _atom_site_occupancy
  Co  Co1       1.0  0.76200  0.25000  0.07690  1.0000
  Co  Co2       1.0  0.26200  0.25000  0.42300  1.0000
  Co  Co3       1.0  0.73800  0.75000  0.57700  1.0000
  Co  Co4       1.0  0.23800  0.75000  0.92300  1.0000
  Cs  Cs1       1.0  0.37000  0.25000  0.10700  1.0000
  Cs  Cs2       1.0  0.98000  0.75000  0.16400  1.0000
  Cs  Cs3       1.0  0.48000  0.75000  0.33600  1.0000
  Cs  Cs4       1.0  0.87000  0.25000  0.39300  1.0000
  Cs  Cs5       1.0  0.13000  0.75000  0.60700  1.0000
  Cs  Cs6       1.0  0.52000  0.25000  0.66400  1.0000
  Cs  Cs7       1.0  0.01980  0.25000  0.83600  1.0000
  Cs  Cs8       1.0  0.63000  0.75000  0.89300  1.0000
  I   I1        1.0  0.31700  0.75000  0.09040  1.0000
  I   I2        1.0  0.99500  0.25000  0.10000  1.0000
  I   I3        1.0  0.67300  0.50100  0.15300  1.0000
  I   I4        1.0  0.67300  0.99800  0.15300  1.0000
  I   I5        1.0  0.17300  0.50100  0.34700  1.0000
  I   I6        1.0  0.17300  0.99800  0.34700  1.0000
  I   I7        1.0  0.49500  0.25000  0.40000  1.0000
  I   I8        1.0  0.81700  0.75000  0.41000  1.0000
  I   I9        1.0  0.18300  0.25000  0.59000  1.0000
  I   I10       1.0  0.50500  0.75000  0.60000  1.0000
  I   I11       1.0  0.82700  0.00150  0.65300  1.0000
  I   I12       1.0  0.82700  0.49800  0.65300  1.0000
  I   I13       1.0  0.32700  0.00150  0.84700  1.0000
  I   I14       1.0  0.32700  0.49800  0.84700  1.0000
  I   I15       1.0  0.00529  0.75000  0.90000  1.0000
  I   I16       1.0  0.68300  0.25000  0.91000  1.0000
