data_image0
_chemical_formula_structural       Ba2Cu2Na4O16V4
_chemical_formula_sum              "Ba2 Cu2 Na4 O16 V4"
_cell_length_a       5.46887
_cell_length_b       5.46887
_cell_length_c       13.9886
_cell_angle_alpha    92.1062
_cell_angle_beta     92.1062
_cell_angle_gamma    62.4062

_space_group_name_H-M_alt    "P 1"
_space_group_IT_number       1

loop_
  _space_group_symop_operation_xyz
  'x, y, z'

loop_
  _atom_site_type_symbol
  _atom_site_label
  _atom_site_symmetry_multiplicity
  _atom_site_fract_x
  _atom_site_fract_y
  _atom_site_fract_z
  _atom_site_occupancy
  Ba  Ba1       1.0  0.89300  0.10700  0.25000  1.0000
  Ba  Ba2       1.0  0.10700  0.89300  0.75000  1.0000
  Cu  Cu1       1.0  0.00000  0.00000  0.00000  1.0000
  Cu  Cu2       1.0  0.00000  0.00000  0.50000  1.0000
  Na  Na1       1.0  0.59700  0.72800  0.08610  1.0000
  Na  Na2       1.0  0.27200  0.40300  0.41400  1.0000
  Na  Na3       1.0  0.72800  0.59700  0.58600  1.0000
  Na  Na4       1.0  0.40300  0.27200  0.91400  1.0000
  O   O1        1.0  0.56100  0.18400  0.07730  1.0000
  O   O2        1.0  0.01150  0.29500  0.08280  1.0000
  O   O3        1.0  0.15800  0.74400  0.10600  1.0000
  O   O4        1.0  0.30000  0.33500  0.24900  1.0000
  O   O5        1.0  0.66500  0.70000  0.25100  1.0000
  O   O6        1.0  0.25600  0.84200  0.39400  1.0000
  O   O7        1.0  0.70500  0.98900  0.41700  1.0000
  O   O8        1.0  0.81600  0.43900  0.42300  1.0000
  O   O9        1.0  0.18400  0.56100  0.57700  1.0000
  O   O10       1.0  0.29500  0.01150  0.58300  1.0000
  O   O11       1.0  0.74400  0.15800  0.60600  1.0000
  O   O12       1.0  0.33500  0.30000  0.74900  1.0000
  O   O13       1.0  0.70000  0.66500  0.75100  1.0000
  O   O14       1.0  0.84200  0.25600  0.89400  1.0000
  O   O15       1.0  0.98900  0.70500  0.91700  1.0000
  O   O16       1.0  0.43900  0.81600  0.92300  1.0000
  V   V1        1.0  0.25300  0.39500  0.12900  1.0000
  V   V2        1.0  0.60500  0.74700  0.37100  1.0000
  V   V3        1.0  0.39500  0.25300  0.62900  1.0000
  V   V4        1.0  0.74700  0.60500  0.87100  1.0000
