data_image0
_chemical_formula_structural       S16Sr4Y8
_chemical_formula_sum              "S16 Sr4 Y8"
_cell_length_a       3.99785
_cell_length_b       12.029
_cell_length_c       14.3713
_cell_angle_alpha    90
_cell_angle_beta     90
_cell_angle_gamma    90

_space_group_name_H-M_alt    "P 1"
_space_group_IT_number       1

loop_
  _space_group_symop_operation_xyz
  'x, y, z'

loop_
  _atom_site_type_symbol
  _atom_site_label
  _atom_site_symmetry_multiplicity
  _atom_site_fract_x
  _atom_site_fract_y
  _atom_site_fract_z
  _atom_site_occupancy
  S   S1        1.0  0.75000  0.63100  0.02670  1.0000
  S   S2        1.0  0.75000  0.91400  0.07860  1.0000
  S   S3        1.0  0.75000  0.20700  0.17400  1.0000
  S   S4        1.0  0.25000  0.47800  0.21600  1.0000
  S   S5        1.0  0.25000  0.97800  0.28400  1.0000
  S   S6        1.0  0.75000  0.70700  0.32600  1.0000
  S   S7        1.0  0.75000  0.41400  0.42100  1.0000
  S   S8        1.0  0.75000  0.13100  0.47300  1.0000
  S   S9        1.0  0.25000  0.86900  0.52700  1.0000
  S   S10       1.0  0.25000  0.58600  0.57900  1.0000
  S   S11       1.0  0.25000  0.29300  0.67400  1.0000
  S   S12       1.0  0.75000  0.02190  0.71600  1.0000
  S   S13       1.0  0.75000  0.52200  0.78400  1.0000
  S   S14       1.0  0.25000  0.79300  0.82600  1.0000
  S   S15       1.0  0.25000  0.08650  0.92100  1.0000
  S   S16       1.0  0.25000  0.36900  0.97300  1.0000
  Sr  Sr1       1.0  0.25000  0.74200  0.16200  1.0000
  Sr  Sr2       1.0  0.25000  0.24200  0.33800  1.0000
  Sr  Sr3       1.0  0.75000  0.75800  0.66200  1.0000
  Sr  Sr4       1.0  0.75000  0.25800  0.83800  1.0000
  Y   Y1        1.0  0.75000  0.41900  0.10100  1.0000
  Y   Y2        1.0  0.25000  0.06790  0.11000  1.0000
  Y   Y3        1.0  0.25000  0.56800  0.39000  1.0000
  Y   Y4        1.0  0.75000  0.91900  0.39900  1.0000
  Y   Y5        1.0  0.25000  0.08090  0.60100  1.0000
  Y   Y6        1.0  0.75000  0.43200  0.61000  1.0000
  Y   Y7        1.0  0.75000  0.93200  0.89000  1.0000
  Y   Y8        1.0  0.25000  0.58100  0.89900  1.0000
