data_image0
_chemical_formula_structural       Mo12Rb2Se14
_chemical_formula_sum              "Mo12 Rb2 Se14"
_cell_length_a       9.60964
_cell_length_b       9.60964
_cell_length_c       9.97792
_cell_angle_alpha    61.2136
_cell_angle_beta     118.786
_cell_angle_gamma    120

_space_group_name_H-M_alt    "P 1"
_space_group_IT_number       1

loop_
  _space_group_symop_operation_xyz
  'x, y, z'

loop_
  _atom_site_type_symbol
  _atom_site_label
  _atom_site_symmetry_multiplicity
  _atom_site_fract_x
  _atom_site_fract_y
  _atom_site_fract_z
  _atom_site_occupancy
  Mo  Mo1       1.0  0.38500  0.49100  0.08610  1.0000
  Mo  Mo2       1.0  0.19200  0.61500  0.08610  1.0000
  Mo  Mo3       1.0  0.50900  0.80800  0.08610  1.0000
  Mo  Mo4       1.0  0.30300  0.37600  0.36700  1.0000
  Mo  Mo5       1.0  0.62400  0.56000  0.36700  1.0000
  Mo  Mo6       1.0  0.44000  0.69700  0.36700  1.0000
  Mo  Mo7       1.0  0.56000  0.30300  0.63300  1.0000
  Mo  Mo8       1.0  0.37600  0.44000  0.63300  1.0000
  Mo  Mo9       1.0  0.69700  0.62400  0.63300  1.0000
  Mo  Mo10      1.0  0.49100  0.19200  0.91400  1.0000
  Mo  Mo11      1.0  0.80800  0.38500  0.91400  1.0000
  Mo  Mo12      1.0  0.61500  0.50900  0.91400  1.0000
  Rb  Rb1       1.0  0.13100  0.86900  0.39300  1.0000
  Rb  Rb2       1.0  0.86900  0.13100  0.60700  1.0000
  Se  Se1       1.0  0.07800  0.29600  0.11100  1.0000
  Se  Se2       1.0  0.70400  0.67100  0.11100  1.0000
  Se  Se3       1.0  0.32900  0.92200  0.11100  1.0000
  Se  Se4       1.0  0.71900  0.28100  0.15800  1.0000
  Se  Se5       1.0  0.48500  0.25000  0.35800  1.0000
  Se  Se6       1.0  0.12400  0.51500  0.35800  1.0000
  Se  Se7       1.0  0.75000  0.87600  0.35800  1.0000
  Se  Se8       1.0  0.25000  0.12400  0.64200  1.0000
  Se  Se9       1.0  0.87600  0.48500  0.64200  1.0000
  Se  Se10      1.0  0.51500  0.75000  0.64200  1.0000
  Se  Se11      1.0  0.28100  0.71900  0.84200  1.0000
  Se  Se12      1.0  0.67100  0.07800  0.88900  1.0000
  Se  Se13      1.0  0.29600  0.32900  0.88900  1.0000
  Se  Se14      1.0  0.92200  0.70400  0.88900  1.0000
