data_image0
_chemical_formula_structural       Mo4O20U4
_chemical_formula_sum              "Mo4 O20 U4"
_cell_length_a       7.39635
_cell_length_b       4.1499
_cell_length_c       12.7525
_cell_angle_alpha    90
_cell_angle_beta     90
_cell_angle_gamma    90

_space_group_name_H-M_alt    "P 1"
_space_group_IT_number       1

loop_
  _space_group_symop_operation_xyz
  'x, y, z'

loop_
  _atom_site_type_symbol
  _atom_site_label
  _atom_site_symmetry_multiplicity
  _atom_site_fract_x
  _atom_site_fract_y
  _atom_site_fract_z
  _atom_site_occupancy
  Mo  Mo1       1.0  0.50000  0.10200  0.25000  1.0000
  Mo  Mo2       1.0  0.00000  0.89800  0.25000  1.0000
  Mo  Mo3       1.0  0.00000  0.10200  0.75000  1.0000
  Mo  Mo4       1.0  0.50000  0.89800  0.75000  1.0000
  O   O1        1.0  0.75000  0.50000  0.02810  1.0000
  O   O2        1.0  0.45700  0.00453  0.09970  1.0000
  O   O3        1.0  0.04260  0.99500  0.09970  1.0000
  O   O4        1.0  0.75000  0.00000  0.21900  1.0000
  O   O5        1.0  0.00000  0.48200  0.25000  1.0000
  O   O6        1.0  0.50000  0.51800  0.25000  1.0000
  O   O7        1.0  0.25000  0.00000  0.28100  1.0000
  O   O8        1.0  0.54300  0.00453  0.40000  1.0000
  O   O9        1.0  0.95700  0.99500  0.40000  1.0000
  O   O10       1.0  0.25000  0.50000  0.47200  1.0000
  O   O11       1.0  0.75000  0.50000  0.52800  1.0000
  O   O12       1.0  0.04260  0.00453  0.60000  1.0000
  O   O13       1.0  0.45700  0.99500  0.60000  1.0000
  O   O14       1.0  0.75000  0.00000  0.71900  1.0000
  O   O15       1.0  0.50000  0.48200  0.75000  1.0000
  O   O16       1.0  0.00000  0.51800  0.75000  1.0000
  O   O17       1.0  0.25000  0.00000  0.78100  1.0000
  O   O18       1.0  0.95700  0.00453  0.90000  1.0000
  O   O19       1.0  0.54300  0.99500  0.90000  1.0000
  O   O20       1.0  0.25000  0.50000  0.97200  1.0000
  U   U1        1.0  0.75000  0.00000  0.02590  1.0000
  U   U2        1.0  0.25000  0.00000  0.47400  1.0000
  U   U3        1.0  0.75000  0.00000  0.52600  1.0000
  U   U4        1.0  0.25000  0.00000  0.97400  1.0000
