data_image0
_chemical_formula_structural       Na4O16Ti4Y4
_chemical_formula_sum              "Na4 O16 Ti4 Y4"
_cell_length_a       12.2607
_cell_length_b       5.38602
_cell_length_c       5.27212
_cell_angle_alpha    90
_cell_angle_beta     90
_cell_angle_gamma    90

_space_group_name_H-M_alt    "P 1"
_space_group_IT_number       1

loop_
  _space_group_symop_operation_xyz
  'x, y, z'

loop_
  _atom_site_type_symbol
  _atom_site_label
  _atom_site_symmetry_multiplicity
  _atom_site_fract_x
  _atom_site_fract_y
  _atom_site_fract_z
  _atom_site_occupancy
  Na  Na1       1.0  0.58800  0.00841  0.25000  1.0000
  Na  Na2       1.0  0.41200  0.50800  0.25000  1.0000
  Na  Na3       1.0  0.58800  0.49200  0.75000  1.0000
  Na  Na4       1.0  0.41200  0.99200  0.75000  1.0000
  O   O1        1.0  0.21000  0.25000  0.00000  1.0000
  O   O2        1.0  0.75300  0.25000  0.00000  1.0000
  O   O3        1.0  0.24700  0.75000  0.00000  1.0000
  O   O4        1.0  0.79000  0.75000  0.00000  1.0000
  O   O5        1.0  0.40700  0.05680  0.25000  1.0000
  O   O6        1.0  0.93500  0.43000  0.25000  1.0000
  O   O7        1.0  0.59300  0.55700  0.25000  1.0000
  O   O8        1.0  0.06540  0.93000  0.25000  1.0000
  O   O9        1.0  0.21000  0.25000  0.50000  1.0000
  O   O10       1.0  0.75300  0.25000  0.50000  1.0000
  O   O11       1.0  0.24700  0.75000  0.50000  1.0000
  O   O12       1.0  0.79000  0.75000  0.50000  1.0000
  O   O13       1.0  0.93500  0.06960  0.75000  1.0000
  O   O14       1.0  0.40700  0.44300  0.75000  1.0000
  O   O15       1.0  0.06540  0.57000  0.75000  1.0000
  O   O16       1.0  0.59300  0.94300  0.75000  1.0000
  Ti  Ti1       1.0  0.26400  0.01040  0.25000  1.0000
  Ti  Ti2       1.0  0.73600  0.51000  0.25000  1.0000
  Ti  Ti3       1.0  0.26400  0.49000  0.75000  1.0000
  Ti  Ti4       1.0  0.73600  0.99000  0.75000  1.0000
  Y   Y1        1.0  0.89300  0.02490  0.25000  1.0000
  Y   Y2        1.0  0.10700  0.52500  0.25000  1.0000
  Y   Y3        1.0  0.89300  0.47500  0.75000  1.0000
  Y   Y4        1.0  0.10700  0.97500  0.75000  1.0000
