data_image0
_chemical_formula_structural       Cs12Sb4Se12
_chemical_formula_sum              "Cs12 Sb4 Se12"
_cell_length_a       10.8177
_cell_length_b       10.8177
_cell_length_c       10.8177
_cell_angle_alpha    90
_cell_angle_beta     90
_cell_angle_gamma    90

_space_group_name_H-M_alt    "P 1"
_space_group_IT_number       1

loop_
  _space_group_symop_operation_xyz
  'x, y, z'

loop_
  _atom_site_type_symbol
  _atom_site_label
  _atom_site_symmetry_multiplicity
  _atom_site_fract_x
  _atom_site_fract_y
  _atom_site_fract_z
  _atom_site_occupancy
  Cs  Cs1       1.0  0.92700  0.42700  0.07320  1.0000
  Cs  Cs2       1.0  0.68600  0.81400  0.18600  1.0000
  Cs  Cs3       1.0  0.31100  0.68900  0.18900  1.0000
  Cs  Cs4       1.0  0.68900  0.18900  0.31100  1.0000
  Cs  Cs5       1.0  0.31400  0.31400  0.31400  1.0000
  Cs  Cs6       1.0  0.07320  0.92700  0.42700  1.0000
  Cs  Cs7       1.0  0.57300  0.57300  0.57300  1.0000
  Cs  Cs8       1.0  0.81400  0.18600  0.68600  1.0000
  Cs  Cs9       1.0  0.18900  0.31100  0.68900  1.0000
  Cs  Cs10      1.0  0.81100  0.81100  0.81100  1.0000
  Cs  Cs11      1.0  0.18600  0.68600  0.81400  1.0000
  Cs  Cs12      1.0  0.42700  0.07320  0.92700  1.0000
  Sb  Sb1       1.0  0.02540  0.02540  0.02540  1.0000
  Sb  Sb2       1.0  0.97500  0.52500  0.47500  1.0000
  Sb  Sb3       1.0  0.47500  0.97500  0.52500  1.0000
  Sb  Sb4       1.0  0.52500  0.47500  0.97500  1.0000
  Se  Se1       1.0  0.79700  0.09760  0.00728  1.0000
  Se  Se2       1.0  0.00728  0.79700  0.09760  1.0000
  Se  Se3       1.0  0.59800  0.49300  0.20300  1.0000
  Se  Se4       1.0  0.40200  0.99300  0.29700  1.0000
  Se  Se5       1.0  0.99300  0.29700  0.40200  1.0000
  Se  Se6       1.0  0.20300  0.59800  0.49300  1.0000
  Se  Se7       1.0  0.70300  0.90200  0.50700  1.0000
  Se  Se8       1.0  0.49300  0.20300  0.59800  1.0000
  Se  Se9       1.0  0.90200  0.50700  0.70300  1.0000
  Se  Se10      1.0  0.09760  0.00728  0.79700  1.0000
  Se  Se11      1.0  0.50700  0.70300  0.90200  1.0000
  Se  Se12      1.0  0.29700  0.40200  0.99300  1.0000
