data_image0
_chemical_formula_structural       Ge4K8Se16
_chemical_formula_sum              "Ge4 K8 Se16"
_cell_length_a       12.1796
_cell_length_b       8.42676
_cell_length_c       9.17514
_cell_angle_alpha    90
_cell_angle_beta     106.306
_cell_angle_gamma    90

_space_group_name_H-M_alt    "P 1"
_space_group_IT_number       1

loop_
  _space_group_symop_operation_xyz
  'x, y, z'

loop_
  _atom_site_type_symbol
  _atom_site_label
  _atom_site_symmetry_multiplicity
  _atom_site_fract_x
  _atom_site_fract_y
  _atom_site_fract_z
  _atom_site_occupancy
  Ge  Ge1       1.0  0.75800  0.86500  0.04810  1.0000
  Ge  Ge2       1.0  0.24200  0.36500  0.45200  1.0000
  Ge  Ge3       1.0  0.75800  0.63500  0.54800  1.0000
  Ge  Ge4       1.0  0.24200  0.13500  0.95200  1.0000
  K   K1        1.0  0.84200  0.41300  0.19300  1.0000
  K   K2        1.0  0.54500  0.07400  0.22700  1.0000
  K   K3        1.0  0.45500  0.57400  0.27300  1.0000
  K   K4        1.0  0.15800  0.91300  0.30700  1.0000
  K   K5        1.0  0.84200  0.08740  0.69300  1.0000
  K   K6        1.0  0.54500  0.42600  0.72700  1.0000
  K   K7        1.0  0.45500  0.92600  0.77300  1.0000
  K   K8        1.0  0.15800  0.58700  0.80700  1.0000
  Se  Se1       1.0  0.30000  0.87700  0.03240  1.0000
  Se  Se2       1.0  0.62500  0.66800  0.03460  1.0000
  Se  Se3       1.0  0.07770  0.21400  0.04510  1.0000
  Se  Se4       1.0  0.13700  0.44700  0.19200  1.0000
  Se  Se5       1.0  0.86300  0.94700  0.30800  1.0000
  Se  Se6       1.0  0.92200  0.71400  0.45500  1.0000
  Se  Se7       1.0  0.37500  0.16800  0.46500  1.0000
  Se  Se8       1.0  0.70000  0.37700  0.46800  1.0000
  Se  Se9       1.0  0.30000  0.62300  0.53200  1.0000
  Se  Se10      1.0  0.62500  0.83200  0.53500  1.0000
  Se  Se11      1.0  0.07770  0.28600  0.54500  1.0000
  Se  Se12      1.0  0.13700  0.05290  0.69200  1.0000
  Se  Se13      1.0  0.86300  0.55300  0.80800  1.0000
  Se  Se14      1.0  0.92200  0.78600  0.95500  1.0000
  Se  Se15      1.0  0.37500  0.33200  0.96500  1.0000
  Se  Se16      1.0  0.70000  0.12300  0.96800  1.0000
