data_image0
_chemical_formula_structural       Co2H12N2O10P2
_chemical_formula_sum              "Co2 H12 N2 O10 P2"
_cell_length_a       5.55601
_cell_length_b       8.66026
_cell_length_c       4.72016
_cell_angle_alpha    90
_cell_angle_beta     90
_cell_angle_gamma    90

_space_group_name_H-M_alt    "P 1"
_space_group_IT_number       1

loop_
  _space_group_symop_operation_xyz
  'x, y, z'

loop_
  _atom_site_type_symbol
  _atom_site_label
  _atom_site_symmetry_multiplicity
  _atom_site_fract_x
  _atom_site_fract_y
  _atom_site_fract_z
  _atom_site_occupancy
  Co  Co1       1.0  0.00000  0.97300  0.01790  1.0000
  Co  Co2       1.0  0.50000  0.02650  0.51800  1.0000
  H   H1        1.0  0.35900  0.19400  0.09010  1.0000
  H   H2        1.0  0.64100  0.19400  0.09010  1.0000
  H   H3        1.0  0.15400  0.59400  0.14600  1.0000
  H   H4        1.0  0.84600  0.59400  0.14600  1.0000
  H   H5        1.0  0.00000  0.46200  0.34000  1.0000
  H   H6        1.0  0.50000  0.54500  0.47200  1.0000
  H   H7        1.0  0.14100  0.80600  0.59000  1.0000
  H   H8        1.0  0.85900  0.80600  0.59000  1.0000
  H   H9        1.0  0.34600  0.40600  0.64600  1.0000
  H   H10       1.0  0.65400  0.40600  0.64600  1.0000
  H   H11       1.0  0.50000  0.53800  0.84000  1.0000
  H   H12       1.0  0.00000  0.45500  0.97200  1.0000
  N   N1        1.0  0.00000  0.52700  0.15200  1.0000
  N   N2        1.0  0.50000  0.47300  0.65200  1.0000
  O   O1        1.0  0.50000  0.62800  0.15100  1.0000
  O   O2        1.0  0.50000  0.20900  0.21500  1.0000
  O   O3        1.0  0.27700  0.88000  0.24400  1.0000
  O   O4        1.0  0.72300  0.88000  0.24400  1.0000
  O   O5        1.0  0.00000  0.16800  0.27400  1.0000
  O   O6        1.0  0.00000  0.37200  0.65100  1.0000
  O   O7        1.0  0.00000  0.79100  0.71500  1.0000
  O   O8        1.0  0.22300  0.12000  0.74400  1.0000
  O   O9        1.0  0.77700  0.12000  0.74400  1.0000
  O   O10       1.0  0.50000  0.83200  0.77400  1.0000
  P   P1        1.0  0.50000  0.80400  0.09250  1.0000
  P   P2        1.0  0.00000  0.19600  0.59200  1.0000
