data_image0
_chemical_formula_structural       Ba4Gd8Te16
_chemical_formula_sum              "Ba4 Gd8 Te16"
_cell_length_a       13.8245
_cell_length_b       4.51828
_cell_length_c       16.4067
_cell_angle_alpha    90
_cell_angle_beta     90
_cell_angle_gamma    90

_space_group_name_H-M_alt    "P 1"
_space_group_IT_number       1

loop_
  _space_group_symop_operation_xyz
  'x, y, z'

loop_
  _atom_site_type_symbol
  _atom_site_label
  _atom_site_symmetry_multiplicity
  _atom_site_fract_x
  _atom_site_fract_y
  _atom_site_fract_z
  _atom_site_occupancy
  Ba  Ba1       1.0  0.26100  0.75000  0.16800  1.0000
  Ba  Ba2       1.0  0.76100  0.75000  0.33200  1.0000
  Ba  Ba3       1.0  0.23900  0.25000  0.66800  1.0000
  Ba  Ba4       1.0  0.73900  0.25000  0.83200  1.0000
  Gd  Gd1       1.0  0.58000  0.25000  0.09690  1.0000
  Gd  Gd2       1.0  0.93800  0.75000  0.10900  1.0000
  Gd  Gd3       1.0  0.43800  0.75000  0.39100  1.0000
  Gd  Gd4       1.0  0.08000  0.25000  0.40300  1.0000
  Gd  Gd5       1.0  0.92000  0.75000  0.59700  1.0000
  Gd  Gd6       1.0  0.56200  0.25000  0.60900  1.0000
  Gd  Gd7       1.0  0.06190  0.25000  0.89100  1.0000
  Gd  Gd8       1.0  0.42000  0.75000  0.90300  1.0000
  Te  Te1       1.0  0.37100  0.25000  0.02810  1.0000
  Te  Te2       1.0  0.08910  0.25000  0.07760  1.0000
  Te  Te3       1.0  0.79400  0.25000  0.16400  1.0000
  Te  Te4       1.0  0.52600  0.75000  0.21600  1.0000
  Te  Te5       1.0  0.02570  0.75000  0.28400  1.0000
  Te  Te6       1.0  0.29400  0.25000  0.33600  1.0000
  Te  Te7       1.0  0.58900  0.25000  0.42200  1.0000
  Te  Te8       1.0  0.87100  0.25000  0.47200  1.0000
  Te  Te9       1.0  0.12900  0.75000  0.52800  1.0000
  Te  Te10      1.0  0.41100  0.75000  0.57800  1.0000
  Te  Te11      1.0  0.70600  0.75000  0.66400  1.0000
  Te  Te12      1.0  0.97400  0.25000  0.71600  1.0000
  Te  Te13      1.0  0.47400  0.25000  0.78400  1.0000
  Te  Te14      1.0  0.20600  0.75000  0.83600  1.0000
  Te  Te15      1.0  0.91100  0.75000  0.92200  1.0000
  Te  Te16      1.0  0.62900  0.75000  0.97200  1.0000
