data_image0
_chemical_formula_structural       Ce4Pd18Sb6
_chemical_formula_sum              "Ce4 Pd18 Sb6"
_cell_length_a       8.04842
_cell_length_b       8.04842
_cell_length_c       9.4317
_cell_angle_alpha    90
_cell_angle_beta     90
_cell_angle_gamma    119.353

_space_group_name_H-M_alt    "P 1"
_space_group_IT_number       1

loop_
  _space_group_symop_operation_xyz
  'x, y, z'

loop_
  _atom_site_type_symbol
  _atom_site_label
  _atom_site_symmetry_multiplicity
  _atom_site_fract_x
  _atom_site_fract_y
  _atom_site_fract_z
  _atom_site_occupancy
  Ce  Ce1       1.0  0.98300  0.67500  0.25000  1.0000
  Ce  Ce2       1.0  0.67500  0.98300  0.25000  1.0000
  Ce  Ce3       1.0  0.32500  0.01710  0.75000  1.0000
  Ce  Ce4       1.0  0.01710  0.32500  0.75000  1.0000
  Pd  Pd1       1.0  0.66800  0.66800  0.02870  1.0000
  Pd  Pd2       1.0  0.34200  0.00000  0.08590  1.0000
  Pd  Pd3       1.0  0.00000  0.34200  0.08590  1.0000
  Pd  Pd4       1.0  0.14500  0.14500  0.25000  1.0000
  Pd  Pd5       1.0  0.55500  0.35900  0.25000  1.0000
  Pd  Pd6       1.0  0.35900  0.55500  0.25000  1.0000
  Pd  Pd7       1.0  0.34200  0.00000  0.41400  1.0000
  Pd  Pd8       1.0  0.00000  0.34200  0.41400  1.0000
  Pd  Pd9       1.0  0.66800  0.66800  0.47100  1.0000
  Pd  Pd10      1.0  0.33200  0.33200  0.52900  1.0000
  Pd  Pd11      1.0  0.65800  0.00000  0.58600  1.0000
  Pd  Pd12      1.0  0.00000  0.65800  0.58600  1.0000
  Pd  Pd13      1.0  0.64100  0.44500  0.75000  1.0000
  Pd  Pd14      1.0  0.44500  0.64100  0.75000  1.0000
  Pd  Pd15      1.0  0.85500  0.85500  0.75000  1.0000
  Pd  Pd16      1.0  0.65800  0.00000  0.91400  1.0000
  Pd  Pd17      1.0  0.00000  0.65800  0.91400  1.0000
  Pd  Pd18      1.0  0.33200  0.33200  0.97100  1.0000
  Sb  Sb1       1.0  0.00000  0.00000  0.00000  1.0000
  Sb  Sb2       1.0  0.67700  0.32300  0.00000  1.0000
  Sb  Sb3       1.0  0.32300  0.67700  0.00000  1.0000
  Sb  Sb4       1.0  0.00000  0.00000  0.50000  1.0000
  Sb  Sb5       1.0  0.67700  0.32300  0.50000  1.0000
  Sb  Sb6       1.0  0.32300  0.67700  0.50000  1.0000
