data_image0
_chemical_formula_structural       Ba4Mn4O16Rb4
_chemical_formula_sum              "Ba4 Mn4 O16 Rb4"
_cell_length_a       7.87614
_cell_length_b       5.86561
_cell_length_c       10.302
_cell_angle_alpha    90
_cell_angle_beta     90
_cell_angle_gamma    90

_space_group_name_H-M_alt    "P 1"
_space_group_IT_number       1

loop_
  _space_group_symop_operation_xyz
  'x, y, z'

loop_
  _atom_site_type_symbol
  _atom_site_label
  _atom_site_symmetry_multiplicity
  _atom_site_fract_x
  _atom_site_fract_y
  _atom_site_fract_z
  _atom_site_occupancy
  Ba  Ba1       1.0  0.49200  0.25000  0.19100  1.0000
  Ba  Ba2       1.0  0.99200  0.25000  0.30900  1.0000
  Ba  Ba3       1.0  0.00805  0.75000  0.69100  1.0000
  Ba  Ba4       1.0  0.50800  0.75000  0.80900  1.0000
  Mn  Mn1       1.0  0.26900  0.75000  0.08300  1.0000
  Mn  Mn2       1.0  0.76900  0.75000  0.41700  1.0000
  Mn  Mn3       1.0  0.23100  0.25000  0.58300  1.0000
  Mn  Mn4       1.0  0.73100  0.25000  0.91700  1.0000
  O   O1        1.0  0.80500  0.25000  0.07410  1.0000
  O   O2        1.0  0.48600  0.75000  0.08070  1.0000
  O   O3        1.0  0.20100  0.50900  0.16100  1.0000
  O   O4        1.0  0.20100  0.99100  0.16100  1.0000
  O   O5        1.0  0.70100  0.50900  0.33900  1.0000
  O   O6        1.0  0.70100  0.99100  0.33900  1.0000
  O   O7        1.0  0.98600  0.75000  0.41900  1.0000
  O   O8        1.0  0.30500  0.25000  0.42600  1.0000
  O   O9        1.0  0.69500  0.75000  0.57400  1.0000
  O   O10       1.0  0.01400  0.25000  0.58100  1.0000
  O   O11       1.0  0.29900  0.00901  0.66100  1.0000
  O   O12       1.0  0.29900  0.49100  0.66100  1.0000
  O   O13       1.0  0.79900  0.00901  0.83900  1.0000
  O   O14       1.0  0.79900  0.49100  0.83900  1.0000
  O   O15       1.0  0.51400  0.25000  0.91900  1.0000
  O   O16       1.0  0.19500  0.75000  0.92600  1.0000
  Rb  Rb1       1.0  0.84600  0.75000  0.08610  1.0000
  Rb  Rb2       1.0  0.34600  0.75000  0.41400  1.0000
  Rb  Rb3       1.0  0.65400  0.25000  0.58600  1.0000
  Rb  Rb4       1.0  0.15400  0.25000  0.91400  1.0000
