data_image0
_chemical_formula_structural       F18Fe3Li3Mn3
_chemical_formula_sum              "F18 Fe3 Li3 Mn3"
_cell_length_a       8.47188
_cell_length_b       8.46852
_cell_length_c       4.51048
_cell_angle_alpha    90.0012
_cell_angle_beta     89.9421
_cell_angle_gamma    119.993

_space_group_name_H-M_alt    "P 1"
_space_group_IT_number       1

loop_
  _space_group_symop_operation_xyz
  'x, y, z'

loop_
  _atom_site_type_symbol
  _atom_site_label
  _atom_site_symmetry_multiplicity
  _atom_site_fract_x
  _atom_site_fract_y
  _atom_site_fract_z
  _atom_site_occupancy
  F   F1        1.0  0.21800  0.10400  0.23700  1.0000
  F   F2        1.0  0.89600  0.11400  0.23700  1.0000
  F   F3        1.0  0.88500  0.78100  0.23700  1.0000
  F   F4        1.0  0.88700  0.46100  0.26100  1.0000
  F   F5        1.0  0.57400  0.11300  0.26200  1.0000
  F   F6        1.0  0.53800  0.42600  0.26200  1.0000
  F   F7        1.0  0.55600  0.77300  0.26400  1.0000
  F   F8        1.0  0.21700  0.44400  0.26400  1.0000
  F   F9        1.0  0.22700  0.78300  0.26400  1.0000
  F   F10       1.0  0.77300  0.55600  0.73600  1.0000
  F   F11       1.0  0.78300  0.22700  0.73600  1.0000
  F   F12       1.0  0.44400  0.21700  0.73600  1.0000
  F   F13       1.0  0.46100  0.88700  0.73800  1.0000
  F   F14       1.0  0.11300  0.57400  0.73800  1.0000
  F   F15       1.0  0.42600  0.53900  0.73900  1.0000
  F   F16       1.0  0.78200  0.88600  0.76200  1.0000
  F   F17       1.0  0.10500  0.21900  0.76200  1.0000
  F   F18       1.0  0.11500  0.89600  0.76300  1.0000
  Fe  Fe1       1.0  0.00000  0.68800  0.50000  1.0000
  Fe  Fe2       1.0  0.68800  0.00000  0.50000  1.0000
  Fe  Fe3       1.0  0.31200  0.31200  0.50000  1.0000
  Li  Li1       1.0  0.00000  0.00000  0.00000  1.0000
  Li  Li2       1.0  0.66700  0.33300  0.49700  1.0000
  Li  Li3       1.0  0.33300  0.66700  0.50300  1.0000
  Mn  Mn1       1.0  0.35300  0.00000  0.00018  1.0000
  Mn  Mn2       1.0  0.00000  0.35400  0.00023  1.0000
  Mn  Mn3       1.0  0.64600  0.64600  0.00000  1.0000
