data_image0
_chemical_formula_structural       Rb12Sb4Se12
_chemical_formula_sum              "Rb12 Sb4 Se12"
_cell_length_a       10.3136
_cell_length_b       10.3136
_cell_length_c       10.3136
_cell_angle_alpha    90
_cell_angle_beta     90
_cell_angle_gamma    90

_space_group_name_H-M_alt    "P 1"
_space_group_IT_number       1

loop_
  _space_group_symop_operation_xyz
  'x, y, z'

loop_
  _atom_site_type_symbol
  _atom_site_label
  _atom_site_symmetry_multiplicity
  _atom_site_fract_x
  _atom_site_fract_y
  _atom_site_fract_z
  _atom_site_occupancy
  Rb  Rb1       1.0  0.92500  0.42500  0.07460  1.0000
  Rb  Rb2       1.0  0.68400  0.81600  0.18400  1.0000
  Rb  Rb3       1.0  0.31200  0.68800  0.18800  1.0000
  Rb  Rb4       1.0  0.68800  0.18800  0.31200  1.0000
  Rb  Rb5       1.0  0.31600  0.31600  0.31600  1.0000
  Rb  Rb6       1.0  0.07460  0.92500  0.42500  1.0000
  Rb  Rb7       1.0  0.57500  0.57500  0.57500  1.0000
  Rb  Rb8       1.0  0.81600  0.18400  0.68400  1.0000
  Rb  Rb9       1.0  0.18800  0.31200  0.68800  1.0000
  Rb  Rb10      1.0  0.81200  0.81200  0.81200  1.0000
  Rb  Rb11      1.0  0.18400  0.68400  0.81600  1.0000
  Rb  Rb12      1.0  0.42500  0.07460  0.92500  1.0000
  Sb  Sb1       1.0  0.02740  0.02740  0.02740  1.0000
  Sb  Sb2       1.0  0.97300  0.52700  0.47300  1.0000
  Sb  Sb3       1.0  0.47300  0.97300  0.52700  1.0000
  Sb  Sb4       1.0  0.52700  0.47300  0.97300  1.0000
  Se  Se1       1.0  0.78700  0.10100  0.00491  1.0000
  Se  Se2       1.0  0.00491  0.78700  0.10100  1.0000
  Se  Se3       1.0  0.60100  0.49500  0.21300  1.0000
  Se  Se4       1.0  0.39900  0.99500  0.28700  1.0000
  Se  Se5       1.0  0.99500  0.28700  0.39900  1.0000
  Se  Se6       1.0  0.21300  0.60100  0.49500  1.0000
  Se  Se7       1.0  0.71300  0.89900  0.50500  1.0000
  Se  Se8       1.0  0.49500  0.21300  0.60100  1.0000
  Se  Se9       1.0  0.89900  0.50500  0.71300  1.0000
  Se  Se10      1.0  0.10100  0.00491  0.78700  1.0000
  Se  Se11      1.0  0.50500  0.71300  0.89900  1.0000
  Se  Se12      1.0  0.28700  0.39900  0.99500  1.0000
