data_image0
_chemical_formula_structural       K12Sb4Se12
_chemical_formula_sum              "K12 Sb4 Se12"
_cell_length_a       9.94657
_cell_length_b       9.94657
_cell_length_c       9.94657
_cell_angle_alpha    90
_cell_angle_beta     90
_cell_angle_gamma    90

_space_group_name_H-M_alt    "P 1"
_space_group_IT_number       1

loop_
  _space_group_symop_operation_xyz
  'x, y, z'

loop_
  _atom_site_type_symbol
  _atom_site_label
  _atom_site_symmetry_multiplicity
  _atom_site_fract_x
  _atom_site_fract_y
  _atom_site_fract_z
  _atom_site_occupancy
  K   K1        1.0  0.92400  0.42400  0.07580  1.0000
  K   K2        1.0  0.68200  0.81800  0.18200  1.0000
  K   K3        1.0  0.31300  0.68700  0.18700  1.0000
  K   K4        1.0  0.68700  0.18700  0.31300  1.0000
  K   K5        1.0  0.31800  0.31800  0.31800  1.0000
  K   K6        1.0  0.07580  0.92400  0.42400  1.0000
  K   K7        1.0  0.57600  0.57600  0.57600  1.0000
  K   K8        1.0  0.81800  0.18200  0.68200  1.0000
  K   K9        1.0  0.18700  0.31300  0.68700  1.0000
  K   K10       1.0  0.81300  0.81300  0.81300  1.0000
  K   K11       1.0  0.18200  0.68200  0.81800  1.0000
  K   K12       1.0  0.42400  0.07580  0.92400  1.0000
  Sb  Sb1       1.0  0.02910  0.02910  0.02910  1.0000
  Sb  Sb2       1.0  0.97100  0.52900  0.47100  1.0000
  Sb  Sb3       1.0  0.47100  0.97100  0.52900  1.0000
  Sb  Sb4       1.0  0.52900  0.47100  0.97100  1.0000
  Se  Se1       1.0  0.78000  0.10500  0.00346  1.0000
  Se  Se2       1.0  0.00346  0.78000  0.10500  1.0000
  Se  Se3       1.0  0.60500  0.49700  0.22000  1.0000
  Se  Se4       1.0  0.39500  0.99700  0.28000  1.0000
  Se  Se5       1.0  0.99700  0.28000  0.39500  1.0000
  Se  Se6       1.0  0.22000  0.60500  0.49700  1.0000
  Se  Se7       1.0  0.72000  0.89500  0.50300  1.0000
  Se  Se8       1.0  0.49700  0.22000  0.60500  1.0000
  Se  Se9       1.0  0.89500  0.50300  0.72000  1.0000
  Se  Se10      1.0  0.10500  0.00346  0.78000  1.0000
  Se  Se11      1.0  0.50300  0.72000  0.89500  1.0000
  Se  Se12      1.0  0.28000  0.39500  0.99700  1.0000
