data_image0
_chemical_formula_structural       Ce6Pd12Sb10
_chemical_formula_sum              "Ce6 Pd12 Sb10"
_cell_length_a       13.6018
_cell_length_b       4.506
_cell_length_c       10.1892
_cell_angle_alpha    90
_cell_angle_beta     90
_cell_angle_gamma    90

_space_group_name_H-M_alt    "P 1"
_space_group_IT_number       1

loop_
  _space_group_symop_operation_xyz
  'x, y, z'

loop_
  _atom_site_type_symbol
  _atom_site_label
  _atom_site_symmetry_multiplicity
  _atom_site_fract_x
  _atom_site_fract_y
  _atom_site_fract_z
  _atom_site_occupancy
  Ce  Ce1       1.0  0.75000  0.75000  0.24300  1.0000
  Ce  Ce2       1.0  0.07520  0.75000  0.24600  1.0000
  Ce  Ce3       1.0  0.42500  0.75000  0.24600  1.0000
  Ce  Ce4       1.0  0.57500  0.25000  0.75400  1.0000
  Ce  Ce5       1.0  0.92500  0.25000  0.75400  1.0000
  Ce  Ce6       1.0  0.25000  0.25000  0.75700  1.0000
  Pd  Pd1       1.0  0.08940  0.25000  0.00791  1.0000
  Pd  Pd2       1.0  0.41100  0.25000  0.00791  1.0000
  Pd  Pd3       1.0  0.25000  0.75000  0.01580  1.0000
  Pd  Pd4       1.0  0.56800  0.25000  0.39600  1.0000
  Pd  Pd5       1.0  0.93200  0.25000  0.39600  1.0000
  Pd  Pd6       1.0  0.25000  0.75000  0.47700  1.0000
  Pd  Pd7       1.0  0.75000  0.25000  0.52300  1.0000
  Pd  Pd8       1.0  0.06760  0.75000  0.60400  1.0000
  Pd  Pd9       1.0  0.43200  0.75000  0.60400  1.0000
  Pd  Pd10      1.0  0.75000  0.25000  0.98400  1.0000
  Pd  Pd11      1.0  0.58900  0.75000  0.99200  1.0000
  Pd  Pd12      1.0  0.91100  0.75000  0.99200  1.0000
  Sb  Sb1       1.0  0.58600  0.25000  0.13700  1.0000
  Sb  Sb2       1.0  0.91400  0.25000  0.13700  1.0000
  Sb  Sb3       1.0  0.25000  0.25000  0.16900  1.0000
  Sb  Sb4       1.0  0.12400  0.25000  0.47700  1.0000
  Sb  Sb5       1.0  0.37600  0.25000  0.47700  1.0000
  Sb  Sb6       1.0  0.62400  0.75000  0.52300  1.0000
  Sb  Sb7       1.0  0.87600  0.75000  0.52300  1.0000
  Sb  Sb8       1.0  0.75000  0.75000  0.83100  1.0000
  Sb  Sb9       1.0  0.08630  0.75000  0.86300  1.0000
  Sb  Sb10      1.0  0.41400  0.75000  0.86300  1.0000
