data_image0
_chemical_formula_structural       Gd4Ge4Na4O16
_chemical_formula_sum              "Gd4 Ge4 Na4 O16"
_cell_length_a       11.4995
_cell_length_b       6.48046
_cell_length_c       5.28095
_cell_angle_alpha    90
_cell_angle_beta     90
_cell_angle_gamma    90

_space_group_name_H-M_alt    "P 1"
_space_group_IT_number       1

loop_
  _space_group_symop_operation_xyz
  'x, y, z'

loop_
  _atom_site_type_symbol
  _atom_site_label
  _atom_site_symmetry_multiplicity
  _atom_site_fract_x
  _atom_site_fract_y
  _atom_site_fract_z
  _atom_site_occupancy
  Gd  Gd1       1.0  0.72200  0.75000  0.00248  1.0000
  Gd  Gd2       1.0  0.22200  0.75000  0.49800  1.0000
  Gd  Gd3       1.0  0.77800  0.25000  0.50200  1.0000
  Gd  Gd4       1.0  0.27800  0.25000  0.99800  1.0000
  Ge  Ge1       1.0  0.40400  0.75000  0.05770  1.0000
  Ge  Ge2       1.0  0.90400  0.75000  0.44200  1.0000
  Ge  Ge3       1.0  0.09580  0.25000  0.55800  1.0000
  Ge  Ge4       1.0  0.59600  0.25000  0.94200  1.0000
  Na  Na1       1.0  0.00000  0.00000  0.00000  1.0000
  Na  Na2       1.0  0.00000  0.50000  0.00000  1.0000
  Na  Na3       1.0  0.50000  0.00000  0.50000  1.0000
  Na  Na4       1.0  0.50000  0.50000  0.50000  1.0000
  O   O1        1.0  0.54600  0.75000  0.18300  1.0000
  O   O2        1.0  0.32800  0.54200  0.21200  1.0000
  O   O3        1.0  0.32800  0.95800  0.21200  1.0000
  O   O4        1.0  0.10800  0.25000  0.23000  1.0000
  O   O5        1.0  0.60800  0.25000  0.27000  1.0000
  O   O6        1.0  0.82800  0.54200  0.28800  1.0000
  O   O7        1.0  0.82800  0.95800  0.28800  1.0000
  O   O8        1.0  0.04560  0.75000  0.31700  1.0000
  O   O9        1.0  0.95400  0.25000  0.68300  1.0000
  O   O10       1.0  0.17200  0.04170  0.71200  1.0000
  O   O11       1.0  0.17200  0.45800  0.71200  1.0000
  O   O12       1.0  0.39200  0.75000  0.73000  1.0000
  O   O13       1.0  0.89200  0.75000  0.77000  1.0000
  O   O14       1.0  0.67200  0.04170  0.78800  1.0000
  O   O15       1.0  0.67200  0.45800  0.78800  1.0000
  O   O16       1.0  0.45400  0.25000  0.81700  1.0000
