data_image0
_chemical_formula_structural       Mn8Se16Si4
_chemical_formula_sum              "Mn8 Se16 Si4"
_cell_length_a       13.3401
_cell_length_b       7.79723
_cell_length_c       6.25613
_cell_angle_alpha    90
_cell_angle_beta     90
_cell_angle_gamma    90

_space_group_name_H-M_alt    "P 1"
_space_group_IT_number       1

loop_
  _space_group_symop_operation_xyz
  'x, y, z'

loop_
  _atom_site_type_symbol
  _atom_site_label
  _atom_site_symmetry_multiplicity
  _atom_site_fract_x
  _atom_site_fract_y
  _atom_site_fract_z
  _atom_site_occupancy
  Mn  Mn1       1.0  0.00000  0.00000  0.00000  1.0000
  Mn  Mn2       1.0  0.00000  0.50000  0.00000  1.0000
  Mn  Mn3       1.0  0.26800  0.75000  0.00790  1.0000
  Mn  Mn4       1.0  0.76800  0.75000  0.49200  1.0000
  Mn  Mn5       1.0  0.50000  0.00000  0.50000  1.0000
  Mn  Mn6       1.0  0.50000  0.50000  0.50000  1.0000
  Mn  Mn7       1.0  0.23200  0.25000  0.50800  1.0000
  Mn  Mn8       1.0  0.73200  0.25000  0.99200  1.0000
  Se  Se1       1.0  0.09280  0.75000  0.22900  1.0000
  Se  Se2       1.0  0.57000  0.25000  0.24400  1.0000
  Se  Se3       1.0  0.83100  0.01890  0.24600  1.0000
  Se  Se4       1.0  0.83100  0.48100  0.24600  1.0000
  Se  Se5       1.0  0.33100  0.01890  0.25400  1.0000
  Se  Se6       1.0  0.33100  0.48100  0.25400  1.0000
  Se  Se7       1.0  0.06950  0.25000  0.25600  1.0000
  Se  Se8       1.0  0.59300  0.75000  0.27100  1.0000
  Se  Se9       1.0  0.40700  0.25000  0.72900  1.0000
  Se  Se10      1.0  0.93000  0.75000  0.74400  1.0000
  Se  Se11      1.0  0.66900  0.51900  0.74600  1.0000
  Se  Se12      1.0  0.66900  0.98100  0.74600  1.0000
  Se  Se13      1.0  0.16900  0.51900  0.75400  1.0000
  Se  Se14      1.0  0.16900  0.98100  0.75400  1.0000
  Se  Se15      1.0  0.43000  0.75000  0.75600  1.0000
  Se  Se16      1.0  0.90700  0.25000  0.77100  1.0000
  Si  Si1       1.0  0.41100  0.25000  0.09430  1.0000
  Si  Si2       1.0  0.91100  0.25000  0.40600  1.0000
  Si  Si3       1.0  0.08930  0.75000  0.59400  1.0000
  Si  Si4       1.0  0.58900  0.75000  0.90600  1.0000
