data_image0
_chemical_formula_structural       Ag2C4Cl4F12N4Sb2
_chemical_formula_sum              "Ag2 C4 Cl4 F12 N4 Sb2"
_cell_length_a       7.59999
_cell_length_b       8.42969
_cell_length_c       7.38558
_cell_angle_alpha    90
_cell_angle_beta     101.148
_cell_angle_gamma    90

_space_group_name_H-M_alt    "P 1"
_space_group_IT_number       1

loop_
  _space_group_symop_operation_xyz
  'x, y, z'

loop_
  _atom_site_type_symbol
  _atom_site_label
  _atom_site_symmetry_multiplicity
  _atom_site_fract_x
  _atom_site_fract_y
  _atom_site_fract_z
  _atom_site_occupancy
  Ag  Ag1       1.0  0.00000  0.00000  0.00000  1.0000
  Ag  Ag2       1.0  0.50000  0.00000  0.50000  1.0000
  C   C1        1.0  0.62500  0.16100  0.01220  1.0000
  C   C2        1.0  0.87500  0.16100  0.48800  1.0000
  C   C3        1.0  0.12500  0.83900  0.51200  1.0000
  C   C4        1.0  0.37500  0.83900  0.98800  1.0000
  Cl  Cl1       1.0  0.56400  0.75200  0.02500  1.0000
  Cl  Cl2       1.0  0.93600  0.75200  0.47500  1.0000
  Cl  Cl3       1.0  0.06400  0.24800  0.52500  1.0000
  Cl  Cl4       1.0  0.43600  0.24800  0.97500  1.0000
  F   F1        1.0  0.90300  0.71200  0.00736  1.0000
  F   F2        1.0  0.23600  0.57700  0.08100  1.0000
  F   F3        1.0  0.95600  0.46300  0.24200  1.0000
  F   F4        1.0  0.54400  0.46300  0.25800  1.0000
  F   F5        1.0  0.26400  0.57700  0.41900  1.0000
  F   F6        1.0  0.59700  0.71200  0.49300  1.0000
  F   F7        1.0  0.40300  0.28800  0.50700  1.0000
  F   F8        1.0  0.73600  0.42300  0.58100  1.0000
  F   F9        1.0  0.45600  0.53700  0.74200  1.0000
  F   F10       1.0  0.04350  0.53700  0.75800  1.0000
  F   F11       1.0  0.76400  0.42300  0.91900  1.0000
  F   F12       1.0  0.09660  0.28800  0.99300  1.0000
  N   N1        1.0  0.75800  0.08940  0.04220  1.0000
  N   N2        1.0  0.74200  0.08940  0.45800  1.0000
  N   N3        1.0  0.25800  0.91100  0.54200  1.0000
  N   N4        1.0  0.24200  0.91100  0.95800  1.0000
  Sb  Sb1       1.0  0.00000  0.50000  0.00000  1.0000
  Sb  Sb2       1.0  0.50000  0.50000  0.50000  1.0000
