data_image0
_chemical_formula_structural       Cr4Cs4Li4O16
_chemical_formula_sum              "Cr4 Cs4 Li4 O16"
_cell_length_a       9.63673
_cell_length_b       5.58249
_cell_length_c       8.84891
_cell_angle_alpha    90
_cell_angle_beta     90
_cell_angle_gamma    90.5093

_space_group_name_H-M_alt    "P 1"
_space_group_IT_number       1

loop_
  _space_group_symop_operation_xyz
  'x, y, z'

loop_
  _atom_site_type_symbol
  _atom_site_label
  _atom_site_symmetry_multiplicity
  _atom_site_fract_x
  _atom_site_fract_y
  _atom_site_fract_z
  _atom_site_occupancy
  Cr  Cr1       1.0  0.42700  0.23700  0.21400  1.0000
  Cr  Cr2       1.0  0.92700  0.73700  0.28600  1.0000
  Cr  Cr3       1.0  0.07330  0.26300  0.71400  1.0000
  Cr  Cr4       1.0  0.57300  0.76300  0.78600  1.0000
  Cs  Cs1       1.0  0.77300  0.22900  0.00013  1.0000
  Cs  Cs2       1.0  0.27300  0.72900  0.50000  1.0000
  Cs  Cs3       1.0  0.72700  0.27100  0.50000  1.0000
  Cs  Cs4       1.0  0.22700  0.77100  0.00000  1.0000
  Li  Li1       1.0  0.58500  0.73700  0.19000  1.0000
  Li  Li2       1.0  0.08530  0.23700  0.31000  1.0000
  Li  Li3       1.0  0.91500  0.76300  0.69000  1.0000
  Li  Li4       1.0  0.41500  0.26300  0.81000  1.0000
  O   O1        1.0  0.42700  0.25000  0.02720  1.0000
  O   O2        1.0  0.96200  0.00651  0.21500  1.0000
  O   O3        1.0  0.77200  0.64000  0.22800  1.0000
  O   O4        1.0  0.04760  0.54800  0.22800  1.0000
  O   O5        1.0  0.54800  0.04790  0.27200  1.0000
  O   O6        1.0  0.27200  0.14000  0.27200  1.0000
  O   O7        1.0  0.46200  0.50700  0.28500  1.0000
  O   O8        1.0  0.92700  0.75000  0.47300  1.0000
  O   O9        1.0  0.07260  0.25000  0.52700  1.0000
  O   O10       1.0  0.53800  0.49300  0.71500  1.0000
  O   O11       1.0  0.72800  0.86000  0.72800  1.0000
  O   O12       1.0  0.45200  0.95200  0.72800  1.0000
  O   O13       1.0  0.95200  0.45200  0.77200  1.0000
  O   O14       1.0  0.22800  0.36000  0.77200  1.0000
  O   O15       1.0  0.03780  0.99300  0.78500  1.0000
  O   O16       1.0  0.57300  0.75000  0.97300  1.0000
