data_image0
_chemical_formula_structural       Li4O16P4Zn4
_chemical_formula_sum              "Li4 O16 P4 Zn4"
_cell_length_a       9.96081
_cell_length_b       6.63406
_cell_length_c       4.94773
_cell_angle_alpha    90
_cell_angle_beta     90
_cell_angle_gamma    90

_space_group_name_H-M_alt    "P 1"
_space_group_IT_number       1

loop_
  _space_group_symop_operation_xyz
  'x, y, z'

loop_
  _atom_site_type_symbol
  _atom_site_label
  _atom_site_symmetry_multiplicity
  _atom_site_fract_x
  _atom_site_fract_y
  _atom_site_fract_z
  _atom_site_occupancy
  Li  Li1       1.0  0.34500  0.71300  0.18300  1.0000
  Li  Li2       1.0  0.84500  0.71300  0.31700  1.0000
  Li  Li3       1.0  0.15500  0.21300  0.68300  1.0000
  Li  Li4       1.0  0.65500  0.21300  0.81700  1.0000
  O   O1        1.0  0.88800  0.46400  0.13100  1.0000
  O   O2        1.0  0.65700  0.15600  0.20200  1.0000
  O   O3        1.0  0.65900  0.76900  0.20800  1.0000
  O   O4        1.0  0.44100  0.96200  0.24400  1.0000
  O   O5        1.0  0.94100  0.96200  0.25600  1.0000
  O   O6        1.0  0.15900  0.76900  0.29200  1.0000
  O   O7        1.0  0.15700  0.15600  0.29800  1.0000
  O   O8        1.0  0.38800  0.46400  0.36900  1.0000
  O   O9        1.0  0.61200  0.96400  0.63100  1.0000
  O   O10       1.0  0.84300  0.65600  0.70200  1.0000
  O   O11       1.0  0.84100  0.26900  0.70800  1.0000
  O   O12       1.0  0.05870  0.46200  0.74400  1.0000
  O   O13       1.0  0.55900  0.46200  0.75600  1.0000
  O   O14       1.0  0.34100  0.26900  0.79200  1.0000
  O   O15       1.0  0.34300  0.65600  0.79800  1.0000
  O   O16       1.0  0.11200  0.96400  0.86900  1.0000
  P   P1        1.0  0.09170  0.96300  0.18000  1.0000
  P   P2        1.0  0.59200  0.96300  0.32000  1.0000
  P   P3        1.0  0.40800  0.46300  0.68000  1.0000
  P   P4        1.0  0.90800  0.46300  0.82000  1.0000
  Zn  Zn1       1.0  0.34400  0.21400  0.18200  1.0000
  Zn  Zn2       1.0  0.84400  0.21400  0.31800  1.0000
  Zn  Zn3       1.0  0.15600  0.71400  0.68200  1.0000
  Zn  Zn4       1.0  0.65600  0.71400  0.81800  1.0000
