data_image0
_chemical_formula_structural       Ba2F4Fe4O14P4
_chemical_formula_sum              "Ba2 F4 Fe4 O14 P4"
_cell_length_a       6.84786
_cell_length_b       11.7808
_cell_length_c       4.55161
_cell_angle_alpha    90
_cell_angle_beta     90
_cell_angle_gamma    90

_space_group_name_H-M_alt    "P 1"
_space_group_IT_number       1

loop_
  _space_group_symop_operation_xyz
  'x, y, z'

loop_
  _atom_site_type_symbol
  _atom_site_label
  _atom_site_symmetry_multiplicity
  _atom_site_fract_x
  _atom_site_fract_y
  _atom_site_fract_z
  _atom_site_occupancy
  Ba  Ba1       1.0  0.25000  0.75000  0.39000  1.0000
  Ba  Ba2       1.0  0.75000  0.25000  0.61000  1.0000
  F   F1        1.0  0.75000  0.11500  0.13500  1.0000
  F   F2        1.0  0.75000  0.38500  0.13500  1.0000
  F   F3        1.0  0.25000  0.61500  0.86500  1.0000
  F   F4        1.0  0.25000  0.88500  0.86500  1.0000
  Fe  Fe1       1.0  0.00000  0.00000  0.00000  1.0000
  Fe  Fe2       1.0  0.50000  0.00000  0.00000  1.0000
  Fe  Fe3       1.0  0.00000  0.50000  0.00000  1.0000
  Fe  Fe4       1.0  0.50000  0.50000  0.00000  1.0000
  O   O1        1.0  0.25000  0.04580  0.24800  1.0000
  O   O2        1.0  0.25000  0.45400  0.24800  1.0000
  O   O3        1.0  0.56400  0.61800  0.30800  1.0000
  O   O4        1.0  0.93600  0.61800  0.30800  1.0000
  O   O5        1.0  0.56400  0.88200  0.30800  1.0000
  O   O6        1.0  0.93600  0.88200  0.30800  1.0000
  O   O7        1.0  0.25000  0.25000  0.35800  1.0000
  O   O8        1.0  0.75000  0.75000  0.64200  1.0000
  O   O9        1.0  0.06370  0.11800  0.69200  1.0000
  O   O10       1.0  0.43600  0.11800  0.69200  1.0000
  O   O11       1.0  0.06370  0.38200  0.69200  1.0000
  O   O12       1.0  0.43600  0.38200  0.69200  1.0000
  O   O13       1.0  0.75000  0.54600  0.75200  1.0000
  O   O14       1.0  0.75000  0.95400  0.75200  1.0000
  P   P1        1.0  0.75000  0.62600  0.48900  1.0000
  P   P2        1.0  0.75000  0.87400  0.48900  1.0000
  P   P3        1.0  0.25000  0.12600  0.51100  1.0000
  P   P4        1.0  0.25000  0.37400  0.51100  1.0000
