data_image0
_chemical_formula_structural       Ba4Ho8Te16
_chemical_formula_sum              "Ba4 Ho8 Te16"
_cell_length_a       13.7633
_cell_length_b       4.47054
_cell_length_c       16.246
_cell_angle_alpha    90
_cell_angle_beta     90
_cell_angle_gamma    90

_space_group_name_H-M_alt    "P 1"
_space_group_IT_number       1

loop_
  _space_group_symop_operation_xyz
  'x, y, z'

loop_
  _atom_site_type_symbol
  _atom_site_label
  _atom_site_symmetry_multiplicity
  _atom_site_fract_x
  _atom_site_fract_y
  _atom_site_fract_z
  _atom_site_occupancy
  Ba  Ba1       1.0  0.26100  0.75000  0.17000  1.0000
  Ba  Ba2       1.0  0.76100  0.75000  0.33000  1.0000
  Ba  Ba3       1.0  0.23900  0.25000  0.67000  1.0000
  Ba  Ba4       1.0  0.73900  0.25000  0.83000  1.0000
  Ho  Ho1       1.0  0.58100  0.25000  0.09650  1.0000
  Ho  Ho2       1.0  0.94100  0.75000  0.11000  1.0000
  Ho  Ho3       1.0  0.44100  0.75000  0.39000  1.0000
  Ho  Ho4       1.0  0.08070  0.25000  0.40400  1.0000
  Ho  Ho5       1.0  0.91900  0.75000  0.59600  1.0000
  Ho  Ho6       1.0  0.55900  0.25000  0.61000  1.0000
  Ho  Ho7       1.0  0.05920  0.25000  0.89000  1.0000
  Ho  Ho8       1.0  0.41900  0.75000  0.90400  1.0000
  Te  Te1       1.0  0.37300  0.25000  0.02830  1.0000
  Te  Te2       1.0  0.09000  0.25000  0.07620  1.0000
  Te  Te3       1.0  0.79500  0.25000  0.16000  1.0000
  Te  Te4       1.0  0.52700  0.75000  0.21600  1.0000
  Te  Te5       1.0  0.02720  0.75000  0.28400  1.0000
  Te  Te6       1.0  0.29500  0.25000  0.34000  1.0000
  Te  Te7       1.0  0.59000  0.25000  0.42400  1.0000
  Te  Te8       1.0  0.87300  0.25000  0.47200  1.0000
  Te  Te9       1.0  0.12700  0.75000  0.52800  1.0000
  Te  Te10      1.0  0.41000  0.75000  0.57600  1.0000
  Te  Te11      1.0  0.70500  0.75000  0.66000  1.0000
  Te  Te12      1.0  0.97300  0.25000  0.71600  1.0000
  Te  Te13      1.0  0.47300  0.25000  0.78400  1.0000
  Te  Te14      1.0  0.20500  0.75000  0.84000  1.0000
  Te  Te15      1.0  0.91000  0.75000  0.92400  1.0000
  Te  Te16      1.0  0.62700  0.75000  0.97200  1.0000
