data_image0
_chemical_formula_structural       Cl8Hg8O8Sr4
_chemical_formula_sum              "Cl8 Hg8 O8 Sr4"
_cell_length_a       10.0456
_cell_length_b       7.07849
_cell_length_c       8.37467
_cell_angle_alpha    90
_cell_angle_beta     102.413
_cell_angle_gamma    90

_space_group_name_H-M_alt    "P 1"
_space_group_IT_number       1

loop_
  _space_group_symop_operation_xyz
  'x, y, z'

loop_
  _atom_site_type_symbol
  _atom_site_label
  _atom_site_symmetry_multiplicity
  _atom_site_fract_x
  _atom_site_fract_y
  _atom_site_fract_z
  _atom_site_occupancy
  Cl  Cl1       1.0  0.62700  0.67800  0.03360  1.0000
  Cl  Cl2       1.0  0.11500  0.10000  0.15900  1.0000
  Cl  Cl3       1.0  0.38500  0.60000  0.34100  1.0000
  Cl  Cl4       1.0  0.87300  0.17800  0.46600  1.0000
  Cl  Cl5       1.0  0.12700  0.82200  0.53400  1.0000
  Cl  Cl6       1.0  0.61500  0.40000  0.65900  1.0000
  Cl  Cl7       1.0  0.88500  0.90000  0.84100  1.0000
  Cl  Cl8       1.0  0.37300  0.32200  0.96600  1.0000
  Hg  Hg1       1.0  0.13300  0.66800  0.02670  1.0000
  Hg  Hg2       1.0  0.39700  0.93600  0.12700  1.0000
  Hg  Hg3       1.0  0.10300  0.43600  0.37300  1.0000
  Hg  Hg4       1.0  0.36700  0.16800  0.47300  1.0000
  Hg  Hg5       1.0  0.63300  0.83200  0.52700  1.0000
  Hg  Hg6       1.0  0.89700  0.56400  0.62700  1.0000
  Hg  Hg7       1.0  0.60300  0.06410  0.87300  1.0000
  Hg  Hg8       1.0  0.86700  0.33200  0.97300  1.0000
  O   O1        1.0  0.72900  0.18000  0.08250  1.0000
  O   O2        1.0  0.99300  0.57800  0.16900  1.0000
  O   O3        1.0  0.50700  0.07760  0.33100  1.0000
  O   O4        1.0  0.77100  0.68000  0.41800  1.0000
  O   O5        1.0  0.22900  0.32000  0.58200  1.0000
  O   O6        1.0  0.49300  0.92200  0.66900  1.0000
  O   O7        1.0  0.00655  0.42200  0.83100  1.0000
  O   O8        1.0  0.27100  0.82000  0.91800  1.0000
  Sr  Sr1       1.0  0.87500  0.87900  0.22300  1.0000
  Sr  Sr2       1.0  0.62500  0.37900  0.27700  1.0000
  Sr  Sr3       1.0  0.37500  0.62100  0.72300  1.0000
  Sr  Sr4       1.0  0.12500  0.12100  0.77700  1.0000
