data_image0
_chemical_formula_structural       Co4O16Te6
_chemical_formula_sum              "Co4 O16 Te6"
_cell_length_a       5.1816
_cell_length_b       6.7961
_cell_length_c       11.5123
_cell_angle_alpha    98.1433
_cell_angle_beta     90
_cell_angle_gamma    112.409

_space_group_name_H-M_alt    "P 1"
_space_group_IT_number       1

loop_
  _space_group_symop_operation_xyz
  'x, y, z'

loop_
  _atom_site_type_symbol
  _atom_site_label
  _atom_site_symmetry_multiplicity
  _atom_site_fract_x
  _atom_site_fract_y
  _atom_site_fract_z
  _atom_site_occupancy
  Co  Co1       1.0  0.57200  0.53900  0.14800  1.0000
  Co  Co2       1.0  0.03260  0.46100  0.35200  1.0000
  Co  Co3       1.0  0.96700  0.53900  0.64800  1.0000
  Co  Co4       1.0  0.42800  0.46100  0.85200  1.0000
  O   O1        1.0  0.25300  0.52900  0.02910  1.0000
  O   O2        1.0  0.24600  0.22600  0.13500  1.0000
  O   O3        1.0  0.85500  0.84000  0.14200  1.0000
  O   O4        1.0  0.82300  0.38500  0.19300  1.0000
  O   O5        1.0  0.43700  0.61500  0.30700  1.0000
  O   O6        1.0  0.01550  0.16000  0.35800  1.0000
  O   O7        1.0  0.01960  0.77400  0.36500  1.0000
  O   O8        1.0  0.72400  0.47100  0.47100  1.0000
  O   O9        1.0  0.27600  0.52900  0.52900  1.0000
  O   O10       1.0  0.98000  0.22600  0.63500  1.0000
  O   O11       1.0  0.98400  0.84000  0.64200  1.0000
  O   O12       1.0  0.56300  0.38500  0.69300  1.0000
  O   O13       1.0  0.17700  0.61500  0.80700  1.0000
  O   O14       1.0  0.14500  0.16000  0.85800  1.0000
  O   O15       1.0  0.75400  0.77400  0.86500  1.0000
  O   O16       1.0  0.74700  0.47100  0.97100  1.0000
  Te  Te1       1.0  0.93600  0.26400  0.05210  1.0000
  Te  Te2       1.0  0.16800  0.00000  0.25000  1.0000
  Te  Te3       1.0  0.67100  0.73600  0.44800  1.0000
  Te  Te4       1.0  0.32900  0.26400  0.55200  1.0000
  Te  Te5       1.0  0.83200  0.00000  0.75000  1.0000
  Te  Te6       1.0  0.06420  0.73600  0.94800  1.0000
