data_image0
_chemical_formula_structural       Fe4K12Se12
_chemical_formula_sum              "Fe4 K12 Se12"
_cell_length_a       8.07521
_cell_length_b       12.9279
_cell_length_c       10.4684
_cell_angle_alpha    90
_cell_angle_beta     127.661
_cell_angle_gamma    90

_space_group_name_H-M_alt    "P 1"
_space_group_IT_number       1

loop_
  _space_group_symop_operation_xyz
  'x, y, z'

loop_
  _atom_site_type_symbol
  _atom_site_label
  _atom_site_symmetry_multiplicity
  _atom_site_fract_x
  _atom_site_fract_y
  _atom_site_fract_z
  _atom_site_occupancy
  Fe  Fe1       1.0  0.05950  0.05640  0.14900  1.0000
  Fe  Fe2       1.0  0.94000  0.55600  0.35100  1.0000
  Fe  Fe3       1.0  0.05950  0.44400  0.64900  1.0000
  Fe  Fe4       1.0  0.94000  0.94400  0.85100  1.0000
  K   K1        1.0  0.38100  0.12800  0.02190  1.0000
  K   K2        1.0  0.87300  0.30700  0.08440  1.0000
  K   K3        1.0  0.34900  0.42200  0.10100  1.0000
  K   K4        1.0  0.65100  0.92200  0.39900  1.0000
  K   K5        1.0  0.12700  0.80700  0.41600  1.0000
  K   K6        1.0  0.61900  0.62800  0.47800  1.0000
  K   K7        1.0  0.38100  0.37200  0.52200  1.0000
  K   K8        1.0  0.87300  0.19300  0.58400  1.0000
  K   K9        1.0  0.34900  0.07810  0.60100  1.0000
  K   K10       1.0  0.65100  0.57800  0.89900  1.0000
  K   K11       1.0  0.12700  0.69300  0.91600  1.0000
  K   K12       1.0  0.61900  0.87200  0.97800  1.0000
  Se  Se1       1.0  0.15300  0.88600  0.12700  1.0000
  Se  Se2       1.0  0.65000  0.67200  0.19300  1.0000
  Se  Se3       1.0  0.12500  0.54800  0.24200  1.0000
  Se  Se4       1.0  0.87500  0.04770  0.25800  1.0000
  Se  Se5       1.0  0.35000  0.17200  0.30700  1.0000
  Se  Se6       1.0  0.84700  0.38600  0.37300  1.0000
  Se  Se7       1.0  0.15300  0.61400  0.62700  1.0000
  Se  Se8       1.0  0.65000  0.82800  0.69300  1.0000
  Se  Se9       1.0  0.12500  0.95200  0.74200  1.0000
  Se  Se10      1.0  0.87500  0.45200  0.75800  1.0000
  Se  Se11      1.0  0.35000  0.32800  0.80700  1.0000
  Se  Se12      1.0  0.84700  0.11400  0.87300  1.0000
