data_image0
_chemical_formula_structural       Ba4Sm8Te16
_chemical_formula_sum              "Ba4 Sm8 Te16"
_cell_length_a       13.8677
_cell_length_b       4.56205
_cell_length_c       16.5476
_cell_angle_alpha    90
_cell_angle_beta     90
_cell_angle_gamma    90

_space_group_name_H-M_alt    "P 1"
_space_group_IT_number       1

loop_
  _space_group_symop_operation_xyz
  'x, y, z'

loop_
  _atom_site_type_symbol
  _atom_site_label
  _atom_site_symmetry_multiplicity
  _atom_site_fract_x
  _atom_site_fract_y
  _atom_site_fract_z
  _atom_site_occupancy
  Ba  Ba1       1.0  0.25900  0.75000  0.16700  1.0000
  Ba  Ba2       1.0  0.75900  0.75000  0.33300  1.0000
  Ba  Ba3       1.0  0.24100  0.25000  0.66700  1.0000
  Ba  Ba4       1.0  0.74100  0.25000  0.83300  1.0000
  Sm  Sm1       1.0  0.57900  0.25000  0.09760  1.0000
  Sm  Sm2       1.0  0.93400  0.75000  0.10900  1.0000
  Sm  Sm3       1.0  0.43400  0.75000  0.39100  1.0000
  Sm  Sm4       1.0  0.07870  0.25000  0.40200  1.0000
  Sm  Sm5       1.0  0.92100  0.75000  0.59800  1.0000
  Sm  Sm6       1.0  0.56600  0.25000  0.60900  1.0000
  Sm  Sm7       1.0  0.06560  0.25000  0.89100  1.0000
  Sm  Sm8       1.0  0.42100  0.75000  0.90200  1.0000
  Te  Te1       1.0  0.36800  0.25000  0.02740  1.0000
  Te  Te2       1.0  0.08750  0.25000  0.07920  1.0000
  Te  Te3       1.0  0.79300  0.25000  0.16800  1.0000
  Te  Te4       1.0  0.52400  0.75000  0.21700  1.0000
  Te  Te5       1.0  0.02350  0.75000  0.28300  1.0000
  Te  Te6       1.0  0.29300  0.25000  0.33200  1.0000
  Te  Te7       1.0  0.58700  0.25000  0.42100  1.0000
  Te  Te8       1.0  0.86800  0.25000  0.47300  1.0000
  Te  Te9       1.0  0.13200  0.75000  0.52700  1.0000
  Te  Te10      1.0  0.41300  0.75000  0.57900  1.0000
  Te  Te11      1.0  0.70700  0.75000  0.66800  1.0000
  Te  Te12      1.0  0.97600  0.25000  0.71700  1.0000
  Te  Te13      1.0  0.47600  0.25000  0.78300  1.0000
  Te  Te14      1.0  0.20700  0.75000  0.83200  1.0000
  Te  Te15      1.0  0.91300  0.75000  0.92100  1.0000
  Te  Te16      1.0  0.63200  0.75000  0.97300  1.0000
