data_image0
_chemical_formula_structural       Li2Mo4O16Tl6
_chemical_formula_sum              "Li2 Mo4 O16 Tl6"
_cell_length_a       5.98129
_cell_length_b       5.98121
_cell_length_c       15.6439
_cell_angle_alpha    90
_cell_angle_beta     90
_cell_angle_gamma    120

_space_group_name_H-M_alt    "P 1"
_space_group_IT_number       1

loop_
  _space_group_symop_operation_xyz
  'x, y, z'

loop_
  _atom_site_type_symbol
  _atom_site_label
  _atom_site_symmetry_multiplicity
  _atom_site_fract_x
  _atom_site_fract_y
  _atom_site_fract_z
  _atom_site_occupancy
  Li  Li1       1.0  0.66700  0.33300  0.39900  1.0000
  Li  Li2       1.0  0.33300  0.66700  0.89900  1.0000
  Mo  Mo1       1.0  0.66700  0.33300  0.16900  1.0000
  Mo  Mo2       1.0  0.33300  0.66700  0.39900  1.0000
  Mo  Mo3       1.0  0.33300  0.66700  0.66900  1.0000
  Mo  Mo4       1.0  0.66700  0.33300  0.89900  1.0000
  O   O1        1.0  0.83200  0.66300  0.13300  1.0000
  O   O2        1.0  0.33700  0.16800  0.13300  1.0000
  O   O3        1.0  0.83200  0.16800  0.13300  1.0000
  O   O4        1.0  0.66700  0.33300  0.28100  1.0000
  O   O5        1.0  0.33300  0.66700  0.28500  1.0000
  O   O6        1.0  0.49400  0.98900  0.44100  1.0000
  O   O7        1.0  0.01100  0.50600  0.44100  1.0000
  O   O8        1.0  0.49400  0.50600  0.44100  1.0000
  O   O9        1.0  0.16800  0.33700  0.63300  1.0000
  O   O10       1.0  0.16800  0.83200  0.63300  1.0000
  O   O11       1.0  0.66300  0.83200  0.63300  1.0000
  O   O12       1.0  0.33300  0.66700  0.78100  1.0000
  O   O13       1.0  0.66700  0.33300  0.78500  1.0000
  O   O14       1.0  0.50600  0.01100  0.94100  1.0000
  O   O15       1.0  0.50600  0.49400  0.94100  1.0000
  O   O16       1.0  0.98900  0.49400  0.94100  1.0000
  Tl  Tl1       1.0  0.33300  0.66700  0.09890  1.0000
  Tl  Tl2       1.0  0.00000  0.00000  0.25900  1.0000
  Tl  Tl3       1.0  0.00000  0.00000  0.49800  1.0000
  Tl  Tl4       1.0  0.66700  0.33300  0.59900  1.0000
  Tl  Tl5       1.0  0.00000  0.00000  0.75900  1.0000
  Tl  Tl6       1.0  0.00000  0.00000  0.99800  1.0000
