data_image0
_chemical_formula_structural       F4O16S4Y4
_chemical_formula_sum              "F4 O16 S4 Y4"
_cell_length_a       8.27176
_cell_length_b       6.88627
_cell_length_c       6.35607
_cell_angle_alpha    90
_cell_angle_beta     90
_cell_angle_gamma    90

_space_group_name_H-M_alt    "P 1"
_space_group_IT_number       1

loop_
  _space_group_symop_operation_xyz
  'x, y, z'

loop_
  _atom_site_type_symbol
  _atom_site_label
  _atom_site_symmetry_multiplicity
  _atom_site_fract_x
  _atom_site_fract_y
  _atom_site_fract_z
  _atom_site_occupancy
  F   F1        1.0  0.20600  0.25000  0.19900  1.0000
  F   F2        1.0  0.70600  0.25000  0.30100  1.0000
  F   F3        1.0  0.29400  0.75000  0.69900  1.0000
  F   F4        1.0  0.79400  0.75000  0.80100  1.0000
  O   O1        1.0  0.52200  0.75000  0.01170  1.0000
  O   O2        1.0  0.23900  0.75000  0.11900  1.0000
  O   O3        1.0  0.93800  0.58000  0.17200  1.0000
  O   O4        1.0  0.93800  0.92000  0.17200  1.0000
  O   O5        1.0  0.43800  0.58000  0.32800  1.0000
  O   O6        1.0  0.43800  0.92000  0.32800  1.0000
  O   O7        1.0  0.73900  0.75000  0.38100  1.0000
  O   O8        1.0  0.02230  0.75000  0.48800  1.0000
  O   O9        1.0  0.97800  0.25000  0.51200  1.0000
  O   O10       1.0  0.26100  0.25000  0.61900  1.0000
  O   O11       1.0  0.56200  0.08040  0.67200  1.0000
  O   O12       1.0  0.56200  0.42000  0.67200  1.0000
  O   O13       1.0  0.06180  0.08040  0.82800  1.0000
  O   O14       1.0  0.06180  0.42000  0.82800  1.0000
  O   O15       1.0  0.76100  0.25000  0.88100  1.0000
  O   O16       1.0  0.47800  0.25000  0.98800  1.0000
  S   S1        1.0  0.40700  0.75000  0.18600  1.0000
  S   S2        1.0  0.90700  0.75000  0.31400  1.0000
  S   S3        1.0  0.09260  0.25000  0.68600  1.0000
  S   S4        1.0  0.59300  0.25000  0.81400  1.0000
  Y   Y1        1.0  0.94600  0.25000  0.15000  1.0000
  Y   Y2        1.0  0.44600  0.25000  0.35000  1.0000
  Y   Y3        1.0  0.55400  0.75000  0.65000  1.0000
  Y   Y4        1.0  0.05370  0.75000  0.85000  1.0000
