data_image0
_chemical_formula_structural       K4O16P4Sr4
_chemical_formula_sum              "K4 O16 P4 Sr4"
_cell_length_a       7.31976
_cell_length_b       5.53855
_cell_length_c       9.58979
_cell_angle_alpha    90
_cell_angle_beta     90
_cell_angle_gamma    90

_space_group_name_H-M_alt    "P 1"
_space_group_IT_number       1

loop_
  _space_group_symop_operation_xyz
  'x, y, z'

loop_
  _atom_site_type_symbol
  _atom_site_label
  _atom_site_symmetry_multiplicity
  _atom_site_fract_x
  _atom_site_fract_y
  _atom_site_fract_z
  _atom_site_occupancy
  K   K1        1.0  0.34100  0.75000  0.08490  1.0000
  K   K2        1.0  0.84100  0.75000  0.41500  1.0000
  K   K3        1.0  0.15900  0.25000  0.58500  1.0000
  K   K4        1.0  0.65900  0.25000  0.91500  1.0000
  O   O1        1.0  0.30700  0.25000  0.06900  1.0000
  O   O2        1.0  0.98300  0.75000  0.07580  1.0000
  O   O3        1.0  0.70600  0.52000  0.16000  1.0000
  O   O4        1.0  0.70600  0.98000  0.16000  1.0000
  O   O5        1.0  0.20600  0.52000  0.34000  1.0000
  O   O6        1.0  0.20600  0.98000  0.34000  1.0000
  O   O7        1.0  0.48300  0.75000  0.42400  1.0000
  O   O8        1.0  0.80700  0.25000  0.43100  1.0000
  O   O9        1.0  0.19300  0.75000  0.56900  1.0000
  O   O10       1.0  0.51700  0.25000  0.57600  1.0000
  O   O11       1.0  0.79400  0.01990  0.66000  1.0000
  O   O12       1.0  0.79400  0.48000  0.66000  1.0000
  O   O13       1.0  0.29400  0.01990  0.84000  1.0000
  O   O14       1.0  0.29400  0.48000  0.84000  1.0000
  O   O15       1.0  0.01710  0.25000  0.92400  1.0000
  O   O16       1.0  0.69300  0.75000  0.93100  1.0000
  P   P1        1.0  0.77100  0.75000  0.08220  1.0000
  P   P2        1.0  0.27100  0.75000  0.41800  1.0000
  P   P3        1.0  0.72900  0.25000  0.58200  1.0000
  P   P4        1.0  0.22900  0.25000  0.91800  1.0000
  Sr  Sr1       1.0  0.99600  0.25000  0.19800  1.0000
  Sr  Sr2       1.0  0.49600  0.25000  0.30200  1.0000
  Sr  Sr3       1.0  0.50400  0.75000  0.69800  1.0000
  Sr  Sr4       1.0  0.00383  0.75000  0.80200  1.0000
