data_image0
_chemical_formula_structural       Au2F22Th4
_chemical_formula_sum              "Au2 F22 Th4"
_cell_length_a       6.19498
_cell_length_b       8.48999
_cell_length_c       8.48999
_cell_angle_alpha    97.6492
_cell_angle_beta     68.6023
_cell_angle_gamma    111.398

_space_group_name_H-M_alt    "P 1"
_space_group_IT_number       1

loop_
  _space_group_symop_operation_xyz
  'x, y, z'

loop_
  _atom_site_type_symbol
  _atom_site_label
  _atom_site_symmetry_multiplicity
  _atom_site_fract_x
  _atom_site_fract_y
  _atom_site_fract_z
  _atom_site_occupancy
  Au  Au1       1.0  0.00000  0.00000  0.00000  1.0000
  Au  Au2       1.0  0.50000  0.00000  0.00000  1.0000
  F   F1        1.0  0.00000  0.50000  0.00000  1.0000
  F   F2        1.0  0.50000  0.50000  0.00000  1.0000
  F   F3        1.0  0.11800  0.24500  0.00860  1.0000
  F   F4        1.0  0.37300  0.75500  0.00860  1.0000
  F   F5        1.0  0.38200  0.00860  0.24500  1.0000
  F   F6        1.0  0.87300  0.99100  0.24500  1.0000
  F   F7        1.0  0.25000  0.30100  0.30100  1.0000
  F   F8        1.0  0.75000  0.30100  0.30100  1.0000
  F   F9        1.0  0.44900  0.69900  0.30100  1.0000
  F   F10       1.0  0.94900  0.69900  0.30100  1.0000
  F   F11       1.0  0.00000  0.00000  0.50000  1.0000
  F   F12       1.0  0.50000  0.00000  0.50000  1.0000
  F   F13       1.0  0.00000  0.50000  0.50000  1.0000
  F   F14       1.0  0.50000  0.50000  0.50000  1.0000
  F   F15       1.0  0.05100  0.30100  0.69900  1.0000
  F   F16       1.0  0.55100  0.30100  0.69900  1.0000
  F   F17       1.0  0.25000  0.69900  0.69900  1.0000
  F   F18       1.0  0.75000  0.69900  0.69900  1.0000
  F   F19       1.0  0.12700  0.00860  0.75500  1.0000
  F   F20       1.0  0.61800  0.99100  0.75500  1.0000
  F   F21       1.0  0.62700  0.24500  0.99100  1.0000
  F   F22       1.0  0.88200  0.75500  0.99100  1.0000
  Th  Th1       1.0  0.14500  0.50000  0.21000  1.0000
  Th  Th2       1.0  0.35500  0.21000  0.50000  1.0000
  Th  Th3       1.0  0.64500  0.79000  0.50000  1.0000
  Th  Th4       1.0  0.85500  0.50000  0.79000  1.0000
