data_image0
_chemical_formula_structural       K6Nd2O16V4
_chemical_formula_sum              "K6 Nd2 O16 V4"
_cell_length_a       7.49081
_cell_length_b       5.89817
_cell_length_c       9.81587
_cell_angle_alpha    90
_cell_angle_beta     90.6117
_cell_angle_gamma    90

_space_group_name_H-M_alt    "P 1"
_space_group_IT_number       1

loop_
  _space_group_symop_operation_xyz
  'x, y, z'

loop_
  _atom_site_type_symbol
  _atom_site_label
  _atom_site_symmetry_multiplicity
  _atom_site_fract_x
  _atom_site_fract_y
  _atom_site_fract_z
  _atom_site_occupancy
  K   K1        1.0  0.86700  0.25000  0.08690  1.0000
  K   K2        1.0  0.99400  0.75000  0.30900  1.0000
  K   K3        1.0  0.31400  0.25000  0.42200  1.0000
  K   K4        1.0  0.68600  0.75000  0.57800  1.0000
  K   K5        1.0  0.00557  0.25000  0.69100  1.0000
  K   K6        1.0  0.13300  0.75000  0.91300  1.0000
  Nd  Nd1       1.0  0.49200  0.75000  0.20600  1.0000
  Nd  Nd2       1.0  0.50800  0.25000  0.79400  1.0000
  O   O1        1.0  0.52800  0.25000  0.04700  1.0000
  O   O2        1.0  0.79400  0.75000  0.08240  1.0000
  O   O3        1.0  0.24200  0.00830  0.16800  1.0000
  O   O4        1.0  0.24200  0.49200  0.16800  1.0000
  O   O5        1.0  0.66100  0.00915  0.33000  1.0000
  O   O6        1.0  0.66100  0.49100  0.33000  1.0000
  O   O7        1.0  0.96900  0.25000  0.40500  1.0000
  O   O8        1.0  0.32800  0.75000  0.42000  1.0000
  O   O9        1.0  0.67200  0.25000  0.58000  1.0000
  O   O10       1.0  0.03100  0.75000  0.59500  1.0000
  O   O11       1.0  0.33900  0.50900  0.67000  1.0000
  O   O12       1.0  0.33900  0.99100  0.67000  1.0000
  O   O13       1.0  0.75800  0.50800  0.83200  1.0000
  O   O14       1.0  0.75800  0.99200  0.83200  1.0000
  O   O15       1.0  0.20600  0.25000  0.91800  1.0000
  O   O16       1.0  0.47200  0.75000  0.95300  1.0000
  V   V1        1.0  0.30200  0.25000  0.07840  1.0000
  V   V2        1.0  0.74300  0.25000  0.41200  1.0000
  V   V3        1.0  0.25700  0.75000  0.58800  1.0000
  V   V4        1.0  0.69800  0.75000  0.92200  1.0000
