data_image0
_chemical_formula_structural       CsErS2
_chemical_formula_sum              "Cs1 Er1 S2"
_cell_length_a       4.05875
_cell_length_b       4.05875
_cell_length_c       8.37412
_cell_angle_alpha    104.025
_cell_angle_beta     75.9754
_cell_angle_gamma    120

_space_group_name_H-M_alt    "P 1"
_space_group_IT_number       1

loop_
  _space_group_symop_operation_xyz
  'x, y, z'

loop_
  _atom_site_type_symbol
  _atom_site_label
  _atom_site_symmetry_multiplicity
  _atom_site_fract_x
  _atom_site_fract_y
  _atom_site_fract_z
  _atom_site_occupancy
  Cs  Cs1       1.0  0.00000  0.00000  0.00000  1.0000
  Er  Er1       1.0  0.50000  0.50000  0.50000  1.0000
  S   S1        1.0  0.22700  0.77300  0.31900  1.0000
  S   S2        1.0  0.77300  0.22700  0.68100  1.0000
