data_image0
_chemical_formula_structural       Ag8Ge4Hg2S14
_chemical_formula_sum              "Ag8 Ge4 Hg2 S14"
_cell_length_a       6.93245
_cell_length_b       9.54582
_cell_length_c       10.6417
_cell_angle_alpha    92.8662
_cell_angle_beta     90
_cell_angle_gamma    111.292

_space_group_name_H-M_alt    "P 1"
_space_group_IT_number       1

loop_
  _space_group_symop_operation_xyz
  'x, y, z'

loop_
  _atom_site_type_symbol
  _atom_site_label
  _atom_site_symmetry_multiplicity
  _atom_site_fract_x
  _atom_site_fract_y
  _atom_site_fract_z
  _atom_site_occupancy
  Ag  Ag1       1.0  0.82000  0.99300  0.00172  1.0000
  Ag  Ag2       1.0  0.89800  0.42300  0.09840  1.0000
  Ag  Ag3       1.0  0.73800  0.12700  0.38600  1.0000
  Ag  Ag4       1.0  0.15000  0.55100  0.44800  1.0000
  Ag  Ag5       1.0  0.17200  0.99300  0.50200  1.0000
  Ag  Ag6       1.0  0.52500  0.42300  0.59800  1.0000
  Ag  Ag7       1.0  0.39000  0.12700  0.88600  1.0000
  Ag  Ag8       1.0  0.40100  0.55100  0.94800  1.0000
  Ge  Ge1       1.0  0.25300  0.85400  0.17000  1.0000
  Ge  Ge2       1.0  0.30900  0.27400  0.24400  1.0000
  Ge  Ge3       1.0  0.60000  0.85400  0.67000  1.0000
  Ge  Ge4       1.0  0.96400  0.27400  0.74400  1.0000
  Hg  Hg1       1.0  0.66800  0.69800  0.28500  1.0000
  Hg  Hg2       1.0  0.03000  0.69800  0.78500  1.0000
  S   S1        1.0  0.14000  0.67000  0.01780  1.0000
  S   S2        1.0  0.19900  0.06160  0.09610  1.0000
  S   S3        1.0  0.54900  0.45800  0.14000  1.0000
  S   S4        1.0  0.59700  0.92400  0.20400  1.0000
  S   S5        1.0  0.03370  0.33200  0.28500  1.0000
  S   S6        1.0  0.06520  0.77100  0.34200  1.0000
  S   S7        1.0  0.44200  0.22300  0.41700  1.0000
  S   S8        1.0  0.53000  0.67000  0.51800  1.0000
  S   S9        1.0  0.86300  0.06160  0.59600  1.0000
  S   S10       1.0  0.90900  0.45800  0.64000  1.0000
  S   S11       1.0  0.32700  0.92400  0.70400  1.0000
  S   S12       1.0  0.29800  0.33200  0.78500  1.0000
  S   S13       1.0  0.70600  0.77100  0.84200  1.0000
  S   S14       1.0  0.78200  0.22300  0.91700  1.0000
