data_image0
_chemical_formula_structural       Ca4S16Y8
_chemical_formula_sum              "Ca4 S16 Y8"
_cell_length_a       13.0101
_cell_length_b       3.90171
_cell_length_c       13.1394
_cell_angle_alpha    90
_cell_angle_beta     90
_cell_angle_gamma    90

_space_group_name_H-M_alt    "P 1"
_space_group_IT_number       1

loop_
  _space_group_symop_operation_xyz
  'x, y, z'

loop_
  _atom_site_type_symbol
  _atom_site_label
  _atom_site_symmetry_multiplicity
  _atom_site_fract_x
  _atom_site_fract_y
  _atom_site_fract_z
  _atom_site_occupancy
  Ca  Ca1       1.0  0.87000  0.25000  0.08170  1.0000
  Ca  Ca2       1.0  0.37000  0.25000  0.41800  1.0000
  Ca  Ca3       1.0  0.63000  0.75000  0.58200  1.0000
  Ca  Ca4       1.0  0.13000  0.75000  0.91800  1.0000
  S   S1        1.0  0.25600  0.25000  0.02490  1.0000
  S   S2        1.0  0.53300  0.25000  0.11700  1.0000
  S   S3        1.0  0.02820  0.75000  0.11700  1.0000
  S   S4        1.0  0.78200  0.75000  0.23600  1.0000
  S   S5        1.0  0.28200  0.75000  0.26400  1.0000
  S   S6        1.0  0.52800  0.75000  0.38300  1.0000
  S   S7        1.0  0.03320  0.25000  0.38300  1.0000
  S   S8        1.0  0.75600  0.25000  0.47500  1.0000
  S   S9        1.0  0.24400  0.75000  0.52500  1.0000
  S   S10       1.0  0.96700  0.75000  0.61700  1.0000
  S   S11       1.0  0.47200  0.25000  0.61700  1.0000
  S   S12       1.0  0.71800  0.25000  0.73600  1.0000
  S   S13       1.0  0.21800  0.25000  0.76400  1.0000
  S   S14       1.0  0.97200  0.25000  0.88300  1.0000
  S   S15       1.0  0.46700  0.75000  0.88300  1.0000
  S   S16       1.0  0.74400  0.75000  0.97500  1.0000
  Y   Y1        1.0  0.39200  0.75000  0.08360  1.0000
  Y   Y2        1.0  0.14600  0.25000  0.20300  1.0000
  Y   Y3        1.0  0.64600  0.25000  0.29700  1.0000
  Y   Y4        1.0  0.89200  0.75000  0.41600  1.0000
  Y   Y5        1.0  0.10800  0.25000  0.58400  1.0000
  Y   Y6        1.0  0.35400  0.75000  0.70300  1.0000
  Y   Y7        1.0  0.85400  0.75000  0.79700  1.0000
  Y   Y8        1.0  0.60800  0.25000  0.91600  1.0000
