data_image0
_chemical_formula_structural       F12K6N2O6Si2
_chemical_formula_sum              "F12 K6 N2 O6 Si2"
_cell_length_a       5.42733
_cell_length_b       5.42763
_cell_length_c       13.8065
_cell_angle_alpha    90
_cell_angle_beta     90
_cell_angle_gamma    119.998

_space_group_name_H-M_alt    "P 1"
_space_group_IT_number       1

loop_
  _space_group_symop_operation_xyz
  'x, y, z'

loop_
  _atom_site_type_symbol
  _atom_site_label
  _atom_site_symmetry_multiplicity
  _atom_site_fract_x
  _atom_site_fract_y
  _atom_site_fract_z
  _atom_site_occupancy
  F   F1        1.0  0.14900  0.29700  0.07100  1.0000
  F   F2        1.0  0.70300  0.85100  0.07100  1.0000
  F   F3        1.0  0.14900  0.85100  0.07100  1.0000
  F   F4        1.0  0.14900  0.85100  0.42900  1.0000
  F   F5        1.0  0.70300  0.85100  0.42900  1.0000
  F   F6        1.0  0.14900  0.29700  0.42900  1.0000
  F   F7        1.0  0.85100  0.70300  0.57100  1.0000
  F   F8        1.0  0.85100  0.14900  0.57100  1.0000
  F   F9        1.0  0.29700  0.14900  0.57100  1.0000
  F   F10       1.0  0.85100  0.14900  0.92900  1.0000
  F   F11       1.0  0.29700  0.14900  0.92900  1.0000
  F   F12       1.0  0.85100  0.70300  0.92900  1.0000
  K   K1        1.0  0.66700  0.33300  0.09260  1.0000
  K   K2        1.0  0.00000  0.00000  0.25000  1.0000
  K   K3        1.0  0.66700  0.33300  0.40700  1.0000
  K   K4        1.0  0.33300  0.66700  0.59300  1.0000
  K   K5        1.0  0.00000  0.00000  0.75000  1.0000
  K   K6        1.0  0.33300  0.66700  0.90700  1.0000
  N   N1        1.0  0.33300  0.66600  0.25000  1.0000
  N   N2        1.0  0.66700  0.33400  0.75000  1.0000
  O   O1        1.0  0.06410  0.53200  0.25000  1.0000
  O   O2        1.0  0.46800  0.53200  0.25000  1.0000
  O   O3        1.0  0.46800  0.93600  0.25000  1.0000
  O   O4        1.0  0.53200  0.06400  0.75000  1.0000
  O   O5        1.0  0.53200  0.46800  0.75000  1.0000
  O   O6        1.0  0.93600  0.46800  0.75000  1.0000
  Si  Si1       1.0  0.00000  0.00000  0.00000  1.0000
  Si  Si2       1.0  0.00000  0.00000  0.50000  1.0000
