data_image0
_chemical_formula_structural       O18Sr2V8
_chemical_formula_sum              "O18 Sr2 V8"
_cell_length_a       8.42772
_cell_length_b       8.42772
_cell_length_c       5.1183
_cell_angle_alpha    90
_cell_angle_beta     90
_cell_angle_gamma    90

_space_group_name_H-M_alt    "P 1"
_space_group_IT_number       1

loop_
  _space_group_symop_operation_xyz
  'x, y, z'

loop_
  _atom_site_type_symbol
  _atom_site_label
  _atom_site_symmetry_multiplicity
  _atom_site_fract_x
  _atom_site_fract_y
  _atom_site_fract_z
  _atom_site_occupancy
  O   O1        1.0  0.67300  0.01100  0.05430  1.0000
  O   O2        1.0  0.82700  0.48900  0.05430  1.0000
  O   O3        1.0  0.48900  0.67300  0.05430  1.0000
  O   O4        1.0  0.01100  0.82700  0.05430  1.0000
  O   O5        1.0  0.14400  0.04220  0.47500  1.0000
  O   O6        1.0  0.45800  0.14400  0.47500  1.0000
  O   O7        1.0  0.04220  0.35600  0.47500  1.0000
  O   O8        1.0  0.35600  0.45800  0.47500  1.0000
  O   O9        1.0  0.75000  0.25000  0.50000  1.0000
  O   O10       1.0  0.25000  0.75000  0.50000  1.0000
  O   O11       1.0  0.64400  0.54200  0.52500  1.0000
  O   O12       1.0  0.95800  0.64400  0.52500  1.0000
  O   O13       1.0  0.54200  0.85600  0.52500  1.0000
  O   O14       1.0  0.85600  0.95800  0.52500  1.0000
  O   O15       1.0  0.98900  0.17300  0.94600  1.0000
  O   O16       1.0  0.51100  0.32700  0.94600  1.0000
  O   O17       1.0  0.17300  0.51100  0.94600  1.0000
  O   O18       1.0  0.32700  0.98900  0.94600  1.0000
  Sr  Sr1       1.0  0.25000  0.25000  0.14800  1.0000
  Sr  Sr2       1.0  0.75000  0.75000  0.85200  1.0000
  V   V1        1.0  0.65800  0.03900  0.37200  1.0000
  V   V2        1.0  0.84200  0.46100  0.37200  1.0000
  V   V3        1.0  0.46100  0.65800  0.37200  1.0000
  V   V4        1.0  0.03900  0.84200  0.37200  1.0000
  V   V5        1.0  0.96100  0.15800  0.62800  1.0000
  V   V6        1.0  0.53900  0.34200  0.62800  1.0000
  V   V7        1.0  0.15800  0.53900  0.62800  1.0000
  V   V8        1.0  0.34200  0.96100  0.62800  1.0000
