data_image0
_chemical_formula_structural       C4V12Zr12
_chemical_formula_sum              "C4 V12 Zr12"
_cell_length_a       8.64428
_cell_length_b       8.64428
_cell_length_c       8.64428
_cell_angle_alpha    120
_cell_angle_beta     90
_cell_angle_gamma    120

_space_group_name_H-M_alt    "P 1"
_space_group_IT_number       1

loop_
  _space_group_symop_operation_xyz
  'x, y, z'

loop_
  _atom_site_type_symbol
  _atom_site_label
  _atom_site_symmetry_multiplicity
  _atom_site_fract_x
  _atom_site_fract_y
  _atom_site_fract_z
  _atom_site_occupancy
  C   C1        1.0  0.37500  0.25000  0.12500  1.0000
  C   C2        1.0  0.87500  0.75000  0.12500  1.0000
  C   C3        1.0  0.87500  0.25000  0.12500  1.0000
  C   C4        1.0  0.87500  0.75000  0.62500  1.0000
  V   V1        1.0  0.37500  0.75000  0.12500  1.0000
  V   V2        1.0  0.27300  0.84900  0.42400  1.0000
  V   V3        1.0  0.57600  0.15100  0.42400  1.0000
  V   V4        1.0  0.57600  0.84900  0.42400  1.0000
  V   V5        1.0  0.17400  0.34900  0.52300  1.0000
  V   V6        1.0  0.37500  0.25000  0.62500  1.0000
  V   V7        1.0  0.37500  0.75000  0.62500  1.0000
  V   V8        1.0  0.87500  0.25000  0.62500  1.0000
  V   V9        1.0  0.57600  0.15100  0.72700  1.0000
  V   V10       1.0  0.17400  0.65100  0.82600  1.0000
  V   V11       1.0  0.17400  0.34900  0.82600  1.0000
  V   V12       1.0  0.47700  0.65100  0.82600  1.0000
  Zr  Zr1       1.0  0.55900  0.50000  0.05850  1.0000
  Zr  Zr2       1.0  0.55900  0.11700  0.05850  1.0000
  Zr  Zr3       1.0  0.94100  0.50000  0.05850  1.0000
  Zr  Zr4       1.0  0.19100  0.00000  0.19100  1.0000
  Zr  Zr5       1.0  0.19100  0.38300  0.19100  1.0000
  Zr  Zr6       1.0  0.80900  0.00000  0.19100  1.0000
  Zr  Zr7       1.0  0.94100  0.50000  0.44100  1.0000
  Zr  Zr8       1.0  0.94100  0.88300  0.44100  1.0000
  Zr  Zr9       1.0  0.55900  0.50000  0.44100  1.0000
  Zr  Zr10      1.0  0.80900  0.61700  0.80900  1.0000
  Zr  Zr11      1.0  0.80900  0.00000  0.80900  1.0000
  Zr  Zr12      1.0  0.19100  0.00000  0.80900  1.0000
