data_image0
_chemical_formula_structural       Cs12Fe4O12
_chemical_formula_sum              "Cs12 Fe4 O12"
_cell_length_a       7.26058
_cell_length_b       12.0719
_cell_length_c       7.69569
_cell_angle_alpha    90
_cell_angle_beta     104.54
_cell_angle_gamma    90

_space_group_name_H-M_alt    "P 1"
_space_group_IT_number       1

loop_
  _space_group_symop_operation_xyz
  'x, y, z'

loop_
  _atom_site_type_symbol
  _atom_site_label
  _atom_site_symmetry_multiplicity
  _atom_site_fract_x
  _atom_site_fract_y
  _atom_site_fract_z
  _atom_site_occupancy
  Cs  Cs1       1.0  0.54400  0.20500  0.00153  1.0000
  Cs  Cs2       1.0  0.98100  0.74100  0.08540  1.0000
  Cs  Cs3       1.0  0.33500  0.49000  0.13300  1.0000
  Cs  Cs4       1.0  0.66500  0.99000  0.36700  1.0000
  Cs  Cs5       1.0  0.01890  0.24100  0.41500  1.0000
  Cs  Cs6       1.0  0.45600  0.70500  0.49800  1.0000
  Cs  Cs7       1.0  0.54400  0.29500  0.50200  1.0000
  Cs  Cs8       1.0  0.98100  0.75900  0.58500  1.0000
  Cs  Cs9       1.0  0.33500  0.01020  0.63300  1.0000
  Cs  Cs10      1.0  0.66500  0.51000  0.86700  1.0000
  Cs  Cs11      1.0  0.01890  0.25900  0.91500  1.0000
  Cs  Cs12      1.0  0.45600  0.79500  0.99800  1.0000
  Fe  Fe1       1.0  0.15600  0.00839  0.15100  1.0000
  Fe  Fe2       1.0  0.84400  0.50800  0.34900  1.0000
  Fe  Fe3       1.0  0.15600  0.49200  0.65100  1.0000
  Fe  Fe4       1.0  0.84400  0.99200  0.84900  1.0000
  O   O1        1.0  0.88000  0.03310  0.10400  1.0000
  O   O2        1.0  0.74900  0.38800  0.20000  1.0000
  O   O3        1.0  0.29700  0.13600  0.23300  1.0000
  O   O4        1.0  0.70300  0.63600  0.26700  1.0000
  O   O5        1.0  0.25100  0.88800  0.30000  1.0000
  O   O6        1.0  0.12000  0.53300  0.39600  1.0000
  O   O7        1.0  0.88000  0.46700  0.60400  1.0000
  O   O8        1.0  0.74900  0.11200  0.70000  1.0000
  O   O9        1.0  0.29700  0.36400  0.73300  1.0000
  O   O10       1.0  0.70300  0.86400  0.76700  1.0000
  O   O11       1.0  0.25100  0.61200  0.80000  1.0000
  O   O12       1.0  0.12000  0.96700  0.89600  1.0000
