data_image0
_chemical_formula_structural       Ge6O18Sb4
_chemical_formula_sum              "Ge6 O18 Sb4"
_cell_length_a       7.02333
_cell_length_b       7.0233
_cell_length_c       9.51367
_cell_angle_alpha    90
_cell_angle_beta     90
_cell_angle_gamma    120.001

_space_group_name_H-M_alt    "P 1"
_space_group_IT_number       1

loop_
  _space_group_symop_operation_xyz
  'x, y, z'

loop_
  _atom_site_type_symbol
  _atom_site_label
  _atom_site_symmetry_multiplicity
  _atom_site_fract_x
  _atom_site_fract_y
  _atom_site_fract_z
  _atom_site_occupancy
  Ge  Ge1       1.0  0.08280  0.29300  0.25000  1.0000
  Ge  Ge2       1.0  0.70700  0.79000  0.25000  1.0000
  Ge  Ge3       1.0  0.21000  0.91700  0.25000  1.0000
  Ge  Ge4       1.0  0.79000  0.08280  0.75000  1.0000
  Ge  Ge5       1.0  0.29300  0.21000  0.75000  1.0000
  Ge  Ge6       1.0  0.91700  0.70700  0.75000  1.0000
  O   O1        1.0  0.56700  0.66000  0.09620  1.0000
  O   O2        1.0  0.34000  0.90700  0.09620  1.0000
  O   O3        1.0  0.09280  0.43300  0.09620  1.0000
  O   O4        1.0  0.80400  0.07490  0.25000  1.0000
  O   O5        1.0  0.27100  0.19600  0.25000  1.0000
  O   O6        1.0  0.92500  0.72900  0.25000  1.0000
  O   O7        1.0  0.09280  0.43300  0.40400  1.0000
  O   O8        1.0  0.34000  0.90700  0.40400  1.0000
  O   O9        1.0  0.56700  0.66000  0.40400  1.0000
  O   O10       1.0  0.43300  0.34000  0.59600  1.0000
  O   O11       1.0  0.66000  0.09280  0.59600  1.0000
  O   O12       1.0  0.90700  0.56700  0.59600  1.0000
  O   O13       1.0  0.07490  0.27100  0.75000  1.0000
  O   O14       1.0  0.72900  0.80400  0.75000  1.0000
  O   O15       1.0  0.19600  0.92500  0.75000  1.0000
  O   O16       1.0  0.66000  0.09280  0.90400  1.0000
  O   O17       1.0  0.90700  0.56700  0.90400  1.0000
  O   O18       1.0  0.43300  0.34000  0.90400  1.0000
  Sb  Sb1       1.0  0.66700  0.33300  0.02490  1.0000
  Sb  Sb2       1.0  0.66700  0.33300  0.47500  1.0000
  Sb  Sb3       1.0  0.33300  0.66700  0.52500  1.0000
  Sb  Sb4       1.0  0.33300  0.66700  0.97500  1.0000
