data_image0
_chemical_formula_structural       Cs6I8Re6S8
_chemical_formula_sum              "Cs6 I8 Re6 S8"
_cell_length_a       11.4353
_cell_length_b       11.4353
_cell_length_c       11.4353
_cell_angle_alpha    120
_cell_angle_beta     90
_cell_angle_gamma    120

_space_group_name_H-M_alt    "P 1"
_space_group_IT_number       1

loop_
  _space_group_symop_operation_xyz
  'x, y, z'

loop_
  _atom_site_type_symbol
  _atom_site_label
  _atom_site_symmetry_multiplicity
  _atom_site_fract_x
  _atom_site_fract_y
  _atom_site_fract_z
  _atom_site_occupancy
  Cs  Cs1       1.0  0.50000  0.00000  0.00000  1.0000
  Cs  Cs2       1.0  0.00000  0.50000  0.00000  1.0000
  Cs  Cs3       1.0  0.50000  0.50000  0.00000  1.0000
  Cs  Cs4       1.0  0.00000  0.00000  0.50000  1.0000
  Cs  Cs5       1.0  0.00000  0.50000  0.50000  1.0000
  Cs  Cs6       1.0  0.50000  0.50000  0.50000  1.0000
  I   I1        1.0  0.21200  0.00000  0.21200  1.0000
  I   I2        1.0  0.78800  0.00000  0.21200  1.0000
  I   I3        1.0  0.21200  0.42500  0.21200  1.0000
  I   I4        1.0  0.75000  0.50000  0.25000  1.0000
  I   I5        1.0  0.25000  0.50000  0.75000  1.0000
  I   I6        1.0  0.78800  0.00000  0.78800  1.0000
  I   I7        1.0  0.21200  0.00000  0.78800  1.0000
  I   I8        1.0  0.78800  0.57500  0.78800  1.0000
  Re  Re1       1.0  0.38600  0.00000  0.38600  1.0000
  Re  Re2       1.0  0.38600  0.77200  0.38600  1.0000
  Re  Re3       1.0  0.61400  0.00000  0.38600  1.0000
  Re  Re4       1.0  0.38600  0.00000  0.61400  1.0000
  Re  Re5       1.0  0.61400  0.22800  0.61400  1.0000
  Re  Re6       1.0  0.61400  0.00000  0.61400  1.0000
  S   S1        1.0  0.39400  0.78900  0.18300  1.0000
  S   S2        1.0  0.60600  0.21100  0.39400  1.0000
  S   S3        1.0  0.18300  0.78900  0.39400  1.0000
  S   S4        1.0  0.60600  0.78900  0.39400  1.0000
  S   S5        1.0  0.81700  0.21100  0.60600  1.0000
  S   S6        1.0  0.39400  0.21100  0.60600  1.0000
  S   S7        1.0  0.39400  0.78900  0.60600  1.0000
  S   S8        1.0  0.60600  0.21100  0.81700  1.0000
