data_image0
_chemical_formula_structural       B4Fe4O16Pb4
_chemical_formula_sum              "B4 Fe4 O16 Pb4"
_cell_length_a       6.91634
_cell_length_b       5.97533
_cell_length_c       8.35825
_cell_angle_alpha    90
_cell_angle_beta     90
_cell_angle_gamma    90

_space_group_name_H-M_alt    "P 1"
_space_group_IT_number       1

loop_
  _space_group_symop_operation_xyz
  'x, y, z'

loop_
  _atom_site_type_symbol
  _atom_site_label
  _atom_site_symmetry_multiplicity
  _atom_site_fract_x
  _atom_site_fract_y
  _atom_site_fract_z
  _atom_site_occupancy
  B   B1        1.0  0.72000  0.75000  0.23300  1.0000
  B   B2        1.0  0.22000  0.75000  0.26700  1.0000
  B   B3        1.0  0.78000  0.25000  0.73300  1.0000
  B   B4        1.0  0.28000  0.25000  0.76700  1.0000
  Fe  Fe1       1.0  0.00000  0.00000  0.00000  1.0000
  Fe  Fe2       1.0  0.00000  0.50000  0.00000  1.0000
  Fe  Fe3       1.0  0.50000  0.00000  0.50000  1.0000
  Fe  Fe4       1.0  0.50000  0.50000  0.50000  1.0000
  O   O1        1.0  0.81500  0.75000  0.08670  1.0000
  O   O2        1.0  0.89000  0.25000  0.11700  1.0000
  O   O3        1.0  0.17100  0.54900  0.19500  1.0000
  O   O4        1.0  0.17100  0.95100  0.19500  1.0000
  O   O5        1.0  0.67100  0.54900  0.30500  1.0000
  O   O6        1.0  0.67100  0.95100  0.30500  1.0000
  O   O7        1.0  0.39000  0.25000  0.38300  1.0000
  O   O8        1.0  0.31500  0.75000  0.41300  1.0000
  O   O9        1.0  0.68500  0.25000  0.58700  1.0000
  O   O10       1.0  0.61000  0.75000  0.61700  1.0000
  O   O11       1.0  0.32900  0.04920  0.69500  1.0000
  O   O12       1.0  0.32900  0.45100  0.69500  1.0000
  O   O13       1.0  0.82900  0.04920  0.80500  1.0000
  O   O14       1.0  0.82900  0.45100  0.80500  1.0000
  O   O15       1.0  0.11000  0.75000  0.88300  1.0000
  O   O16       1.0  0.18500  0.25000  0.91300  1.0000
  Pb  Pb1       1.0  0.55000  0.25000  0.14000  1.0000
  Pb  Pb2       1.0  0.05020  0.25000  0.36000  1.0000
  Pb  Pb3       1.0  0.95000  0.75000  0.64000  1.0000
  Pb  Pb4       1.0  0.45000  0.75000  0.86000  1.0000
