data_image0
_chemical_formula_structural       Ag8Bi4Cs4S12
_chemical_formula_sum              "Ag8 Bi4 Cs4 S12"
_cell_length_a       13.5705
_cell_length_b       8.23663
_cell_length_c       7.02209
_cell_angle_alpha    90
_cell_angle_beta     99.6509
_cell_angle_gamma    90

_space_group_name_H-M_alt    "P 1"
_space_group_IT_number       1

loop_
  _space_group_symop_operation_xyz
  'x, y, z'

loop_
  _atom_site_type_symbol
  _atom_site_label
  _atom_site_symmetry_multiplicity
  _atom_site_fract_x
  _atom_site_fract_y
  _atom_site_fract_z
  _atom_site_occupancy
  Ag  Ag1       1.0  0.08830  0.25200  0.02970  1.0000
  Ag  Ag2       1.0  0.73200  0.64000  0.14900  1.0000
  Ag  Ag3       1.0  0.26800  0.14000  0.35100  1.0000
  Ag  Ag4       1.0  0.91200  0.75200  0.47000  1.0000
  Ag  Ag5       1.0  0.08830  0.24800  0.53000  1.0000
  Ag  Ag6       1.0  0.73200  0.86000  0.64900  1.0000
  Ag  Ag7       1.0  0.26800  0.36000  0.85100  1.0000
  Ag  Ag8       1.0  0.91200  0.74800  0.97000  1.0000
  Bi  Bi1       1.0  0.50200  0.37100  0.24500  1.0000
  Bi  Bi2       1.0  0.49800  0.87100  0.25500  1.0000
  Bi  Bi3       1.0  0.50200  0.12900  0.74500  1.0000
  Bi  Bi4       1.0  0.49800  0.62900  0.75500  1.0000
  Cs  Cs1       1.0  0.82100  0.11700  0.18400  1.0000
  Cs  Cs2       1.0  0.17900  0.61700  0.31600  1.0000
  Cs  Cs3       1.0  0.82100  0.38300  0.68400  1.0000
  Cs  Cs4       1.0  0.17900  0.88300  0.81600  1.0000
  S   S1        1.0  0.38100  0.62400  0.04450  1.0000
  S   S2        1.0  0.37800  0.14100  0.04820  1.0000
  S   S3        1.0  0.91000  0.55100  0.22300  1.0000
  S   S4        1.0  0.08970  0.05100  0.27700  1.0000
  S   S5        1.0  0.62200  0.64100  0.45200  1.0000
  S   S6        1.0  0.61900  0.12400  0.45500  1.0000
  S   S7        1.0  0.38100  0.87600  0.54500  1.0000
  S   S8        1.0  0.37800  0.35900  0.54800  1.0000
  S   S9        1.0  0.91000  0.94900  0.72300  1.0000
  S   S10       1.0  0.08970  0.44900  0.77700  1.0000
  S   S11       1.0  0.62200  0.85900  0.95200  1.0000
  S   S12       1.0  0.61900  0.37600  0.95500  1.0000
