data_image0
_chemical_formula_structural       Eu2K6O16P4
_chemical_formula_sum              "Eu2 K6 O16 P4"
_cell_length_a       9.60647
_cell_length_b       5.61201
_cell_length_c       7.34501
_cell_angle_alpha    90
_cell_angle_beta     90.265
_cell_angle_gamma    90

_space_group_name_H-M_alt    "P 1"
_space_group_IT_number       1

loop_
  _space_group_symop_operation_xyz
  'x, y, z'

loop_
  _atom_site_type_symbol
  _atom_site_label
  _atom_site_symmetry_multiplicity
  _atom_site_fract_x
  _atom_site_fract_y
  _atom_site_fract_z
  _atom_site_occupancy
  Eu  Eu1       1.0  0.79900  0.75000  0.00847  1.0000
  Eu  Eu2       1.0  0.20100  0.25000  0.99200  1.0000
  K   K1        1.0  0.58600  0.25000  0.19100  1.0000
  K   K2        1.0  0.08740  0.75000  0.35900  1.0000
  K   K3        1.0  0.30200  0.25000  0.49200  1.0000
  K   K4        1.0  0.69800  0.75000  0.50800  1.0000
  K   K5        1.0  0.91300  0.25000  0.64100  1.0000
  K   K6        1.0  0.41400  0.75000  0.80900  1.0000
  O   O1        1.0  0.06010  0.75000  0.00433  1.0000
  O   O2        1.0  0.34100  0.52300  0.16400  1.0000
  O   O3        1.0  0.34100  0.97700  0.16400  1.0000
  O   O4        1.0  0.56800  0.75000  0.17800  1.0000
  O   O5        1.0  0.84400  0.02430  0.26600  1.0000
  O   O6        1.0  0.84400  0.47600  0.26600  1.0000
  O   O7        1.0  0.07160  0.25000  0.29300  1.0000
  O   O8        1.0  0.40300  0.75000  0.44800  1.0000
  O   O9        1.0  0.59700  0.25000  0.55200  1.0000
  O   O10       1.0  0.92800  0.75000  0.70700  1.0000
  O   O11       1.0  0.15600  0.52400  0.73400  1.0000
  O   O12       1.0  0.15600  0.97600  0.73400  1.0000
  O   O13       1.0  0.43200  0.25000  0.82200  1.0000
  O   O14       1.0  0.65900  0.02340  0.83600  1.0000
  O   O15       1.0  0.65900  0.47700  0.83600  1.0000
  O   O16       1.0  0.94000  0.25000  0.99600  1.0000
  P   P1        1.0  0.92400  0.25000  0.20600  1.0000
  P   P2        1.0  0.41300  0.75000  0.23900  1.0000
  P   P3        1.0  0.58700  0.25000  0.76100  1.0000
  P   P4        1.0  0.07600  0.75000  0.79400  1.0000
