data_image0
_chemical_formula_structural       Dy8Sb20
_chemical_formula_sum              "Dy8 Sb20"
_cell_length_a       13.2119
_cell_length_b       4.21075
_cell_length_c       14.6764
_cell_angle_alpha    90
_cell_angle_beta     102.06
_cell_angle_gamma    90

_space_group_name_H-M_alt    "P 1"
_space_group_IT_number       1

loop_
  _space_group_symop_operation_xyz
  'x, y, z'

loop_
  _atom_site_type_symbol
  _atom_site_label
  _atom_site_symmetry_multiplicity
  _atom_site_fract_x
  _atom_site_fract_y
  _atom_site_fract_z
  _atom_site_occupancy
  Dy  Dy1       1.0  0.66200  0.75000  0.14500  1.0000
  Dy  Dy2       1.0  0.39200  0.75000  0.22900  1.0000
  Dy  Dy3       1.0  0.04680  0.25000  0.36200  1.0000
  Dy  Dy4       1.0  0.66800  0.75000  0.42200  1.0000
  Dy  Dy5       1.0  0.33200  0.25000  0.57800  1.0000
  Dy  Dy6       1.0  0.95300  0.75000  0.63800  1.0000
  Dy  Dy7       1.0  0.60800  0.25000  0.77100  1.0000
  Dy  Dy8       1.0  0.33800  0.25000  0.85500  1.0000
  Sb  Sb1       1.0  0.42000  0.75000  0.02450  1.0000
  Sb  Sb2       1.0  0.27800  0.25000  0.06220  1.0000
  Sb  Sb3       1.0  0.02920  0.25000  0.09040  1.0000
  Sb  Sb4       1.0  0.84800  0.25000  0.17200  1.0000
  Sb  Sb5       1.0  0.14100  0.75000  0.22100  1.0000
  Sb  Sb6       1.0  0.57500  0.25000  0.26600  1.0000
  Sb  Sb7       1.0  0.86100  0.75000  0.32200  1.0000
  Sb  Sb8       1.0  0.28300  0.25000  0.34700  1.0000
  Sb  Sb9       1.0  0.42600  0.75000  0.44900  1.0000
  Sb  Sb10      1.0  0.85600  0.25000  0.48200  1.0000
  Sb  Sb11      1.0  0.14400  0.75000  0.51800  1.0000
  Sb  Sb12      1.0  0.57400  0.25000  0.55100  1.0000
  Sb  Sb13      1.0  0.71700  0.75000  0.65300  1.0000
  Sb  Sb14      1.0  0.13900  0.25000  0.67800  1.0000
  Sb  Sb15      1.0  0.42500  0.75000  0.73400  1.0000
  Sb  Sb16      1.0  0.85900  0.25000  0.77900  1.0000
  Sb  Sb17      1.0  0.15200  0.75000  0.82800  1.0000
  Sb  Sb18      1.0  0.97100  0.75000  0.91000  1.0000
  Sb  Sb19      1.0  0.72200  0.75000  0.93800  1.0000
  Sb  Sb20      1.0  0.58000  0.25000  0.97600  1.0000
