data_image0
_chemical_formula_structural       Ce4Cu20Sn4
_chemical_formula_sum              "Ce4 Cu20 Sn4"
_cell_length_a       8.36204
_cell_length_b       5.09002
_cell_length_c       10.6358
_cell_angle_alpha    90
_cell_angle_beta     90
_cell_angle_gamma    90

_space_group_name_H-M_alt    "P 1"
_space_group_IT_number       1

loop_
  _space_group_symop_operation_xyz
  'x, y, z'

loop_
  _atom_site_type_symbol
  _atom_site_label
  _atom_site_symmetry_multiplicity
  _atom_site_fract_x
  _atom_site_fract_y
  _atom_site_fract_z
  _atom_site_occupancy
  Ce  Ce1       1.0  0.24500  0.75000  0.05930  1.0000
  Ce  Ce2       1.0  0.74500  0.75000  0.44100  1.0000
  Ce  Ce3       1.0  0.25500  0.25000  0.55900  1.0000
  Ce  Ce4       1.0  0.75500  0.25000  0.94100  1.0000
  Cu  Cu1       1.0  0.41800  0.25000  0.01670  1.0000
  Cu  Cu2       1.0  0.06220  0.25000  0.10400  1.0000
  Cu  Cu3       1.0  0.56900  0.00106  0.18900  1.0000
  Cu  Cu4       1.0  0.56900  0.49900  0.18900  1.0000
  Cu  Cu5       1.0  0.32000  0.25000  0.24400  1.0000
  Cu  Cu6       1.0  0.82000  0.25000  0.25600  1.0000
  Cu  Cu7       1.0  0.06940  0.00106  0.31100  1.0000
  Cu  Cu8       1.0  0.06940  0.49900  0.31100  1.0000
  Cu  Cu9       1.0  0.56200  0.25000  0.39600  1.0000
  Cu  Cu10      1.0  0.91800  0.25000  0.48300  1.0000
  Cu  Cu11      1.0  0.08240  0.75000  0.51700  1.0000
  Cu  Cu12      1.0  0.43800  0.75000  0.60400  1.0000
  Cu  Cu13      1.0  0.93100  0.50100  0.68900  1.0000
  Cu  Cu14      1.0  0.93100  0.99900  0.68900  1.0000
  Cu  Cu15      1.0  0.18000  0.75000  0.74400  1.0000
  Cu  Cu16      1.0  0.68000  0.75000  0.75600  1.0000
  Cu  Cu17      1.0  0.43100  0.50100  0.81100  1.0000
  Cu  Cu18      1.0  0.43100  0.99900  0.81100  1.0000
  Cu  Cu19      1.0  0.93800  0.75000  0.89600  1.0000
  Cu  Cu20      1.0  0.58200  0.75000  0.98300  1.0000
  Sn  Sn1       1.0  0.86000  0.75000  0.14100  1.0000
  Sn  Sn2       1.0  0.36000  0.75000  0.35900  1.0000
  Sn  Sn3       1.0  0.64000  0.25000  0.64100  1.0000
  Sn  Sn4       1.0  0.14000  0.25000  0.85900  1.0000
