data_image0
_chemical_formula_structural       F20Te4Tl4
_chemical_formula_sum              "F20 Te4 Tl4"
_cell_length_a       16.0268
_cell_length_b       5.90264
_cell_length_c       4.56776
_cell_angle_alpha    90
_cell_angle_beta     90
_cell_angle_gamma    90

_space_group_name_H-M_alt    "P 1"
_space_group_IT_number       1

loop_
  _space_group_symop_operation_xyz
  'x, y, z'

loop_
  _atom_site_type_symbol
  _atom_site_label
  _atom_site_symmetry_multiplicity
  _atom_site_fract_x
  _atom_site_fract_y
  _atom_site_fract_z
  _atom_site_occupancy
  F   F1        1.0  0.42600  0.25000  0.20400  1.0000
  F   F2        1.0  0.60200  0.50300  0.22600  1.0000
  F   F3        1.0  0.60200  0.99700  0.22600  1.0000
  F   F4        1.0  0.79500  0.02060  0.24200  1.0000
  F   F5        1.0  0.79500  0.47900  0.24200  1.0000
  F   F6        1.0  0.29500  0.02060  0.25800  1.0000
  F   F7        1.0  0.29500  0.47900  0.25800  1.0000
  F   F8        1.0  0.10200  0.50300  0.27400  1.0000
  F   F9        1.0  0.10200  0.99700  0.27400  1.0000
  F   F10       1.0  0.92600  0.25000  0.29600  1.0000
  F   F11       1.0  0.07370  0.75000  0.70400  1.0000
  F   F12       1.0  0.89800  0.00327  0.72600  1.0000
  F   F13       1.0  0.89800  0.49700  0.72600  1.0000
  F   F14       1.0  0.70500  0.52100  0.74200  1.0000
  F   F15       1.0  0.70500  0.97900  0.74200  1.0000
  F   F16       1.0  0.20500  0.52100  0.75800  1.0000
  F   F17       1.0  0.20500  0.97900  0.75800  1.0000
  F   F18       1.0  0.39800  0.00327  0.77400  1.0000
  F   F19       1.0  0.39800  0.49700  0.77400  1.0000
  F   F20       1.0  0.57400  0.75000  0.79600  1.0000
  Te  Te1       1.0  0.67200  0.75000  0.04630  1.0000
  Te  Te2       1.0  0.17200  0.75000  0.45400  1.0000
  Te  Te3       1.0  0.82800  0.25000  0.54600  1.0000
  Te  Te4       1.0  0.32800  0.25000  0.95400  1.0000
  Tl  Tl1       1.0  0.94400  0.75000  0.20200  1.0000
  Tl  Tl2       1.0  0.44400  0.75000  0.29800  1.0000
  Tl  Tl3       1.0  0.55600  0.25000  0.70200  1.0000
  Tl  Tl4       1.0  0.05610  0.25000  0.79800  1.0000
