data_image0
_chemical_formula_structural       Sb20Tb8
_chemical_formula_sum              "Sb20 Tb8"
_cell_length_a       13.258
_cell_length_b       4.22047
_cell_length_c       14.7455
_cell_angle_alpha    90
_cell_angle_beta     102.148
_cell_angle_gamma    90

_space_group_name_H-M_alt    "P 1"
_space_group_IT_number       1

loop_
  _space_group_symop_operation_xyz
  'x, y, z'

loop_
  _atom_site_type_symbol
  _atom_site_label
  _atom_site_symmetry_multiplicity
  _atom_site_fract_x
  _atom_site_fract_y
  _atom_site_fract_z
  _atom_site_occupancy
  Sb  Sb1       1.0  0.42000  0.75000  0.02460  1.0000
  Sb  Sb2       1.0  0.27900  0.25000  0.06160  1.0000
  Sb  Sb3       1.0  0.02940  0.25000  0.09330  1.0000
  Sb  Sb4       1.0  0.84800  0.25000  0.17300  1.0000
  Sb  Sb5       1.0  0.14200  0.75000  0.22100  1.0000
  Sb  Sb6       1.0  0.57500  0.25000  0.26600  1.0000
  Sb  Sb7       1.0  0.86100  0.75000  0.32200  1.0000
  Sb  Sb8       1.0  0.28500  0.25000  0.34700  1.0000
  Sb  Sb9       1.0  0.42600  0.75000  0.44900  1.0000
  Sb  Sb10      1.0  0.85600  0.25000  0.48100  1.0000
  Sb  Sb11      1.0  0.14400  0.75000  0.51900  1.0000
  Sb  Sb12      1.0  0.57400  0.25000  0.55100  1.0000
  Sb  Sb13      1.0  0.71500  0.75000  0.65300  1.0000
  Sb  Sb14      1.0  0.13900  0.25000  0.67800  1.0000
  Sb  Sb15      1.0  0.42500  0.75000  0.73400  1.0000
  Sb  Sb16      1.0  0.85800  0.25000  0.77900  1.0000
  Sb  Sb17      1.0  0.15200  0.75000  0.82700  1.0000
  Sb  Sb18      1.0  0.97100  0.75000  0.90700  1.0000
  Sb  Sb19      1.0  0.72100  0.75000  0.93800  1.0000
  Sb  Sb20      1.0  0.58000  0.25000  0.97500  1.0000
  Tb  Tb1       1.0  0.66200  0.75000  0.14500  1.0000
  Tb  Tb2       1.0  0.39300  0.75000  0.22900  1.0000
  Tb  Tb3       1.0  0.04730  0.25000  0.36100  1.0000
  Tb  Tb4       1.0  0.66900  0.75000  0.42300  1.0000
  Tb  Tb5       1.0  0.33100  0.25000  0.57700  1.0000
  Tb  Tb6       1.0  0.95300  0.75000  0.63900  1.0000
  Tb  Tb7       1.0  0.60700  0.25000  0.77100  1.0000
  Tb  Tb8       1.0  0.33800  0.25000  0.85500  1.0000
