data_image0
_chemical_formula_structural       Ge8Ru8Sm12
_chemical_formula_sum              "Ge8 Ru8 Sm12"
_cell_length_a       5.6638
_cell_length_b       7.88942
_cell_length_c       13.7018
_cell_angle_alpha    90
_cell_angle_beta     90
_cell_angle_gamma    90

_space_group_name_H-M_alt    "P 1"
_space_group_IT_number       1

loop_
  _space_group_symop_operation_xyz
  'x, y, z'

loop_
  _atom_site_type_symbol
  _atom_site_label
  _atom_site_symmetry_multiplicity
  _atom_site_fract_x
  _atom_site_fract_y
  _atom_site_fract_z
  _atom_site_occupancy
  Ge  Ge1       1.0  0.61800  0.25000  0.00000  1.0000
  Ge  Ge2       1.0  0.38200  0.75000  0.00000  1.0000
  Ge  Ge3       1.0  0.13400  0.38800  0.25000  1.0000
  Ge  Ge4       1.0  0.86600  0.88800  0.25000  1.0000
  Ge  Ge5       1.0  0.61800  0.25000  0.50000  1.0000
  Ge  Ge6       1.0  0.38200  0.75000  0.50000  1.0000
  Ge  Ge7       1.0  0.13400  0.11200  0.75000  1.0000
  Ge  Ge8       1.0  0.86600  0.61200  0.75000  1.0000
  Ru  Ru1       1.0  0.35300  0.47000  0.09080  1.0000
  Ru  Ru2       1.0  0.64700  0.97000  0.09080  1.0000
  Ru  Ru3       1.0  0.35300  0.47000  0.40900  1.0000
  Ru  Ru4       1.0  0.64700  0.97000  0.40900  1.0000
  Ru  Ru5       1.0  0.35300  0.03040  0.59100  1.0000
  Ru  Ru6       1.0  0.64700  0.53000  0.59100  1.0000
  Ru  Ru7       1.0  0.35300  0.03040  0.90900  1.0000
  Ru  Ru8       1.0  0.64700  0.53000  0.90900  1.0000
  Sm  Sm1       1.0  0.15000  0.09700  0.09910  1.0000
  Sm  Sm2       1.0  0.85000  0.59700  0.09910  1.0000
  Sm  Sm3       1.0  0.62900  0.23600  0.25000  1.0000
  Sm  Sm4       1.0  0.37100  0.73600  0.25000  1.0000
  Sm  Sm5       1.0  0.15000  0.09700  0.40100  1.0000
  Sm  Sm6       1.0  0.85000  0.59700  0.40100  1.0000
  Sm  Sm7       1.0  0.15000  0.40300  0.59900  1.0000
  Sm  Sm8       1.0  0.85000  0.90300  0.59900  1.0000
  Sm  Sm9       1.0  0.62900  0.26400  0.75000  1.0000
  Sm  Sm10      1.0  0.37100  0.76400  0.75000  1.0000
  Sm  Sm11      1.0  0.15000  0.40300  0.90100  1.0000
  Sm  Sm12      1.0  0.85000  0.90300  0.90100  1.0000
