data_image0
_chemical_formula_structural       Au2K6P4Se16
_chemical_formula_sum              "Au2 K6 P4 Se16"
_cell_length_a       7.20639
_cell_length_b       7.31348
_cell_length_c       19.0532
_cell_angle_alpha    93.1331
_cell_angle_beta     96.3693
_cell_angle_gamma    60.4832

_space_group_name_H-M_alt    "P 1"
_space_group_IT_number       1

loop_
  _space_group_symop_operation_xyz
  'x, y, z'

loop_
  _atom_site_type_symbol
  _atom_site_label
  _atom_site_symmetry_multiplicity
  _atom_site_fract_x
  _atom_site_fract_y
  _atom_site_fract_z
  _atom_site_occupancy
  Au  Au1       1.0  0.95000  0.09970  0.50000  1.0000
  Au  Au2       1.0  0.04930  0.90000  0.00000  1.0000
  K   K1        1.0  0.63900  0.86300  0.10600  1.0000
  K   K2        1.0  0.10800  0.21000  0.25400  1.0000
  K   K3        1.0  0.42100  0.54900  0.39700  1.0000
  K   K4        1.0  0.50200  0.13700  0.60600  1.0000
  K   K5        1.0  0.31900  0.79000  0.75400  1.0000
  K   K6        1.0  0.97000  0.45100  0.89700  1.0000
  P   P1        1.0  0.31700  0.46400  0.12400  1.0000
  P   P2        1.0  0.69700  0.87400  0.37700  1.0000
  P   P3        1.0  0.78000  0.53600  0.62400  1.0000
  P   P4        1.0  0.57100  0.12600  0.87700  1.0000
  Se  Se1       1.0  0.61100  0.33600  0.05890  1.0000
  Se  Se2       1.0  0.08330  0.36700  0.08280  1.0000
  Se  Se3       1.0  0.17400  0.81900  0.12500  1.0000
  Se  Se4       1.0  0.50700  0.31600  0.22300  1.0000
  Se  Se5       1.0  0.66200  0.71100  0.28200  1.0000
  Se  Se6       1.0  0.92300  0.00678  0.37500  1.0000
  Se  Se7       1.0  0.39900  0.09270  0.42100  1.0000
  Se  Se8       1.0  0.89700  0.56100  0.44000  1.0000
  Se  Se9       1.0  0.94700  0.66400  0.55900  1.0000
  Se  Se10      1.0  0.45000  0.63300  0.58300  1.0000
  Se  Se11      1.0  0.99300  0.18100  0.62500  1.0000
  Se  Se12      1.0  0.82400  0.68400  0.72300  1.0000
  Se  Se13      1.0  0.37300  0.28900  0.78200  1.0000
  Se  Se14      1.0  0.93000  0.99300  0.87500  1.0000
  Se  Se15      1.0  0.49100  0.90700  0.92100  1.0000
  Se  Se16      1.0  0.45800  0.43900  0.94000  1.0000
