data_image0
_chemical_formula_structural       B20Nd8
_chemical_formula_sum              "B20 Nd8"
_cell_length_a       7.27424
_cell_length_b       7.30449
_cell_length_c       8.39863
_cell_angle_alpha    107.152
_cell_angle_beta     115.662
_cell_angle_gamma    90

_space_group_name_H-M_alt    "P 1"
_space_group_IT_number       1

loop_
  _space_group_symop_operation_xyz
  'x, y, z'

loop_
  _atom_site_type_symbol
  _atom_site_label
  _atom_site_symmetry_multiplicity
  _atom_site_fract_x
  _atom_site_fract_y
  _atom_site_fract_z
  _atom_site_occupancy
  B   B1        1.0  0.79800  0.35300  0.08470  1.0000
  B   B2        1.0  0.28700  0.85300  0.08470  1.0000
  B   B3        1.0  0.40900  0.94000  0.32000  1.0000
  B   B4        1.0  0.91000  0.44000  0.32000  1.0000
  B   B5        1.0  0.53900  0.17100  0.49800  1.0000
  B   B6        1.0  0.95900  0.67100  0.49800  1.0000
  B   B7        1.0  0.90800  0.90800  0.49900  1.0000
  B   B8        1.0  0.59100  0.40800  0.49900  1.0000
  B   B9        1.0  0.82800  0.46000  0.50000  1.0000
  B   B10       1.0  0.67200  0.96000  0.50000  1.0000
  B   B11       1.0  0.17200  0.54000  0.50000  1.0000
  B   B12       1.0  0.32800  0.03960  0.50000  1.0000
  B   B13       1.0  0.40900  0.59200  0.50100  1.0000
  B   B14       1.0  0.09230  0.09180  0.50100  1.0000
  B   B15       1.0  0.04060  0.32900  0.50200  1.0000
  B   B16       1.0  0.46100  0.82900  0.50200  1.0000
  B   B17       1.0  0.08950  0.56000  0.68000  1.0000
  B   B18       1.0  0.59100  0.06040  0.68000  1.0000
  B   B19       1.0  0.71300  0.14700  0.91500  1.0000
  B   B20       1.0  0.20200  0.64700  0.91500  1.0000
  Nd  Nd1       1.0  0.18000  0.22300  0.23700  1.0000
  Nd  Nd2       1.0  0.05670  0.72300  0.23700  1.0000
  Nd  Nd3       1.0  0.68900  0.09900  0.23800  1.0000
  Nd  Nd4       1.0  0.54900  0.59900  0.23800  1.0000
  Nd  Nd5       1.0  0.45100  0.40100  0.76200  1.0000
  Nd  Nd6       1.0  0.31100  0.90100  0.76200  1.0000
  Nd  Nd7       1.0  0.94300  0.27700  0.76300  1.0000
  Nd  Nd8       1.0  0.82000  0.77700  0.76300  1.0000
