data_image0
_chemical_formula_structural       Bi4Nb4O18Sr2
_chemical_formula_sum              "Bi4 Nb4 O18 Sr2"
_cell_length_a       12.6663
_cell_length_b       5.56193
_cell_length_c       5.57681
_cell_angle_alpha    90
_cell_angle_beta     102.717
_cell_angle_gamma    90

_space_group_name_H-M_alt    "P 1"
_space_group_IT_number       1

loop_
  _space_group_symop_operation_xyz
  'x, y, z'

loop_
  _atom_site_type_symbol
  _atom_site_label
  _atom_site_symmetry_multiplicity
  _atom_site_fract_x
  _atom_site_fract_y
  _atom_site_fract_z
  _atom_site_occupancy
  Bi  Bi1       1.0  0.60100  0.95500  0.02050  1.0000
  Bi  Bi2       1.0  0.39900  0.95500  0.42000  1.0000
  Bi  Bi3       1.0  0.60100  0.45500  0.58000  1.0000
  Bi  Bi4       1.0  0.39900  0.45500  0.97900  1.0000
  Nb  Nb1       1.0  0.82800  0.48600  0.16500  1.0000
  Nb  Nb2       1.0  0.17200  0.48600  0.33600  1.0000
  Nb  Nb3       1.0  0.82800  0.98600  0.66400  1.0000
  Nb  Nb4       1.0  0.17200  0.98600  0.83500  1.0000
  O   O1        1.0  0.67900  0.50800  0.01850  1.0000
  O   O2        1.0  0.13600  0.73000  0.04200  1.0000
  O   O3        1.0  0.13600  0.23000  0.09420  1.0000
  O   O4        1.0  0.50500  0.72200  0.24500  1.0000
  O   O5        1.0  0.50500  0.22200  0.26000  1.0000
  O   O6        1.0  0.00000  0.51300  0.30500  1.0000
  O   O7        1.0  0.32100  0.50800  0.34000  1.0000
  O   O8        1.0  0.82300  0.79100  0.37400  1.0000
  O   O9        1.0  0.82300  0.29100  0.44900  1.0000
  O   O10       1.0  0.17700  0.79100  0.55100  1.0000
  O   O11       1.0  0.17700  0.29100  0.62600  1.0000
  O   O12       1.0  0.67900  0.00803  0.66000  1.0000
  O   O13       1.0  0.00000  0.01270  0.69500  1.0000
  O   O14       1.0  0.49500  0.72200  0.74000  1.0000
  O   O15       1.0  0.49500  0.22200  0.75500  1.0000
  O   O16       1.0  0.86400  0.73000  0.90600  1.0000
  O   O17       1.0  0.86400  0.23000  0.95800  1.0000
  O   O18       1.0  0.32100  0.00803  0.98200  1.0000
  Sr  Sr1       1.0  0.00000  0.97300  0.24900  1.0000
  Sr  Sr2       1.0  0.00000  0.47300  0.75100  1.0000
