data_image0
_chemical_formula_structural       I2La6S16Si4
_chemical_formula_sum              "I2 La6 S16 Si4"
_cell_length_a       7.9657
_cell_length_b       8.99431
_cell_length_c       10.9635
_cell_angle_alpha    97.0641
_cell_angle_beta     90
_cell_angle_gamma    116.284

_space_group_name_H-M_alt    "P 1"
_space_group_IT_number       1

loop_
  _space_group_symop_operation_xyz
  'x, y, z'

loop_
  _atom_site_type_symbol
  _atom_site_label
  _atom_site_symmetry_multiplicity
  _atom_site_fract_x
  _atom_site_fract_y
  _atom_site_fract_z
  _atom_site_occupancy
  I   I1        1.0  0.01400  0.00000  0.25000  1.0000
  I   I2        1.0  0.98600  0.00000  0.75000  1.0000
  La  La1       1.0  0.32000  0.39600  0.18100  1.0000
  La  La2       1.0  0.59500  0.00000  0.25000  1.0000
  La  La3       1.0  0.92400  0.60400  0.31900  1.0000
  La  La4       1.0  0.07580  0.39600  0.68100  1.0000
  La  La5       1.0  0.40500  0.00000  0.75000  1.0000
  La  La6       1.0  0.68000  0.60400  0.81900  1.0000
  S   S1        1.0  0.41700  0.13700  0.04430  1.0000
  S   S2        1.0  0.71200  0.56200  0.08610  1.0000
  S   S3        1.0  0.88800  0.28900  0.14700  1.0000
  S   S4        1.0  0.25000  0.69900  0.16000  1.0000
  S   S5        1.0  0.55100  0.30100  0.34000  1.0000
  S   S6        1.0  0.59900  0.71100  0.35300  1.0000
  S   S7        1.0  0.15000  0.43800  0.41400  1.0000
  S   S8        1.0  0.28000  0.86300  0.45600  1.0000
  S   S9        1.0  0.72000  0.13700  0.54400  1.0000
  S   S10       1.0  0.85000  0.56200  0.58600  1.0000
  S   S11       1.0  0.40100  0.28900  0.64700  1.0000
  S   S12       1.0  0.44900  0.69900  0.66000  1.0000
  S   S13       1.0  0.75000  0.30100  0.84000  1.0000
  S   S14       1.0  0.11200  0.71100  0.85300  1.0000
  S   S15       1.0  0.28800  0.43800  0.91400  1.0000
  S   S16       1.0  0.58300  0.86300  0.95600  1.0000
  Si  Si1       1.0  0.69700  0.31900  0.03040  1.0000
  Si  Si2       1.0  0.37800  0.68100  0.47000  1.0000
  Si  Si3       1.0  0.62200  0.31900  0.53000  1.0000
  Si  Si4       1.0  0.30300  0.68100  0.97000  1.0000
