data_image0
_chemical_formula_structural       Ag8Cd2Ge4S14
_chemical_formula_sum              "Ag8 Cd2 Ge4 S14"
_cell_length_a       6.91979
_cell_length_b       9.5287
_cell_length_c       10.6355
_cell_angle_alpha    93.0325
_cell_angle_beta     90
_cell_angle_gamma    111.291

_space_group_name_H-M_alt    "P 1"
_space_group_IT_number       1

loop_
  _space_group_symop_operation_xyz
  'x, y, z'

loop_
  _atom_site_type_symbol
  _atom_site_label
  _atom_site_symmetry_multiplicity
  _atom_site_fract_x
  _atom_site_fract_y
  _atom_site_fract_z
  _atom_site_occupancy
  Ag  Ag1       1.0  0.81700  0.99400  0.00135  1.0000
  Ag  Ag2       1.0  0.89500  0.42100  0.09900  1.0000
  Ag  Ag3       1.0  0.73600  0.12400  0.38400  1.0000
  Ag  Ag4       1.0  0.15300  0.55300  0.44900  1.0000
  Ag  Ag5       1.0  0.17700  0.99400  0.50100  1.0000
  Ag  Ag6       1.0  0.52600  0.42100  0.59900  1.0000
  Ag  Ag7       1.0  0.38800  0.12400  0.88400  1.0000
  Ag  Ag8       1.0  0.40000  0.55300  0.94900  1.0000
  Cd  Cd1       1.0  0.67300  0.70000  0.28800  1.0000
  Cd  Cd2       1.0  0.02750  0.70000  0.78800  1.0000
  Ge  Ge1       1.0  0.25200  0.85500  0.16800  1.0000
  Ge  Ge2       1.0  0.31000  0.27600  0.24300  1.0000
  Ge  Ge3       1.0  0.60300  0.85500  0.66800  1.0000
  Ge  Ge4       1.0  0.96600  0.27600  0.74300  1.0000
  S   S1        1.0  0.13400  0.67000  0.01580  1.0000
  S   S2        1.0  0.19800  0.06230  0.09450  1.0000
  S   S3        1.0  0.54800  0.46200  0.14100  1.0000
  S   S4        1.0  0.59500  0.92000  0.20200  1.0000
  S   S5        1.0  0.03260  0.33300  0.28600  1.0000
  S   S6        1.0  0.06480  0.77100  0.34000  1.0000
  S   S7        1.0  0.44300  0.22500  0.41500  1.0000
  S   S8        1.0  0.53500  0.67000  0.51600  1.0000
  S   S9        1.0  0.86400  0.06230  0.59500  1.0000
  S   S10       1.0  0.91300  0.46200  0.64100  1.0000
  S   S11       1.0  0.32500  0.92000  0.70200  1.0000
  S   S12       1.0  0.30000  0.33300  0.78600  1.0000
  S   S13       1.0  0.70700  0.77100  0.84000  1.0000
  S   S14       1.0  0.78100  0.22500  0.91500  1.0000
