data_image0
_chemical_formula_structural       Er8Pb4Se16
_chemical_formula_sum              "Er8 Pb4 Se16"
_cell_length_a       12.542
_cell_length_b       4.10323
_cell_length_c       14.8992
_cell_angle_alpha    90
_cell_angle_beta     90
_cell_angle_gamma    90

_space_group_name_H-M_alt    "P 1"
_space_group_IT_number       1

loop_
  _space_group_symop_operation_xyz
  'x, y, z'

loop_
  _atom_site_type_symbol
  _atom_site_label
  _atom_site_symmetry_multiplicity
  _atom_site_fract_x
  _atom_site_fract_y
  _atom_site_fract_z
  _atom_site_occupancy
  Er  Er1       1.0  0.58100  0.75000  0.09670  1.0000
  Er  Er2       1.0  0.93800  0.25000  0.11000  1.0000
  Er  Er3       1.0  0.43800  0.25000  0.39000  1.0000
  Er  Er4       1.0  0.08150  0.75000  0.40300  1.0000
  Er  Er5       1.0  0.91900  0.25000  0.59700  1.0000
  Er  Er6       1.0  0.56200  0.75000  0.61000  1.0000
  Er  Er7       1.0  0.06190  0.75000  0.89000  1.0000
  Er  Er8       1.0  0.41900  0.25000  0.90300  1.0000
  Pb  Pb1       1.0  0.26300  0.25000  0.16900  1.0000
  Pb  Pb2       1.0  0.76300  0.25000  0.33100  1.0000
  Pb  Pb3       1.0  0.23700  0.75000  0.66900  1.0000
  Pb  Pb4       1.0  0.73700  0.75000  0.83100  1.0000
  Se  Se1       1.0  0.36900  0.75000  0.03030  1.0000
  Se  Se2       1.0  0.08940  0.75000  0.07730  1.0000
  Se  Se3       1.0  0.79200  0.75000  0.17000  1.0000
  Se  Se4       1.0  0.52400  0.25000  0.21400  1.0000
  Se  Se5       1.0  0.02360  0.25000  0.28600  1.0000
  Se  Se6       1.0  0.29200  0.75000  0.33000  1.0000
  Se  Se7       1.0  0.58900  0.75000  0.42300  1.0000
  Se  Se8       1.0  0.86900  0.75000  0.47000  1.0000
  Se  Se9       1.0  0.13100  0.25000  0.53000  1.0000
  Se  Se10      1.0  0.41100  0.25000  0.57700  1.0000
  Se  Se11      1.0  0.70800  0.25000  0.67000  1.0000
  Se  Se12      1.0  0.97600  0.75000  0.71400  1.0000
  Se  Se13      1.0  0.47600  0.75000  0.78600  1.0000
  Se  Se14      1.0  0.20800  0.25000  0.83000  1.0000
  Se  Se15      1.0  0.91100  0.25000  0.92300  1.0000
  Se  Se16      1.0  0.63100  0.25000  0.97000  1.0000
