data_image0
_chemical_formula_structural       Cu20Sn4Th4
_chemical_formula_sum              "Cu20 Sn4 Th4"
_cell_length_a       8.3281
_cell_length_b       5.08439
_cell_length_c       10.5944
_cell_angle_alpha    90
_cell_angle_beta     90
_cell_angle_gamma    90

_space_group_name_H-M_alt    "P 1"
_space_group_IT_number       1

loop_
  _space_group_symop_operation_xyz
  'x, y, z'

loop_
  _atom_site_type_symbol
  _atom_site_label
  _atom_site_symmetry_multiplicity
  _atom_site_fract_x
  _atom_site_fract_y
  _atom_site_fract_z
  _atom_site_occupancy
  Cu  Cu1       1.0  0.41900  0.25000  0.01810  1.0000
  Cu  Cu2       1.0  0.06610  0.25000  0.10500  1.0000
  Cu  Cu3       1.0  0.57100  0.50200  0.18700  1.0000
  Cu  Cu4       1.0  0.57100  0.99800  0.18700  1.0000
  Cu  Cu5       1.0  0.31900  0.25000  0.24500  1.0000
  Cu  Cu6       1.0  0.81900  0.25000  0.25500  1.0000
  Cu  Cu7       1.0  0.07080  0.50200  0.31300  1.0000
  Cu  Cu8       1.0  0.07080  0.99800  0.31300  1.0000
  Cu  Cu9       1.0  0.56600  0.25000  0.39500  1.0000
  Cu  Cu10      1.0  0.91900  0.25000  0.48200  1.0000
  Cu  Cu11      1.0  0.08090  0.75000  0.51800  1.0000
  Cu  Cu12      1.0  0.43400  0.75000  0.60500  1.0000
  Cu  Cu13      1.0  0.92900  0.00194  0.68700  1.0000
  Cu  Cu14      1.0  0.92900  0.49800  0.68700  1.0000
  Cu  Cu15      1.0  0.18100  0.75000  0.74500  1.0000
  Cu  Cu16      1.0  0.68100  0.75000  0.75500  1.0000
  Cu  Cu17      1.0  0.42900  0.00194  0.81300  1.0000
  Cu  Cu18      1.0  0.42900  0.49800  0.81300  1.0000
  Cu  Cu19      1.0  0.93400  0.75000  0.89500  1.0000
  Cu  Cu20      1.0  0.58100  0.75000  0.98200  1.0000
  Sn  Sn1       1.0  0.86400  0.75000  0.14100  1.0000
  Sn  Sn2       1.0  0.36400  0.75000  0.35900  1.0000
  Sn  Sn3       1.0  0.63600  0.25000  0.64100  1.0000
  Sn  Sn4       1.0  0.13600  0.25000  0.85900  1.0000
  Th  Th1       1.0  0.24900  0.75000  0.05690  1.0000
  Th  Th2       1.0  0.74900  0.75000  0.44300  1.0000
  Th  Th3       1.0  0.25100  0.25000  0.55700  1.0000
  Th  Th4       1.0  0.75100  0.25000  0.94300  1.0000
