data_image0
_chemical_formula_structural       Bi4Ge6O18
_chemical_formula_sum              "Bi4 Ge6 O18"
_cell_length_a       6.94486
_cell_length_b       6.94479
_cell_length_c       9.81194
_cell_angle_alpha    90
_cell_angle_beta     90
_cell_angle_gamma    120

_space_group_name_H-M_alt    "P 1"
_space_group_IT_number       1

loop_
  _space_group_symop_operation_xyz
  'x, y, z'

loop_
  _atom_site_type_symbol
  _atom_site_label
  _atom_site_symmetry_multiplicity
  _atom_site_fract_x
  _atom_site_fract_y
  _atom_site_fract_z
  _atom_site_occupancy
  Bi  Bi1       1.0  0.33300  0.66700  0.03600  1.0000
  Bi  Bi2       1.0  0.33300  0.66700  0.46400  1.0000
  Bi  Bi3       1.0  0.66700  0.33300  0.53600  1.0000
  Bi  Bi4       1.0  0.66700  0.33300  0.96400  1.0000
  Ge  Ge1       1.0  0.29500  0.07780  0.25000  1.0000
  Ge  Ge2       1.0  0.92200  0.21700  0.25000  1.0000
  Ge  Ge3       1.0  0.78300  0.70500  0.25000  1.0000
  Ge  Ge4       1.0  0.21700  0.29500  0.75000  1.0000
  Ge  Ge5       1.0  0.07780  0.78300  0.75000  1.0000
  Ge  Ge6       1.0  0.70500  0.92200  0.75000  1.0000
  O   O1        1.0  0.42800  0.07530  0.10000  1.0000
  O   O2        1.0  0.92500  0.35300  0.10000  1.0000
  O   O3        1.0  0.64700  0.57200  0.10000  1.0000
  O   O4        1.0  0.20400  0.27400  0.25000  1.0000
  O   O5        1.0  0.06940  0.79600  0.25000  1.0000
  O   O6        1.0  0.72600  0.93100  0.25000  1.0000
  O   O7        1.0  0.42800  0.07530  0.40000  1.0000
  O   O8        1.0  0.92500  0.35300  0.40000  1.0000
  O   O9        1.0  0.64700  0.57200  0.40000  1.0000
  O   O10       1.0  0.35300  0.42800  0.60000  1.0000
  O   O11       1.0  0.07530  0.64700  0.60000  1.0000
  O   O12       1.0  0.57200  0.92500  0.60000  1.0000
  O   O13       1.0  0.27400  0.06940  0.75000  1.0000
  O   O14       1.0  0.93100  0.20400  0.75000  1.0000
  O   O15       1.0  0.79600  0.72600  0.75000  1.0000
  O   O16       1.0  0.35300  0.42800  0.90000  1.0000
  O   O17       1.0  0.07530  0.64700  0.90000  1.0000
  O   O18       1.0  0.57200  0.92500  0.90000  1.0000
