data_image0
_chemical_formula_structural       Dy4Ga18Ru6
_chemical_formula_sum              "Dy4 Ga18 Ru6"
_cell_length_a       7.45969
_cell_length_b       7.45969
_cell_length_c       9.6949
_cell_angle_alpha    90
_cell_angle_beta     90
_cell_angle_gamma    118.984

_space_group_name_H-M_alt    "P 1"
_space_group_IT_number       1

loop_
  _space_group_symop_operation_xyz
  'x, y, z'

loop_
  _atom_site_type_symbol
  _atom_site_label
  _atom_site_symmetry_multiplicity
  _atom_site_fract_x
  _atom_site_fract_y
  _atom_site_fract_z
  _atom_site_occupancy
  Dy  Dy1       1.0  0.99800  0.67600  0.25000  1.0000
  Dy  Dy2       1.0  0.67600  0.99800  0.25000  1.0000
  Dy  Dy3       1.0  0.32400  0.00187  0.75000  1.0000
  Dy  Dy4       1.0  0.00187  0.32400  0.75000  1.0000
  Ga  Ga1       1.0  0.66200  0.66200  0.06170  1.0000
  Ga  Ga2       1.0  0.33800  0.00961  0.07720  1.0000
  Ga  Ga3       1.0  0.00961  0.33800  0.07720  1.0000
  Ga  Ga4       1.0  0.13300  0.13300  0.25000  1.0000
  Ga  Ga5       1.0  0.55600  0.34000  0.25000  1.0000
  Ga  Ga6       1.0  0.34000  0.55600  0.25000  1.0000
  Ga  Ga7       1.0  0.33800  0.00961  0.42300  1.0000
  Ga  Ga8       1.0  0.00961  0.33800  0.42300  1.0000
  Ga  Ga9       1.0  0.66200  0.66200  0.43800  1.0000
  Ga  Ga10      1.0  0.33800  0.33800  0.56200  1.0000
  Ga  Ga11      1.0  0.99000  0.66200  0.57700  1.0000
  Ga  Ga12      1.0  0.66200  0.99000  0.57700  1.0000
  Ga  Ga13      1.0  0.66000  0.44400  0.75000  1.0000
  Ga  Ga14      1.0  0.44400  0.66000  0.75000  1.0000
  Ga  Ga15      1.0  0.86700  0.86700  0.75000  1.0000
  Ga  Ga16      1.0  0.99000  0.66200  0.92300  1.0000
  Ga  Ga17      1.0  0.66200  0.99000  0.92300  1.0000
  Ga  Ga18      1.0  0.33800  0.33800  0.93800  1.0000
  Ru  Ru1       1.0  0.00000  0.00000  0.00000  1.0000
  Ru  Ru2       1.0  0.67700  0.32300  0.00000  1.0000
  Ru  Ru3       1.0  0.32300  0.67700  0.00000  1.0000
  Ru  Ru4       1.0  0.00000  0.00000  0.50000  1.0000
  Ru  Ru5       1.0  0.67700  0.32300  0.50000  1.0000
  Ru  Ru6       1.0  0.32300  0.67700  0.50000  1.0000
