data_image0
_chemical_formula_structural       Bi2O9SrTa2
_chemical_formula_sum              "Bi2 O9 Sr1 Ta2"
_cell_length_a       3.91656
_cell_length_b       3.91656
_cell_length_c       12.626
_cell_angle_alpha    98.9225
_cell_angle_beta     98.9225
_cell_angle_gamma    90

_space_group_name_H-M_alt    "P 1"
_space_group_IT_number       1

loop_
  _space_group_symop_operation_xyz
  'x, y, z'

loop_
  _atom_site_type_symbol
  _atom_site_label
  _atom_site_symmetry_multiplicity
  _atom_site_fract_x
  _atom_site_fract_y
  _atom_site_fract_z
  _atom_site_occupancy
  Bi  Bi1       1.0  0.20000  0.20000  0.40000  1.0000
  Bi  Bi2       1.0  0.80000  0.80000  0.60000  1.0000
  O   O1        1.0  0.50000  0.50000  0.00000  1.0000
  O   O2        1.0  0.57800  0.07770  0.15500  1.0000
  O   O3        1.0  0.07770  0.57800  0.15500  1.0000
  O   O4        1.0  0.66300  0.66300  0.32700  1.0000
  O   O5        1.0  0.75000  0.25000  0.50000  1.0000
  O   O6        1.0  0.25000  0.75000  0.50000  1.0000
  O   O7        1.0  0.33700  0.33700  0.67300  1.0000
  O   O8        1.0  0.92200  0.42200  0.84500  1.0000
  O   O9        1.0  0.42200  0.92200  0.84500  1.0000
  Sr  Sr1       1.0  0.00000  0.00000  0.00000  1.0000
  Ta  Ta1       1.0  0.58600  0.58600  0.17300  1.0000
  Ta  Ta2       1.0  0.41400  0.41400  0.82700  1.0000
