data_image0
_chemical_formula_structural       K4O16Sr4V4
_chemical_formula_sum              "K4 O16 Sr4 V4"
_cell_length_a       7.32931
_cell_length_b       5.64689
_cell_length_c       9.80378
_cell_angle_alpha    90
_cell_angle_beta     90
_cell_angle_gamma    90

_space_group_name_H-M_alt    "P 1"
_space_group_IT_number       1

loop_
  _space_group_symop_operation_xyz
  'x, y, z'

loop_
  _atom_site_type_symbol
  _atom_site_label
  _atom_site_symmetry_multiplicity
  _atom_site_fract_x
  _atom_site_fract_y
  _atom_site_fract_z
  _atom_site_occupancy
  K   K1        1.0  0.14800  0.25000  0.08530  1.0000
  K   K2        1.0  0.35200  0.75000  0.58500  1.0000
  K   K3        1.0  0.64800  0.25000  0.41500  1.0000
  K   K4        1.0  0.85200  0.75000  0.91500  1.0000
  O   O1        1.0  0.80400  0.00008  0.16500  1.0000
  O   O2        1.0  0.69600  0.00000  0.66500  1.0000
  O   O3        1.0  0.30400  0.50000  0.33500  1.0000
  O   O4        1.0  0.19600  0.50000  0.83500  1.0000
  O   O5        1.0  0.19600  0.00000  0.83500  1.0000
  O   O6        1.0  0.30400  0.00008  0.33500  1.0000
  O   O7        1.0  0.69600  0.50000  0.66500  1.0000
  O   O8        1.0  0.80400  0.50000  0.16500  1.0000
  O   O9        1.0  0.81000  0.25000  0.91600  1.0000
  O   O10       1.0  0.69000  0.75000  0.41600  1.0000
  O   O11       1.0  0.31000  0.25000  0.58400  1.0000
  O   O12       1.0  0.19000  0.75000  0.08400  1.0000
  O   O13       1.0  0.99500  0.25000  0.42400  1.0000
  O   O14       1.0  0.50500  0.75000  0.92400  1.0000
  O   O15       1.0  0.49500  0.25000  0.07620  1.0000
  O   O16       1.0  0.00517  0.75000  0.57600  1.0000
  Sr  Sr1       1.0  0.98900  0.25000  0.69300  1.0000
  Sr  Sr2       1.0  0.51100  0.75000  0.19300  1.0000
  Sr  Sr3       1.0  0.48900  0.25000  0.80700  1.0000
  Sr  Sr4       1.0  0.01120  0.75000  0.30700  1.0000
  V   V1        1.0  0.72900  0.25000  0.08170  1.0000
  V   V2        1.0  0.77100  0.75000  0.58200  1.0000
  V   V3        1.0  0.22900  0.25000  0.41800  1.0000
  V   V4        1.0  0.27100  0.75000  0.91800  1.0000
