data_image0
_chemical_formula_structural       B4Ba4Bi4O16
_chemical_formula_sum              "B4 Ba4 Bi4 O16"
_cell_length_a       8.5303
_cell_length_b       9.64444
_cell_length_c       5.15364
_cell_angle_alpha    90
_cell_angle_beta     90
_cell_angle_gamma    90

_space_group_name_H-M_alt    "P 1"
_space_group_IT_number       1

loop_
  _space_group_symop_operation_xyz
  'x, y, z'

loop_
  _atom_site_type_symbol
  _atom_site_label
  _atom_site_symmetry_multiplicity
  _atom_site_fract_x
  _atom_site_fract_y
  _atom_site_fract_z
  _atom_site_occupancy
  B   B1        1.0  0.70000  0.05880  0.25000  1.0000
  B   B2        1.0  0.20000  0.44100  0.25000  1.0000
  B   B3        1.0  0.80000  0.55900  0.75000  1.0000
  B   B4        1.0  0.30000  0.94100  0.75000  1.0000
  Ba  Ba1       1.0  0.49400  0.68400  0.24900  1.0000
  Ba  Ba2       1.0  0.99400  0.81600  0.24900  1.0000
  Ba  Ba3       1.0  0.00578  0.18400  0.74900  1.0000
  Ba  Ba4       1.0  0.50600  0.31600  0.74900  1.0000
  Bi  Bi1       1.0  0.30800  0.06600  0.24800  1.0000
  Bi  Bi2       1.0  0.80800  0.43400  0.24800  1.0000
  Bi  Bi3       1.0  0.19200  0.56600  0.74800  1.0000
  Bi  Bi4       1.0  0.69200  0.93400  0.74800  1.0000
  O   O1        1.0  0.70600  0.12500  0.01270  1.0000
  O   O2        1.0  0.20600  0.37500  0.01270  1.0000
  O   O3        1.0  0.07230  0.08850  0.24900  1.0000
  O   O4        1.0  0.57200  0.41100  0.24900  1.0000
  O   O5        1.0  0.18500  0.58500  0.25100  1.0000
  O   O6        1.0  0.68500  0.91500  0.25100  1.0000
  O   O7        1.0  0.70600  0.12500  0.48600  1.0000
  O   O8        1.0  0.20600  0.37500  0.48600  1.0000
  O   O9        1.0  0.79400  0.62500  0.51300  1.0000
  O   O10       1.0  0.29400  0.87500  0.51300  1.0000
  O   O11       1.0  0.42800  0.58900  0.74900  1.0000
  O   O12       1.0  0.92800  0.91100  0.74900  1.0000
  O   O13       1.0  0.31500  0.08530  0.75100  1.0000
  O   O14       1.0  0.81500  0.41500  0.75100  1.0000
  O   O15       1.0  0.79400  0.62500  0.98600  1.0000
  O   O16       1.0  0.29400  0.87500  0.98600  1.0000
