data_image0
_chemical_formula_structural       K6Mo4Na2O16
_chemical_formula_sum              "K6 Mo4 Na2 O16"
_cell_length_a       5.95469
_cell_length_b       5.93716
_cell_length_c       15.1219
_cell_angle_alpha    90.6874
_cell_angle_beta     90
_cell_angle_gamma    120.098

_space_group_name_H-M_alt    "P 1"
_space_group_IT_number       1

loop_
  _space_group_symop_operation_xyz
  'x, y, z'

loop_
  _atom_site_type_symbol
  _atom_site_label
  _atom_site_symmetry_multiplicity
  _atom_site_fract_x
  _atom_site_fract_y
  _atom_site_fract_z
  _atom_site_occupancy
  K   K1        1.0  0.35300  0.65600  0.08100  1.0000
  K   K2        1.0  0.06150  0.00000  0.25000  1.0000
  K   K3        1.0  0.69700  0.34400  0.41900  1.0000
  K   K4        1.0  0.30300  0.65600  0.58100  1.0000
  K   K5        1.0  0.93900  0.00000  0.75000  1.0000
  K   K6        1.0  0.64700  0.34400  0.91900  1.0000
  Mo  Mo1       1.0  0.68500  0.32500  0.14100  1.0000
  Mo  Mo2       1.0  0.35900  0.67500  0.35900  1.0000
  Mo  Mo3       1.0  0.64100  0.32500  0.64100  1.0000
  Mo  Mo4       1.0  0.31500  0.67500  0.85900  1.0000
  Na  Na1       1.0  0.00000  0.00000  0.00000  1.0000
  Na  Na2       1.0  0.00000  0.00000  0.50000  1.0000
  O   O1        1.0  0.38300  0.15800  0.08190  1.0000
  O   O2        1.0  0.86200  0.63800  0.09100  1.0000
  O   O3        1.0  0.85200  0.15000  0.12200  1.0000
  O   O4        1.0  0.26800  0.65100  0.24500  1.0000
  O   O5        1.0  0.61600  0.34900  0.25500  1.0000
  O   O6        1.0  0.70200  0.85000  0.37800  1.0000
  O   O7        1.0  0.22400  0.36200  0.40900  1.0000
  O   O8        1.0  0.22500  0.84200  0.41800  1.0000
  O   O9        1.0  0.77500  0.15800  0.58200  1.0000
  O   O10       1.0  0.77600  0.63800  0.59100  1.0000
  O   O11       1.0  0.29800  0.15000  0.62200  1.0000
  O   O12       1.0  0.38400  0.65100  0.74500  1.0000
  O   O13       1.0  0.73200  0.34900  0.75500  1.0000
  O   O14       1.0  0.14800  0.85000  0.87800  1.0000
  O   O15       1.0  0.13800  0.36200  0.90900  1.0000
  O   O16       1.0  0.61700  0.84200  0.91800  1.0000
