data_image0
_chemical_formula_structural       Br8Hg12Se8
_chemical_formula_sum              "Br8 Hg12 Se8"
_cell_length_a       9.46521
_cell_length_b       9.92089
_cell_length_c       10.0313
_cell_angle_alpha    90.4039
_cell_angle_beta     118.15
_cell_angle_gamma    90

_space_group_name_H-M_alt    "P 1"
_space_group_IT_number       1

loop_
  _space_group_symop_operation_xyz
  'x, y, z'

loop_
  _atom_site_type_symbol
  _atom_site_label
  _atom_site_symmetry_multiplicity
  _atom_site_fract_x
  _atom_site_fract_y
  _atom_site_fract_z
  _atom_site_occupancy
  Br  Br1       1.0  0.11300  0.00149  0.22700  1.0000
  Br  Br2       1.0  0.62400  0.48100  0.24700  1.0000
  Br  Br3       1.0  0.62600  0.02580  0.25200  1.0000
  Br  Br4       1.0  0.12700  0.47700  0.25400  1.0000
  Br  Br5       1.0  0.87300  0.52300  0.74600  1.0000
  Br  Br6       1.0  0.37400  0.97400  0.74800  1.0000
  Br  Br7       1.0  0.37600  0.51900  0.75300  1.0000
  Br  Br8       1.0  0.88700  0.99900  0.77300  1.0000
  Hg  Hg1       1.0  0.23500  0.50000  0.00000  1.0000
  Hg  Hg2       1.0  0.76500  0.50000  0.00000  1.0000
  Hg  Hg3       1.0  0.52900  0.77200  0.05790  1.0000
  Hg  Hg4       1.0  0.34700  0.19800  0.24700  1.0000
  Hg  Hg5       1.0  0.90000  0.19800  0.24700  1.0000
  Hg  Hg6       1.0  0.22700  0.78800  0.45300  1.0000
  Hg  Hg7       1.0  0.00000  0.50000  0.50000  1.0000
  Hg  Hg8       1.0  0.50000  0.50000  0.50000  1.0000
  Hg  Hg9       1.0  0.77300  0.21200  0.54700  1.0000
  Hg  Hg10      1.0  0.10000  0.80200  0.75300  1.0000
  Hg  Hg11      1.0  0.65300  0.80200  0.75300  1.0000
  Hg  Hg12      1.0  0.47100  0.22800  0.94200  1.0000
  Se  Se1       1.0  0.25200  0.75600  0.03970  1.0000
  Se  Se2       1.0  0.78800  0.75600  0.03970  1.0000
  Se  Se3       1.0  0.50100  0.75600  0.46700  1.0000
  Se  Se4       1.0  0.96600  0.75600  0.46700  1.0000
  Se  Se5       1.0  0.03440  0.24400  0.53300  1.0000
  Se  Se6       1.0  0.49900  0.24400  0.53300  1.0000
  Se  Se7       1.0  0.21200  0.24400  0.96000  1.0000
  Se  Se8       1.0  0.74800  0.24400  0.96000  1.0000
