data_image0
_chemical_formula_structural       Co4Li4O16P4
_chemical_formula_sum              "Co4 Li4 O16 P4"
_cell_length_a       10.0872
_cell_length_b       5.89325
_cell_length_c       4.688
_cell_angle_alpha    90
_cell_angle_beta     90
_cell_angle_gamma    90

_space_group_name_H-M_alt    "P 1"
_space_group_IT_number       1

loop_
  _space_group_symop_operation_xyz
  'x, y, z'

loop_
  _atom_site_type_symbol
  _atom_site_label
  _atom_site_symmetry_multiplicity
  _atom_site_fract_x
  _atom_site_fract_y
  _atom_site_fract_z
  _atom_site_occupancy
  Co  Co1       1.0  0.72500  0.75000  0.01480  1.0000
  Co  Co2       1.0  0.22500  0.75000  0.48500  1.0000
  Co  Co3       1.0  0.77500  0.25000  0.51500  1.0000
  Co  Co4       1.0  0.27500  0.25000  0.98500  1.0000
  Li  Li1       1.0  0.00000  0.00000  0.00000  1.0000
  Li  Li2       1.0  0.00000  0.50000  0.00000  1.0000
  Li  Li3       1.0  0.50000  0.00000  0.50000  1.0000
  Li  Li4       1.0  0.50000  0.50000  0.50000  1.0000
  O   O1        1.0  0.44900  0.25000  0.20800  1.0000
  O   O2        1.0  0.66200  0.04100  0.22600  1.0000
  O   O3        1.0  0.66200  0.45900  0.22600  1.0000
  O   O4        1.0  0.40400  0.75000  0.24200  1.0000
  O   O5        1.0  0.90400  0.75000  0.25800  1.0000
  O   O6        1.0  0.16200  0.04100  0.27400  1.0000
  O   O7        1.0  0.16200  0.45900  0.27400  1.0000
  O   O8        1.0  0.94900  0.25000  0.29200  1.0000
  O   O9        1.0  0.05140  0.75000  0.70800  1.0000
  O   O10       1.0  0.83800  0.54100  0.72600  1.0000
  O   O11       1.0  0.83800  0.95900  0.72600  1.0000
  O   O12       1.0  0.09650  0.25000  0.74200  1.0000
  O   O13       1.0  0.59600  0.25000  0.75800  1.0000
  O   O14       1.0  0.33800  0.54100  0.77400  1.0000
  O   O15       1.0  0.33800  0.95900  0.77400  1.0000
  O   O16       1.0  0.55100  0.75000  0.79200  1.0000
  P   P1        1.0  0.59200  0.25000  0.08470  1.0000
  P   P2        1.0  0.09170  0.25000  0.41500  1.0000
  P   P3        1.0  0.90800  0.75000  0.58500  1.0000
  P   P4        1.0  0.40800  0.75000  0.91500  1.0000
