data_image0
_chemical_formula_structural       As4Mn4Na4O16
_chemical_formula_sum              "As4 Mn4 Na4 O16"
_cell_length_a       10.8472
_cell_length_b       6.35212
_cell_length_c       5.17003
_cell_angle_alpha    90
_cell_angle_beta     90
_cell_angle_gamma    90

_space_group_name_H-M_alt    "P 1"
_space_group_IT_number       1

loop_
  _space_group_symop_operation_xyz
  'x, y, z'

loop_
  _atom_site_type_symbol
  _atom_site_label
  _atom_site_symmetry_multiplicity
  _atom_site_fract_x
  _atom_site_fract_y
  _atom_site_fract_z
  _atom_site_occupancy
  As  As1       1.0  0.60400  0.75000  0.05730  1.0000
  As  As2       1.0  0.10400  0.75000  0.44300  1.0000
  As  As3       1.0  0.89600  0.25000  0.55700  1.0000
  As  As4       1.0  0.39600  0.25000  0.94300  1.0000
  Mn  Mn1       1.0  0.72000  0.25000  0.00317  1.0000
  Mn  Mn2       1.0  0.22000  0.25000  0.49700  1.0000
  Mn  Mn3       1.0  0.78000  0.75000  0.50300  1.0000
  Mn  Mn4       1.0  0.28000  0.75000  0.99700  1.0000
  Na  Na1       1.0  0.00000  0.00000  0.00000  1.0000
  Na  Na2       1.0  0.00000  0.50000  0.00000  1.0000
  Na  Na3       1.0  0.50000  0.00000  0.50000  1.0000
  Na  Na4       1.0  0.50000  0.50000  0.50000  1.0000
  O   O1        1.0  0.45500  0.75000  0.17500  1.0000
  O   O2        1.0  0.67800  0.54100  0.20600  1.0000
  O   O3        1.0  0.67800  0.95900  0.20600  1.0000
  O   O4        1.0  0.89100  0.25000  0.22900  1.0000
  O   O5        1.0  0.39100  0.25000  0.27100  1.0000
  O   O6        1.0  0.17800  0.54100  0.29400  1.0000
  O   O7        1.0  0.17800  0.95900  0.29400  1.0000
  O   O8        1.0  0.95500  0.75000  0.32500  1.0000
  O   O9        1.0  0.04450  0.25000  0.67500  1.0000
  O   O10       1.0  0.82200  0.04060  0.70600  1.0000
  O   O11       1.0  0.82200  0.45900  0.70600  1.0000
  O   O12       1.0  0.60900  0.75000  0.72900  1.0000
  O   O13       1.0  0.10900  0.75000  0.77100  1.0000
  O   O14       1.0  0.32200  0.04060  0.79400  1.0000
  O   O15       1.0  0.32200  0.45900  0.79400  1.0000
  O   O16       1.0  0.54500  0.25000  0.82500  1.0000
