data_image0
_chemical_formula_structural       Cl2N4O12S10
_chemical_formula_sum              "Cl2 N4 O12 S10"
_cell_length_a       7.48961
_cell_length_b       10.4643
_cell_length_c       6.45396
_cell_angle_alpha    100.673
_cell_angle_beta     114.436
_cell_angle_gamma    90.5262

_space_group_name_H-M_alt    "P 1"
_space_group_IT_number       1

loop_
  _space_group_symop_operation_xyz
  'x, y, z'

loop_
  _atom_site_type_symbol
  _atom_site_label
  _atom_site_symmetry_multiplicity
  _atom_site_fract_x
  _atom_site_fract_y
  _atom_site_fract_z
  _atom_site_occupancy
  Cl  Cl1       1.0  0.84100  0.41600  0.12800  1.0000
  Cl  Cl2       1.0  0.15900  0.58400  0.87200  1.0000
  N   N1        1.0  0.69500  0.91000  0.08950  1.0000
  N   N2        1.0  0.24000  0.23500  0.22900  1.0000
  N   N3        1.0  0.76000  0.76500  0.77100  1.0000
  N   N4        1.0  0.30500  0.09040  0.91000  1.0000
  O   O1        1.0  0.11000  0.84200  0.22700  1.0000
  O   O2        1.0  0.45700  0.49400  0.23600  1.0000
  O   O3        1.0  0.48500  0.73300  0.24600  1.0000
  O   O4        1.0  0.23900  0.63000  0.34600  1.0000
  O   O5        1.0  0.66500  0.15400  0.36800  1.0000
  O   O6        1.0  0.99800  0.73600  0.46500  1.0000
  O   O7        1.0  0.00222  0.26400  0.53500  1.0000
  O   O8        1.0  0.33500  0.84600  0.63200  1.0000
  O   O9        1.0  0.76100  0.37000  0.65400  1.0000
  O   O10       1.0  0.51500  0.26700  0.75400  1.0000
  O   O11       1.0  0.54300  0.50600  0.76400  1.0000
  O   O12       1.0  0.89000  0.15800  0.77300  1.0000
  S   S1        1.0  0.76300  0.02660  0.00188  1.0000
  S   S2        1.0  0.30500  0.23700  0.02650  1.0000
  S   S3        1.0  0.36800  0.61400  0.20400  1.0000
  S   S4        1.0  0.17800  0.09850  0.27200  1.0000
  S   S5        1.0  0.16300  0.78300  0.43000  1.0000
  S   S6        1.0  0.83700  0.21700  0.57000  1.0000
  S   S7        1.0  0.82200  0.90100  0.72800  1.0000
  S   S8        1.0  0.63200  0.38600  0.79600  1.0000
  S   S9        1.0  0.69500  0.76300  0.97400  1.0000
  S   S10       1.0  0.23700  0.97300  0.99800  1.0000
