data_image0
_chemical_formula_structural       Ba10P18
_chemical_formula_sum              "Ba10 P18"
_cell_length_a       9.43037
_cell_length_b       9.43037
_cell_length_c       10.8964
_cell_angle_alpha    105.12
_cell_angle_beta     105.12
_cell_angle_gamma    113.405

_space_group_name_H-M_alt    "P 1"
_space_group_IT_number       1

loop_
  _space_group_symop_operation_xyz
  'x, y, z'

loop_
  _atom_site_type_symbol
  _atom_site_label
  _atom_site_symmetry_multiplicity
  _atom_site_fract_x
  _atom_site_fract_y
  _atom_site_fract_z
  _atom_site_occupancy
  Ba  Ba1       1.0  0.41100  0.41100  0.00000  1.0000
  Ba  Ba2       1.0  0.23400  0.76000  0.13300  1.0000
  Ba  Ba3       1.0  0.86800  0.90000  0.21800  1.0000
  Ba  Ba4       1.0  0.90000  0.43200  0.28200  1.0000
  Ba  Ba5       1.0  0.35000  0.37700  0.36700  1.0000
  Ba  Ba6       1.0  0.66100  0.16100  0.50000  1.0000
  Ba  Ba7       1.0  0.01040  0.98400  0.63300  1.0000
  Ba  Ba8       1.0  0.15000  0.61800  0.71800  1.0000
  Ba  Ba9       1.0  0.68200  0.65000  0.78200  1.0000
  Ba  Ba10      1.0  0.62700  0.10000  0.86700  1.0000
  P   P1        1.0  0.02570  0.02570  0.00000  1.0000
  P   P2        1.0  0.80600  0.51700  0.02030  1.0000
  P   P3        1.0  0.05530  0.28200  0.05760  1.0000
  P   P4        1.0  0.61500  0.03740  0.14600  1.0000
  P   P5        1.0  0.44400  0.14200  0.14800  1.0000
  P   P6        1.0  0.54600  0.74400  0.35200  1.0000
  P   P7        1.0  0.71900  0.64100  0.35400  1.0000
  P   P8        1.0  0.24800  0.97500  0.44200  1.0000
  P   P9        1.0  0.03580  0.24700  0.48000  1.0000
  P   P10       1.0  0.27600  0.77600  0.50000  1.0000
  P   P11       1.0  0.76700  0.55600  0.52000  1.0000
  P   P12       1.0  0.53200  0.80500  0.55800  1.0000
  P   P13       1.0  0.28700  0.36500  0.64600  1.0000
  P   P14       1.0  0.39200  0.19400  0.64800  1.0000
  P   P15       1.0  0.99400  0.29600  0.85200  1.0000
  P   P16       1.0  0.89100  0.46900  0.85400  1.0000
  P   P17       1.0  0.22500  0.99800  0.94200  1.0000
  P   P18       1.0  0.49700  0.78600  0.98000  1.0000
