data_image0
_chemical_formula_structural       Eu4Na4O16Ti4
_chemical_formula_sum              "Eu4 Na4 O16 Ti4"
_cell_length_a       12.4179
_cell_length_b       5.34749
_cell_length_c       5.3479
_cell_angle_alpha    90
_cell_angle_beta     90
_cell_angle_gamma    90

_space_group_name_H-M_alt    "P 1"
_space_group_IT_number       1

loop_
  _space_group_symop_operation_xyz
  'x, y, z'

loop_
  _atom_site_type_symbol
  _atom_site_label
  _atom_site_symmetry_multiplicity
  _atom_site_fract_x
  _atom_site_fract_y
  _atom_site_fract_z
  _atom_site_occupancy
  Eu  Eu1       1.0  0.61000  0.00955  0.25000  1.0000
  Eu  Eu2       1.0  0.39000  0.51000  0.25000  1.0000
  Eu  Eu3       1.0  0.61000  0.49000  0.75000  1.0000
  Eu  Eu4       1.0  0.39000  0.99000  0.75000  1.0000
  Na  Na1       1.0  0.90900  0.00034  0.25000  1.0000
  Na  Na2       1.0  0.09150  0.50000  0.25000  1.0000
  Na  Na3       1.0  0.90900  0.50000  0.75000  1.0000
  Na  Na4       1.0  0.09150  0.00000  0.75000  1.0000
  O   O1        1.0  0.26900  0.25000  0.00000  1.0000
  O   O2        1.0  0.74500  0.25000  0.00000  1.0000
  O   O3        1.0  0.25500  0.75000  0.00000  1.0000
  O   O4        1.0  0.73100  0.75000  0.00000  1.0000
  O   O5        1.0  0.08930  0.03000  0.25000  1.0000
  O   O6        1.0  0.58000  0.48800  0.25000  1.0000
  O   O7        1.0  0.91100  0.53000  0.25000  1.0000
  O   O8        1.0  0.42000  0.98800  0.25000  1.0000
  O   O9        1.0  0.26900  0.25000  0.50000  1.0000
  O   O10       1.0  0.74500  0.25000  0.50000  1.0000
  O   O11       1.0  0.25500  0.75000  0.50000  1.0000
  O   O12       1.0  0.73100  0.75000  0.50000  1.0000
  O   O13       1.0  0.58000  0.01150  0.75000  1.0000
  O   O14       1.0  0.08930  0.47000  0.75000  1.0000
  O   O15       1.0  0.42000  0.51200  0.75000  1.0000
  O   O16       1.0  0.91100  0.97000  0.75000  1.0000
  Ti  Ti1       1.0  0.23300  0.00444  0.25000  1.0000
  Ti  Ti2       1.0  0.76700  0.50400  0.25000  1.0000
  Ti  Ti3       1.0  0.23300  0.49600  0.75000  1.0000
  Ti  Ti4       1.0  0.76700  0.99600  0.75000  1.0000
