data_image0
_chemical_formula_structural       Al4B4O16Pb4
_chemical_formula_sum              "Al4 B4 O16 Pb4"
_cell_length_a       6.86031
_cell_length_b       5.74821
_cell_length_c       8.07672
_cell_angle_alpha    90
_cell_angle_beta     90
_cell_angle_gamma    90

_space_group_name_H-M_alt    "P 1"
_space_group_IT_number       1

loop_
  _space_group_symop_operation_xyz
  'x, y, z'

loop_
  _atom_site_type_symbol
  _atom_site_label
  _atom_site_symmetry_multiplicity
  _atom_site_fract_x
  _atom_site_fract_y
  _atom_site_fract_z
  _atom_site_occupancy
  Al  Al1       1.0  0.00000  0.00000  0.00000  1.0000
  Al  Al2       1.0  0.00000  0.50000  0.00000  1.0000
  Al  Al3       1.0  0.50000  0.00000  0.50000  1.0000
  Al  Al4       1.0  0.50000  0.50000  0.50000  1.0000
  B   B1        1.0  0.72800  0.75000  0.24200  1.0000
  B   B2        1.0  0.22800  0.75000  0.25800  1.0000
  B   B3        1.0  0.77200  0.25000  0.74200  1.0000
  B   B4        1.0  0.27200  0.25000  0.75800  1.0000
  O   O1        1.0  0.83200  0.75000  0.09540  1.0000
  O   O2        1.0  0.89600  0.25000  0.11000  1.0000
  O   O3        1.0  0.17500  0.54200  0.18400  1.0000
  O   O4        1.0  0.17500  0.95800  0.18400  1.0000
  O   O5        1.0  0.67500  0.54200  0.31600  1.0000
  O   O6        1.0  0.67500  0.95800  0.31600  1.0000
  O   O7        1.0  0.39600  0.25000  0.39000  1.0000
  O   O8        1.0  0.33200  0.75000  0.40500  1.0000
  O   O9        1.0  0.66800  0.25000  0.59500  1.0000
  O   O10       1.0  0.60400  0.75000  0.61000  1.0000
  O   O11       1.0  0.32500  0.04240  0.68400  1.0000
  O   O12       1.0  0.32500  0.45800  0.68400  1.0000
  O   O13       1.0  0.82500  0.04240  0.81600  1.0000
  O   O14       1.0  0.82500  0.45800  0.81600  1.0000
  O   O15       1.0  0.10400  0.75000  0.89000  1.0000
  O   O16       1.0  0.16800  0.25000  0.90500  1.0000
  Pb  Pb1       1.0  0.55200  0.25000  0.13500  1.0000
  Pb  Pb2       1.0  0.05170  0.25000  0.36500  1.0000
  Pb  Pb3       1.0  0.94800  0.75000  0.63500  1.0000
  Pb  Pb4       1.0  0.44800  0.75000  0.86500  1.0000
