data_image0
_chemical_formula_structural       Au4Ce4Cu20
_chemical_formula_sum              "Au4 Ce4 Cu20"
_cell_length_a       8.29896
_cell_length_b       5.10597
_cell_length_c       10.393
_cell_angle_alpha    90
_cell_angle_beta     90
_cell_angle_gamma    90

_space_group_name_H-M_alt    "P 1"
_space_group_IT_number       1

loop_
  _space_group_symop_operation_xyz
  'x, y, z'

loop_
  _atom_site_type_symbol
  _atom_site_label
  _atom_site_symmetry_multiplicity
  _atom_site_fract_x
  _atom_site_fract_y
  _atom_site_fract_z
  _atom_site_occupancy
  Au  Au1       1.0  0.14200  0.25000  0.13900  1.0000
  Au  Au2       1.0  0.64200  0.25000  0.36100  1.0000
  Au  Au3       1.0  0.35800  0.75000  0.63900  1.0000
  Au  Au4       1.0  0.85800  0.75000  0.86100  1.0000
  Ce  Ce1       1.0  0.76000  0.25000  0.06360  1.0000
  Ce  Ce2       1.0  0.26000  0.25000  0.43600  1.0000
  Ce  Ce3       1.0  0.74000  0.75000  0.56400  1.0000
  Ce  Ce4       1.0  0.24000  0.75000  0.93600  1.0000
  Cu  Cu1       1.0  0.59000  0.75000  0.01680  1.0000
  Cu  Cu2       1.0  0.94300  0.75000  0.10700  1.0000
  Cu  Cu3       1.0  0.43500  0.50000  0.18700  1.0000
  Cu  Cu4       1.0  0.43500  0.00000  0.18700  1.0000
  Cu  Cu5       1.0  0.68500  0.75000  0.24800  1.0000
  Cu  Cu6       1.0  0.18500  0.75000  0.25200  1.0000
  Cu  Cu7       1.0  0.93500  0.50000  0.31300  1.0000
  Cu  Cu8       1.0  0.93500  0.00000  0.31300  1.0000
  Cu  Cu9       1.0  0.44300  0.75000  0.39300  1.0000
  Cu  Cu10      1.0  0.08980  0.75000  0.48300  1.0000
  Cu  Cu11      1.0  0.91000  0.25000  0.51700  1.0000
  Cu  Cu12      1.0  0.55700  0.25000  0.60700  1.0000
  Cu  Cu13      1.0  0.06490  0.00027  0.68700  1.0000
  Cu  Cu14      1.0  0.06490  0.50000  0.68700  1.0000
  Cu  Cu15      1.0  0.81500  0.25000  0.74800  1.0000
  Cu  Cu16      1.0  0.31500  0.25000  0.75200  1.0000
  Cu  Cu17      1.0  0.56500  0.00027  0.81300  1.0000
  Cu  Cu18      1.0  0.56500  0.50000  0.81300  1.0000
  Cu  Cu19      1.0  0.05670  0.25000  0.89300  1.0000
  Cu  Cu20      1.0  0.41000  0.25000  0.98300  1.0000
