data_image0
_chemical_formula_structural       F20Pb6Zr2
_chemical_formula_sum              "F20 Pb6 Zr2"
_cell_length_a       5.86993
_cell_length_b       8.21262
_cell_length_c       8.21262
_cell_angle_alpha    100.454
_cell_angle_beta     90
_cell_angle_gamma    90

_space_group_name_H-M_alt    "P 1"
_space_group_IT_number       1

loop_
  _space_group_symop_operation_xyz
  'x, y, z'

loop_
  _atom_site_type_symbol
  _atom_site_label
  _atom_site_symmetry_multiplicity
  _atom_site_fract_x
  _atom_site_fract_y
  _atom_site_fract_z
  _atom_site_occupancy
  F   F1        1.0  0.25000  0.26300  0.08140  1.0000
  F   F2        1.0  0.04810  0.90300  0.09710  1.0000
  F   F3        1.0  0.45200  0.90300  0.09710  1.0000
  F   F4        1.0  0.53300  0.60400  0.15100  1.0000
  F   F5        1.0  0.96800  0.60400  0.15100  1.0000
  F   F6        1.0  0.75000  0.08140  0.26300  1.0000
  F   F7        1.0  0.00000  0.36500  0.36500  1.0000
  F   F8        1.0  0.50000  0.36500  0.36500  1.0000
  F   F9        1.0  0.53300  0.84900  0.39600  1.0000
  F   F10       1.0  0.96800  0.84900  0.39600  1.0000
  F   F11       1.0  0.03250  0.15100  0.60400  1.0000
  F   F12       1.0  0.46700  0.15100  0.60400  1.0000
  F   F13       1.0  0.00000  0.63500  0.63500  1.0000
  F   F14       1.0  0.50000  0.63500  0.63500  1.0000
  F   F15       1.0  0.25000  0.91900  0.73700  1.0000
  F   F16       1.0  0.03250  0.39600  0.84900  1.0000
  F   F17       1.0  0.46700  0.39600  0.84900  1.0000
  F   F18       1.0  0.54800  0.09710  0.90300  1.0000
  F   F19       1.0  0.95200  0.09710  0.90300  1.0000
  F   F20       1.0  0.75000  0.73700  0.91900  1.0000
  Pb  Pb1       1.0  0.75000  0.32400  0.10900  1.0000
  Pb  Pb2       1.0  0.25000  0.10900  0.32400  1.0000
  Pb  Pb3       1.0  0.25000  0.61100  0.38900  1.0000
  Pb  Pb4       1.0  0.75000  0.38900  0.61100  1.0000
  Pb  Pb5       1.0  0.75000  0.89100  0.67600  1.0000
  Pb  Pb6       1.0  0.25000  0.67600  0.89100  1.0000
  Zr  Zr1       1.0  0.75000  0.81900  0.18100  1.0000
  Zr  Zr2       1.0  0.25000  0.18100  0.81900  1.0000
