data_image0
_chemical_formula_structural       C4Fe8Mo16
_chemical_formula_sum              "C4 Fe8 Mo16"
_cell_length_a       7.9918
_cell_length_b       7.9918
_cell_length_c       7.9918
_cell_angle_alpha    120
_cell_angle_beta     90
_cell_angle_gamma    120

_space_group_name_H-M_alt    "P 1"
_space_group_IT_number       1

loop_
  _space_group_symop_operation_xyz
  'x, y, z'

loop_
  _atom_site_type_symbol
  _atom_site_label
  _atom_site_symmetry_multiplicity
  _atom_site_fract_x
  _atom_site_fract_y
  _atom_site_fract_z
  _atom_site_occupancy
  C   C1        1.0  0.37500  0.25000  0.12500  1.0000
  C   C2        1.0  0.87500  0.75000  0.12500  1.0000
  C   C3        1.0  0.87500  0.25000  0.12500  1.0000
  C   C4        1.0  0.87500  0.75000  0.62500  1.0000
  Fe  Fe1       1.0  0.58000  0.84000  0.42000  1.0000
  Fe  Fe2       1.0  0.58000  0.16000  0.42000  1.0000
  Fe  Fe3       1.0  0.26000  0.84000  0.42000  1.0000
  Fe  Fe4       1.0  0.17000  0.34000  0.51000  1.0000
  Fe  Fe5       1.0  0.58000  0.16000  0.74000  1.0000
  Fe  Fe6       1.0  0.17000  0.34000  0.83000  1.0000
  Fe  Fe7       1.0  0.17000  0.66000  0.83000  1.0000
  Fe  Fe8       1.0  0.49000  0.66000  0.83000  1.0000
  Mo  Mo1       1.0  0.56000  0.50000  0.06020  1.0000
  Mo  Mo2       1.0  0.56000  0.12000  0.06020  1.0000
  Mo  Mo3       1.0  0.94000  0.50000  0.06020  1.0000
  Mo  Mo4       1.0  0.37500  0.75000  0.12500  1.0000
  Mo  Mo5       1.0  0.19000  0.00000  0.19000  1.0000
  Mo  Mo6       1.0  0.19000  0.38000  0.19000  1.0000
  Mo  Mo7       1.0  0.81000  0.00000  0.19000  1.0000
  Mo  Mo8       1.0  0.56000  0.50000  0.44000  1.0000
  Mo  Mo9       1.0  0.94000  0.50000  0.44000  1.0000
  Mo  Mo10      1.0  0.94000  0.88000  0.44000  1.0000
  Mo  Mo11      1.0  0.37500  0.25000  0.62500  1.0000
  Mo  Mo12      1.0  0.37500  0.75000  0.62500  1.0000
  Mo  Mo13      1.0  0.87500  0.25000  0.62500  1.0000
  Mo  Mo14      1.0  0.19000  0.00000  0.81000  1.0000
  Mo  Mo15      1.0  0.81000  0.00000  0.81000  1.0000
  Mo  Mo16      1.0  0.81000  0.62000  0.81000  1.0000
