data_image0
_chemical_formula_structural       K4P4Pd4S16
_chemical_formula_sum              "K4 P4 Pd4 S16"
_cell_length_a       8.67035
_cell_length_b       8.67035
_cell_length_c       10.6505
_cell_angle_alpha    90
_cell_angle_beta     90
_cell_angle_gamma    90

_space_group_name_H-M_alt    "P 1"
_space_group_IT_number       1

loop_
  _space_group_symop_operation_xyz
  'x, y, z'

loop_
  _atom_site_type_symbol
  _atom_site_label
  _atom_site_symmetry_multiplicity
  _atom_site_fract_x
  _atom_site_fract_y
  _atom_site_fract_z
  _atom_site_occupancy
  K   K1        1.0  0.50000  0.00000  0.25000  1.0000
  K   K2        1.0  0.00000  0.50000  0.25000  1.0000
  K   K3        1.0  0.50000  0.00000  0.75000  1.0000
  K   K4        1.0  0.00000  0.50000  0.75000  1.0000
  P   P1        1.0  0.25100  0.25100  0.00000  1.0000
  P   P2        1.0  0.74900  0.74900  0.00000  1.0000
  P   P3        1.0  0.75100  0.24900  0.50000  1.0000
  P   P4        1.0  0.24900  0.75100  0.50000  1.0000
  Pd  Pd1       1.0  0.00000  0.00000  0.00000  1.0000
  Pd  Pd2       1.0  0.50000  0.50000  0.00000  1.0000
  Pd  Pd3       1.0  0.00000  0.00000  0.50000  1.0000
  Pd  Pd4       1.0  0.50000  0.50000  0.50000  1.0000
  S   S1        1.0  0.27000  0.01410  0.00000  1.0000
  S   S2        1.0  0.01410  0.27000  0.00000  1.0000
  S   S3        1.0  0.98600  0.73000  0.00000  1.0000
  S   S4        1.0  0.73000  0.98600  0.00000  1.0000
  S   S5        1.0  0.35700  0.35700  0.14800  1.0000
  S   S6        1.0  0.64300  0.64300  0.14800  1.0000
  S   S7        1.0  0.85700  0.14300  0.35200  1.0000
  S   S8        1.0  0.14300  0.85700  0.35200  1.0000
  S   S9        1.0  0.51400  0.23000  0.50000  1.0000
  S   S10       1.0  0.77000  0.48600  0.50000  1.0000
  S   S11       1.0  0.23000  0.51400  0.50000  1.0000
  S   S12       1.0  0.48600  0.77000  0.50000  1.0000
  S   S13       1.0  0.85700  0.14300  0.64800  1.0000
  S   S14       1.0  0.14300  0.85700  0.64800  1.0000
  S   S15       1.0  0.35700  0.35700  0.85200  1.0000
  S   S16       1.0  0.64300  0.64300  0.85200  1.0000
