data_image0
_chemical_formula_structural       Br4Hg12I4Te8
_chemical_formula_sum              "Br4 Hg12 I4 Te8"
_cell_length_a       9.63447
_cell_length_b       10.455
_cell_length_c       10.709
_cell_angle_alpha    90.1153
_cell_angle_beta     90
_cell_angle_gamma    117.436

_space_group_name_H-M_alt    "P 1"
_space_group_IT_number       1

loop_
  _space_group_symop_operation_xyz
  'x, y, z'

loop_
  _atom_site_type_symbol
  _atom_site_label
  _atom_site_symmetry_multiplicity
  _atom_site_fract_x
  _atom_site_fract_y
  _atom_site_fract_z
  _atom_site_occupancy
  Br  Br1       1.0  0.61700  0.24300  0.00380  1.0000
  Br  Br2       1.0  0.62600  0.25900  0.47800  1.0000
  Br  Br3       1.0  0.36700  0.74100  0.52200  1.0000
  Br  Br4       1.0  0.37400  0.75700  0.99600  1.0000
  Hg  Hg1       1.0  0.40800  0.24900  0.19800  1.0000
  Hg  Hg2       1.0  0.83300  0.25100  0.20400  1.0000
  Hg  Hg3       1.0  0.26900  0.54600  0.20700  1.0000
  Hg  Hg4       1.0  0.97000  0.95400  0.22100  1.0000
  Hg  Hg5       1.0  0.98600  0.50900  0.49900  1.0000
  Hg  Hg6       1.0  0.24700  0.00000  0.50000  1.0000
  Hg  Hg7       1.0  0.70600  0.00000  0.50000  1.0000
  Hg  Hg8       1.0  0.47700  0.49100  0.50100  1.0000
  Hg  Hg9       1.0  0.01540  0.04550  0.77900  1.0000
  Hg  Hg10      1.0  0.72300  0.45400  0.79300  1.0000
  Hg  Hg11      1.0  0.58200  0.74900  0.79600  1.0000
  Hg  Hg12      1.0  0.15900  0.75100  0.80200  1.0000
  I   I1        1.0  0.11900  0.25000  0.02570  1.0000
  I   I2        1.0  0.11500  0.24100  0.47200  1.0000
  I   I3        1.0  0.87400  0.75900  0.52800  1.0000
  I   I4        1.0  0.86900  0.75000  0.97400  1.0000
  Te  Te1       1.0  0.98700  0.54200  0.24500  1.0000
  Te  Te2       1.0  0.69000  0.95900  0.24700  1.0000
  Te  Te3       1.0  0.25400  0.95800  0.24800  1.0000
  Te  Te4       1.0  0.54400  0.53900  0.25200  1.0000
  Te  Te5       1.0  0.00577  0.46100  0.74800  1.0000
  Te  Te6       1.0  0.29600  0.04230  0.75200  1.0000
  Te  Te7       1.0  0.73100  0.04080  0.75300  1.0000
  Te  Te8       1.0  0.44500  0.45800  0.75500  1.0000
