data_image0
_chemical_formula_structural       Rb8Se20
_chemical_formula_sum              "Rb8 Se20"
_cell_length_a       7.24677
_cell_length_b       18.5173
_cell_length_c       6.9631
_cell_angle_alpha    90
_cell_angle_beta     90
_cell_angle_gamma    90

_space_group_name_H-M_alt    "P 1"
_space_group_IT_number       1

loop_
  _space_group_symop_operation_xyz
  'x, y, z'

loop_
  _atom_site_type_symbol
  _atom_site_label
  _atom_site_symmetry_multiplicity
  _atom_site_fract_x
  _atom_site_fract_y
  _atom_site_fract_z
  _atom_site_occupancy
  Rb  Rb1       1.0  0.25900  0.83800  0.08610  1.0000
  Rb  Rb2       1.0  0.08820  0.49100  0.12300  1.0000
  Rb  Rb3       1.0  0.91200  0.99100  0.37700  1.0000
  Rb  Rb4       1.0  0.74100  0.33800  0.41400  1.0000
  Rb  Rb5       1.0  0.24100  0.16200  0.58600  1.0000
  Rb  Rb6       1.0  0.41200  0.50900  0.62300  1.0000
  Rb  Rb7       1.0  0.58800  0.00897  0.87700  1.0000
  Rb  Rb8       1.0  0.75900  0.66200  0.91400  1.0000
  Se  Se1       1.0  0.87200  0.20300  0.03320  1.0000
  Se  Se2       1.0  0.75600  0.83900  0.06540  1.0000
  Se  Se3       1.0  0.13800  0.12600  0.07070  1.0000
  Se  Se4       1.0  0.58500  0.48200  0.10000  1.0000
  Se  Se5       1.0  0.64000  0.15100  0.24300  1.0000
  Se  Se6       1.0  0.36000  0.65100  0.25700  1.0000
  Se  Se7       1.0  0.41500  0.98200  0.40000  1.0000
  Se  Se8       1.0  0.86200  0.62600  0.42900  1.0000
  Se  Se9       1.0  0.24400  0.33900  0.43500  1.0000
  Se  Se10      1.0  0.12800  0.70300  0.46700  1.0000
  Se  Se11      1.0  0.62800  0.79700  0.53300  1.0000
  Se  Se12      1.0  0.74400  0.16100  0.56500  1.0000
  Se  Se13      1.0  0.36200  0.87400  0.57100  1.0000
  Se  Se14      1.0  0.91500  0.51800  0.60000  1.0000
  Se  Se15      1.0  0.86000  0.84900  0.74300  1.0000
  Se  Se16      1.0  0.14000  0.34900  0.75700  1.0000
  Se  Se17      1.0  0.08490  0.01800  0.90000  1.0000
  Se  Se18      1.0  0.63800  0.37400  0.92900  1.0000
  Se  Se19      1.0  0.25600  0.66100  0.93500  1.0000
  Se  Se20      1.0  0.37200  0.29700  0.96700  1.0000
