data_image0
_chemical_formula_structural       O4Pd8Zr16
_chemical_formula_sum              "O4 Pd8 Zr16"
_cell_length_a       8.87373
_cell_length_b       8.87373
_cell_length_c       8.87373
_cell_angle_alpha    120
_cell_angle_beta     90
_cell_angle_gamma    120

_space_group_name_H-M_alt    "P 1"
_space_group_IT_number       1

loop_
  _space_group_symop_operation_xyz
  'x, y, z'

loop_
  _atom_site_type_symbol
  _atom_site_label
  _atom_site_symmetry_multiplicity
  _atom_site_fract_x
  _atom_site_fract_y
  _atom_site_fract_z
  _atom_site_occupancy
  O   O1        1.0  0.00000  0.00000  0.00000  1.0000
  O   O2        1.0  0.50000  0.00000  0.00000  1.0000
  O   O3        1.0  0.50000  0.50000  0.00000  1.0000
  O   O4        1.0  0.50000  0.50000  0.50000  1.0000
  Pd  Pd1       1.0  0.21500  0.92900  0.28500  1.0000
  Pd  Pd2       1.0  0.21500  0.57100  0.28500  1.0000
  Pd  Pd3       1.0  0.85600  0.57100  0.28500  1.0000
  Pd  Pd4       1.0  0.78500  0.07050  0.35600  1.0000
  Pd  Pd5       1.0  0.21500  0.92900  0.64400  1.0000
  Pd  Pd6       1.0  0.78500  0.07050  0.71500  1.0000
  Pd  Pd7       1.0  0.78500  0.42900  0.71500  1.0000
  Pd  Pd8       1.0  0.14400  0.42900  0.71500  1.0000
  Zr  Zr1       1.0  0.00000  0.50000  0.00000  1.0000
  Zr  Zr2       1.0  0.80600  0.11300  0.05630  1.0000
  Zr  Zr3       1.0  0.44400  0.75000  0.05630  1.0000
  Zr  Zr4       1.0  0.80600  0.75000  0.05630  1.0000
  Zr  Zr5       1.0  0.55600  0.25000  0.30600  1.0000
  Zr  Zr6       1.0  0.55600  0.61300  0.30600  1.0000
  Zr  Zr7       1.0  0.19400  0.25000  0.30600  1.0000
  Zr  Zr8       1.0  0.50000  0.00000  0.50000  1.0000
  Zr  Zr9       1.0  0.00000  0.00000  0.50000  1.0000
  Zr  Zr10      1.0  0.00000  0.50000  0.50000  1.0000
  Zr  Zr11      1.0  0.44400  0.38700  0.69400  1.0000
  Zr  Zr12      1.0  0.44400  0.75000  0.69400  1.0000
  Zr  Zr13      1.0  0.80600  0.75000  0.69400  1.0000
  Zr  Zr14      1.0  0.19400  0.88700  0.94400  1.0000
  Zr  Zr15      1.0  0.19400  0.25000  0.94400  1.0000
  Zr  Zr16      1.0  0.55600  0.25000  0.94400  1.0000
