data_image0
_chemical_formula_structural       Pb4Sc8Se16
_chemical_formula_sum              "Pb4 Sc8 Se16"
_cell_length_a       12.2974
_cell_length_b       3.92659
_cell_length_c       14.3433
_cell_angle_alpha    90
_cell_angle_beta     90
_cell_angle_gamma    90

_space_group_name_H-M_alt    "P 1"
_space_group_IT_number       1

loop_
  _space_group_symop_operation_xyz
  'x, y, z'

loop_
  _atom_site_type_symbol
  _atom_site_label
  _atom_site_symmetry_multiplicity
  _atom_site_fract_x
  _atom_site_fract_y
  _atom_site_fract_z
  _atom_site_occupancy
  Pb  Pb1       1.0  0.25900  0.25000  0.17700  1.0000
  Pb  Pb2       1.0  0.75900  0.25000  0.32300  1.0000
  Pb  Pb3       1.0  0.24100  0.75000  0.67700  1.0000
  Pb  Pb4       1.0  0.74100  0.75000  0.82300  1.0000
  Sc  Sc1       1.0  0.58300  0.75000  0.09350  1.0000
  Sc  Sc2       1.0  0.94700  0.25000  0.11100  1.0000
  Sc  Sc3       1.0  0.44700  0.25000  0.38900  1.0000
  Sc  Sc4       1.0  0.08310  0.75000  0.40700  1.0000
  Sc  Sc5       1.0  0.91700  0.25000  0.59300  1.0000
  Sc  Sc6       1.0  0.55300  0.75000  0.61100  1.0000
  Sc  Sc7       1.0  0.05310  0.75000  0.88900  1.0000
  Sc  Sc8       1.0  0.41700  0.25000  0.90700  1.0000
  Se  Se1       1.0  0.37600  0.75000  0.03210  1.0000
  Se  Se2       1.0  0.09190  0.75000  0.07230  1.0000
  Se  Se3       1.0  0.79800  0.75000  0.15700  1.0000
  Se  Se4       1.0  0.53400  0.25000  0.21500  1.0000
  Se  Se5       1.0  0.03420  0.25000  0.28500  1.0000
  Se  Se6       1.0  0.29800  0.75000  0.34300  1.0000
  Se  Se7       1.0  0.59200  0.75000  0.42800  1.0000
  Se  Se8       1.0  0.87600  0.75000  0.46800  1.0000
  Se  Se9       1.0  0.12400  0.25000  0.53200  1.0000
  Se  Se10      1.0  0.40800  0.25000  0.57200  1.0000
  Se  Se11      1.0  0.70200  0.25000  0.65700  1.0000
  Se  Se12      1.0  0.96600  0.75000  0.71500  1.0000
  Se  Se13      1.0  0.46600  0.75000  0.78500  1.0000
  Se  Se14      1.0  0.20200  0.25000  0.84300  1.0000
  Se  Se15      1.0  0.90800  0.25000  0.92800  1.0000
  Se  Se16      1.0  0.62400  0.25000  0.96800  1.0000
