data_image0
_chemical_formula_structural       Br6Cl2Hg12S8
_chemical_formula_sum              "Br6 Cl2 Hg12 S8"
_cell_length_a       9.42944
_cell_length_b       10.341
_cell_length_c       10.5606
_cell_angle_alpha    113.262
_cell_angle_beta     90
_cell_angle_gamma    117.125

_space_group_name_H-M_alt    "P 1"
_space_group_IT_number       1

loop_
  _space_group_symop_operation_xyz
  'x, y, z'

loop_
  _atom_site_type_symbol
  _atom_site_label
  _atom_site_symmetry_multiplicity
  _atom_site_fract_x
  _atom_site_fract_y
  _atom_site_fract_z
  _atom_site_occupancy
  Br  Br1       1.0  0.37900  0.75700  0.01120  1.0000
  Br  Br2       1.0  0.25100  0.50100  0.49700  1.0000
  Br  Br3       1.0  0.00000  0.00000  0.50000  1.0000
  Br  Br4       1.0  0.50000  0.00000  0.50000  1.0000
  Br  Br5       1.0  0.74900  0.49900  0.50300  1.0000
  Br  Br6       1.0  0.62100  0.24300  0.98900  1.0000
  Cl  Cl1       1.0  0.87800  0.75500  0.01110  1.0000
  Cl  Cl2       1.0  0.12200  0.24500  0.98900  1.0000
  Hg  Hg1       1.0  0.15500  0.85100  0.20200  1.0000
  Hg  Hg2       1.0  0.69600  0.85100  0.20200  1.0000
  Hg  Hg3       1.0  0.28100  0.56300  0.21000  1.0000
  Hg  Hg4       1.0  0.57500  0.15000  0.22400  1.0000
  Hg  Hg5       1.0  0.10700  0.73900  0.49600  1.0000
  Hg  Hg6       1.0  0.63200  0.73900  0.49600  1.0000
  Hg  Hg7       1.0  0.36800  0.26100  0.50400  1.0000
  Hg  Hg8       1.0  0.89300  0.26100  0.50400  1.0000
  Hg  Hg9       1.0  0.42500  0.85000  0.77600  1.0000
  Hg  Hg10      1.0  0.71900  0.43700  0.79000  1.0000
  Hg  Hg11      1.0  0.30400  0.14900  0.79800  1.0000
  Hg  Hg12      1.0  0.84500  0.14900  0.79800  1.0000
  S   S1        1.0  0.04520  0.60500  0.23800  1.0000
  S   S2        1.0  0.56000  0.60500  0.23800  1.0000
  S   S3        1.0  0.31000  0.13600  0.24600  1.0000
  S   S4        1.0  0.82600  0.13600  0.24600  1.0000
  S   S5        1.0  0.17400  0.86400  0.75400  1.0000
  S   S6        1.0  0.69000  0.86400  0.75400  1.0000
  S   S7        1.0  0.44000  0.39500  0.76200  1.0000
  S   S8        1.0  0.95500  0.39500  0.76200  1.0000
