data_image0
_chemical_formula_structural       Ge4Ho4Na4O16
_chemical_formula_sum              "Ge4 Ho4 Na4 O16"
_cell_length_a       11.3623
_cell_length_b       6.38994
_cell_length_c       5.25355
_cell_angle_alpha    90
_cell_angle_beta     90
_cell_angle_gamma    90

_space_group_name_H-M_alt    "P 1"
_space_group_IT_number       1

loop_
  _space_group_symop_operation_xyz
  'x, y, z'

loop_
  _atom_site_type_symbol
  _atom_site_label
  _atom_site_symmetry_multiplicity
  _atom_site_fract_x
  _atom_site_fract_y
  _atom_site_fract_z
  _atom_site_occupancy
  Ge  Ge1       1.0  0.90300  0.75000  0.05510  1.0000
  Ge  Ge2       1.0  0.40300  0.75000  0.44500  1.0000
  Ge  Ge3       1.0  0.59700  0.25000  0.55500  1.0000
  Ge  Ge4       1.0  0.09670  0.25000  0.94500  1.0000
  Ho  Ho1       1.0  0.22300  0.75000  0.00429  1.0000
  Ho  Ho2       1.0  0.72300  0.75000  0.49600  1.0000
  Ho  Ho3       1.0  0.27700  0.25000  0.50400  1.0000
  Ho  Ho4       1.0  0.77700  0.25000  0.99600  1.0000
  Na  Na1       1.0  0.50000  0.00000  0.00000  1.0000
  Na  Na2       1.0  0.50000  0.50000  0.00000  1.0000
  Na  Na3       1.0  0.00000  0.00000  0.50000  1.0000
  Na  Na4       1.0  0.00000  0.50000  0.50000  1.0000
  O   O1        1.0  0.04690  0.75000  0.17800  1.0000
  O   O2        1.0  0.82600  0.54000  0.21100  1.0000
  O   O3        1.0  0.82600  0.96000  0.21100  1.0000
  O   O4        1.0  0.60900  0.25000  0.22600  1.0000
  O   O5        1.0  0.10900  0.25000  0.27400  1.0000
  O   O6        1.0  0.32600  0.54000  0.28900  1.0000
  O   O7        1.0  0.32600  0.96000  0.28900  1.0000
  O   O8        1.0  0.54700  0.75000  0.32200  1.0000
  O   O9        1.0  0.45300  0.25000  0.67800  1.0000
  O   O10       1.0  0.67400  0.03970  0.71100  1.0000
  O   O11       1.0  0.67400  0.46000  0.71100  1.0000
  O   O12       1.0  0.89100  0.75000  0.72600  1.0000
  O   O13       1.0  0.39100  0.75000  0.77400  1.0000
  O   O14       1.0  0.17400  0.03970  0.78900  1.0000
  O   O15       1.0  0.17400  0.46000  0.78900  1.0000
  O   O16       1.0  0.95300  0.25000  0.82200  1.0000
