data_image0
_chemical_formula_structural       F2Fe2H8Na2O12S2
_chemical_formula_sum              "F2 Fe2 H8 Na2 O12 S2"
_cell_length_a       5.6118
_cell_length_b       7.3014
_cell_length_c       7.11326
_cell_angle_alpha    90
_cell_angle_beta     114.145
_cell_angle_gamma    90

_space_group_name_H-M_alt    "P 1"
_space_group_IT_number       1

loop_
  _space_group_symop_operation_xyz
  'x, y, z'

loop_
  _atom_site_type_symbol
  _atom_site_label
  _atom_site_symmetry_multiplicity
  _atom_site_fract_x
  _atom_site_fract_y
  _atom_site_fract_z
  _atom_site_occupancy
  F   F1        1.0  0.64900  0.75000  0.48900  1.0000
  F   F2        1.0  0.35100  0.25000  0.51100  1.0000
  Fe  Fe1       1.0  0.50000  0.00000  0.50000  1.0000
  Fe  Fe2       1.0  0.50000  0.50000  0.50000  1.0000
  H   H1        1.0  0.18800  0.59800  0.11600  1.0000
  H   H2        1.0  0.18800  0.90200  0.11600  1.0000
  H   H3        1.0  0.06210  0.07120  0.18700  1.0000
  H   H4        1.0  0.06210  0.42900  0.18700  1.0000
  H   H5        1.0  0.93800  0.57100  0.81300  1.0000
  H   H6        1.0  0.93800  0.92900  0.81300  1.0000
  H   H7        1.0  0.81200  0.09830  0.88400  1.0000
  H   H8        1.0  0.81200  0.40200  0.88400  1.0000
  Na  Na1       1.0  0.88700  0.75000  0.31600  1.0000
  Na  Na2       1.0  0.11300  0.25000  0.68400  1.0000
  O   O1        1.0  0.37800  0.25000  0.03130  1.0000
  O   O2        1.0  0.83700  0.25000  0.08270  1.0000
  O   O3        1.0  0.16000  0.54500  0.23400  1.0000
  O   O4        1.0  0.16000  0.95500  0.23400  1.0000
  O   O5        1.0  0.70900  0.08360  0.31900  1.0000
  O   O6        1.0  0.70900  0.41600  0.31900  1.0000
  O   O7        1.0  0.29100  0.58400  0.68100  1.0000
  O   O8        1.0  0.29100  0.91600  0.68100  1.0000
  O   O9        1.0  0.84000  0.04540  0.76600  1.0000
  O   O10       1.0  0.84000  0.45500  0.76600  1.0000
  O   O11       1.0  0.16300  0.75000  0.91700  1.0000
  O   O12       1.0  0.62200  0.75000  0.96900  1.0000
  S   S1        1.0  0.64600  0.25000  0.18600  1.0000
  S   S2        1.0  0.35400  0.75000  0.81400  1.0000
