data_image0
_chemical_formula_structural       La2Ni18Si8
_chemical_formula_sum              "La2 Ni18 Si8"
_cell_length_a       7.84453
_cell_length_b       7.84453
_cell_length_c       7.96727
_cell_angle_alpha    119.492
_cell_angle_beta     119.492
_cell_angle_gamma    90

_space_group_name_H-M_alt    "P 1"
_space_group_IT_number       1

loop_
  _space_group_symop_operation_xyz
  'x, y, z'

loop_
  _atom_site_type_symbol
  _atom_site_label
  _atom_site_symmetry_multiplicity
  _atom_site_fract_x
  _atom_site_fract_y
  _atom_site_fract_z
  _atom_site_occupancy
  La  La1       1.0  0.25000  0.25000  0.50000  1.0000
  La  La2       1.0  0.75000  0.75000  0.50000  1.0000
  Ni  Ni1       1.0  0.50000  0.00000  0.00000  1.0000
  Ni  Ni2       1.0  0.79600  0.06870  0.00000  1.0000
  Ni  Ni3       1.0  0.06870  0.20400  0.00000  1.0000
  Ni  Ni4       1.0  0.56900  0.29600  0.00000  1.0000
  Ni  Ni5       1.0  0.29600  0.43100  0.00000  1.0000
  Ni  Ni6       1.0  0.00000  0.50000  0.00000  1.0000
  Ni  Ni7       1.0  0.70400  0.56900  0.00000  1.0000
  Ni  Ni8       1.0  0.43100  0.70400  0.00000  1.0000
  Ni  Ni9       1.0  0.93100  0.79600  0.00000  1.0000
  Ni  Ni10      1.0  0.20400  0.93100  0.00000  1.0000
  Ni  Ni11      1.0  0.55500  0.05470  0.36900  1.0000
  Ni  Ni12      1.0  0.81400  0.31400  0.36900  1.0000
  Ni  Ni13      1.0  0.31400  0.55500  0.36900  1.0000
  Ni  Ni14      1.0  0.05470  0.81400  0.36900  1.0000
  Ni  Ni15      1.0  0.94500  0.18600  0.63100  1.0000
  Ni  Ni16      1.0  0.68600  0.44500  0.63100  1.0000
  Ni  Ni17      1.0  0.18600  0.68600  0.63100  1.0000
  Ni  Ni18      1.0  0.44500  0.94500  0.63100  1.0000
  Si  Si1       1.0  0.44700  0.28800  0.23600  1.0000
  Si  Si2       1.0  0.94700  0.44700  0.23600  1.0000
  Si  Si3       1.0  0.28800  0.78800  0.23600  1.0000
  Si  Si4       1.0  0.78800  0.94700  0.23600  1.0000
  Si  Si5       1.0  0.21200  0.05290  0.76400  1.0000
  Si  Si6       1.0  0.71200  0.21200  0.76400  1.0000
  Si  Si7       1.0  0.05290  0.55300  0.76400  1.0000
  Si  Si8       1.0  0.55300  0.71200  0.76400  1.0000
