data_image0
_chemical_formula_structural       F20O2Re2Sb2
_chemical_formula_sum              "F20 O2 Re2 Sb2"
_cell_length_a       7.36583
_cell_length_b       6.03991
_cell_length_c       7.33451
_cell_angle_alpha    90
_cell_angle_beta     94.6736
_cell_angle_gamma    90

_space_group_name_H-M_alt    "P 1"
_space_group_IT_number       1

loop_
  _space_group_symop_operation_xyz
  'x, y, z'

loop_
  _atom_site_type_symbol
  _atom_site_label
  _atom_site_symmetry_multiplicity
  _atom_site_fract_x
  _atom_site_fract_y
  _atom_site_fract_z
  _atom_site_occupancy
  F   F1        1.0  0.00000  0.97900  0.00000  1.0000
  F   F2        1.0  0.33100  0.98000  0.00194  1.0000
  F   F3        1.0  0.86500  0.52500  0.13900  1.0000
  F   F4        1.0  0.18700  0.30400  0.15300  1.0000
  F   F5        1.0  0.51700  0.69400  0.17900  1.0000
  F   F6        1.0  0.57300  0.26500  0.20300  1.0000
  F   F7        1.0  0.17500  0.70600  0.21000  1.0000
  F   F8        1.0  0.00172  0.03800  0.33100  1.0000
  F   F9        1.0  0.78800  0.76800  0.43400  1.0000
  F   F10       1.0  0.82400  0.33800  0.48400  1.0000
  F   F11       1.0  0.50000  0.50600  0.50000  1.0000
  F   F12       1.0  0.17600  0.33800  0.51600  1.0000
  F   F13       1.0  0.21200  0.76800  0.56600  1.0000
  F   F14       1.0  0.99800  0.03800  0.66900  1.0000
  F   F15       1.0  0.82500  0.70600  0.79000  1.0000
  F   F16       1.0  0.42700  0.26500  0.79700  1.0000
  F   F17       1.0  0.48300  0.69400  0.82100  1.0000
  F   F18       1.0  0.81300  0.30400  0.84700  1.0000
  F   F19       1.0  0.13500  0.52500  0.86100  1.0000
  F   F20       1.0  0.66900  0.98000  0.99800  1.0000
  O   O1        1.0  0.37400  0.02490  0.37300  1.0000
  O   O2        1.0  0.62600  0.02490  0.62700  1.0000
  Re  Re1       1.0  0.20600  0.00719  0.20600  1.0000
  Re  Re2       1.0  0.79400  0.00719  0.79400  1.0000
  Sb  Sb1       1.0  0.69100  0.51600  0.31000  1.0000
  Sb  Sb2       1.0  0.30900  0.51600  0.69000  1.0000
