data_image0
_chemical_formula_structural       Cs12Ge4Te12
_chemical_formula_sum              "Cs12 Ge4 Te12"
_cell_length_a       10.3843
_cell_length_b       11.3801
_cell_length_c       11.3801
_cell_angle_alpha    80.1979
_cell_angle_beta     95.2963
_cell_angle_gamma    95.2963

_space_group_name_H-M_alt    "P 1"
_space_group_IT_number       1

loop_
  _space_group_symop_operation_xyz
  'x, y, z'

loop_
  _atom_site_type_symbol
  _atom_site_label
  _atom_site_symmetry_multiplicity
  _atom_site_fract_x
  _atom_site_fract_y
  _atom_site_fract_z
  _atom_site_occupancy
  Cs  Cs1       1.0  0.75000  0.91600  0.08440  1.0000
  Cs  Cs2       1.0  0.68500  0.24500  0.18900  1.0000
  Cs  Cs3       1.0  0.36900  0.59700  0.21700  1.0000
  Cs  Cs4       1.0  0.18500  0.18900  0.24500  1.0000
  Cs  Cs5       1.0  0.75000  0.60200  0.39800  1.0000
  Cs  Cs6       1.0  0.13100  0.78300  0.40300  1.0000
  Cs  Cs7       1.0  0.86900  0.21700  0.59700  1.0000
  Cs  Cs8       1.0  0.25000  0.39800  0.60200  1.0000
  Cs  Cs9       1.0  0.81500  0.81100  0.75500  1.0000
  Cs  Cs10      1.0  0.63100  0.40300  0.78300  1.0000
  Cs  Cs11      1.0  0.31500  0.75500  0.81100  1.0000
  Cs  Cs12      1.0  0.25000  0.08440  0.91600  1.0000
  Ge  Ge1       1.0  0.96100  0.56100  0.07640  1.0000
  Ge  Ge2       1.0  0.53900  0.92400  0.43900  1.0000
  Ge  Ge3       1.0  0.46100  0.07640  0.56100  1.0000
  Ge  Ge4       1.0  0.03940  0.43900  0.92400  1.0000
  Te  Te1       1.0  0.70700  0.57900  0.04490  1.0000
  Te  Te2       1.0  0.07670  0.77800  0.05140  1.0000
  Te  Te3       1.0  0.42300  0.94900  0.22200  1.0000
  Te  Te4       1.0  0.02140  0.45400  0.29800  1.0000
  Te  Te5       1.0  0.79300  0.95500  0.42100  1.0000
  Te  Te6       1.0  0.52100  0.29800  0.45400  1.0000
  Te  Te7       1.0  0.47900  0.70200  0.54600  1.0000
  Te  Te8       1.0  0.20700  0.04490  0.57900  1.0000
  Te  Te9       1.0  0.97900  0.54600  0.70200  1.0000
  Te  Te10      1.0  0.57700  0.05140  0.77800  1.0000
  Te  Te11      1.0  0.92300  0.22200  0.94900  1.0000
  Te  Te12      1.0  0.29300  0.42100  0.95500  1.0000
