data_image0
_chemical_formula_structural       Br16Rb8Zn4
_chemical_formula_sum              "Br16 Rb8 Zn4"
_cell_length_a       13.2955
_cell_length_b       7.60675
_cell_length_c       9.79178
_cell_angle_alpha    90
_cell_angle_beta     90
_cell_angle_gamma    90

_space_group_name_H-M_alt    "P 1"
_space_group_IT_number       1

loop_
  _space_group_symop_operation_xyz
  'x, y, z'

loop_
  _atom_site_type_symbol
  _atom_site_label
  _atom_site_symmetry_multiplicity
  _atom_site_fract_x
  _atom_site_fract_y
  _atom_site_fract_z
  _atom_site_occupancy
  Br  Br1       1.0  0.16100  0.01110  0.18100  1.0000
  Br  Br2       1.0  0.83900  0.51100  0.81900  1.0000
  Br  Br3       1.0  0.33900  0.01110  0.68100  1.0000
  Br  Br4       1.0  0.66100  0.51100  0.31900  1.0000
  Br  Br5       1.0  0.15700  0.49400  0.18000  1.0000
  Br  Br6       1.0  0.84300  0.99400  0.82000  1.0000
  Br  Br7       1.0  0.34300  0.49400  0.68000  1.0000
  Br  Br8       1.0  0.65700  0.99400  0.32000  1.0000
  Br  Br9       1.0  0.08980  0.25600  0.81900  1.0000
  Br  Br10      1.0  0.91000  0.75600  0.18100  1.0000
  Br  Br11      1.0  0.41000  0.25600  0.31900  1.0000
  Br  Br12      1.0  0.59000  0.75600  0.68100  1.0000
  Br  Br13      1.0  0.09540  0.75500  0.52100  1.0000
  Br  Br14      1.0  0.90500  0.25500  0.47900  1.0000
  Br  Br15      1.0  0.40500  0.75500  0.02070  1.0000
  Br  Br16      1.0  0.59500  0.25500  0.97900  1.0000
  Rb  Rb1       1.0  0.09170  0.75500  0.88100  1.0000
  Rb  Rb2       1.0  0.90800  0.25500  0.11900  1.0000
  Rb  Rb3       1.0  0.40800  0.75500  0.38100  1.0000
  Rb  Rb4       1.0  0.59200  0.25500  0.61900  1.0000
  Rb  Rb5       1.0  0.16600  0.25700  0.48300  1.0000
  Rb  Rb6       1.0  0.83400  0.75700  0.51700  1.0000
  Rb  Rb7       1.0  0.33400  0.25700  0.98300  1.0000
  Rb  Rb8       1.0  0.66600  0.75700  0.01740  1.0000
  Zn  Zn1       1.0  0.08000  0.75400  0.27500  1.0000
  Zn  Zn2       1.0  0.92000  0.25400  0.72500  1.0000
  Zn  Zn3       1.0  0.42000  0.75400  0.77500  1.0000
  Zn  Zn4       1.0  0.58000  0.25400  0.22500  1.0000
