data_image0
_chemical_formula_structural       Bi4Fe4S16Sb4
_chemical_formula_sum              "Bi4 Fe4 S16 Sb4"
_cell_length_a       11.5804
_cell_length_b       14.2134
_cell_length_c       3.82409
_cell_angle_alpha    90
_cell_angle_beta     90
_cell_angle_gamma    90

_space_group_name_H-M_alt    "P 1"
_space_group_IT_number       1

loop_
  _space_group_symop_operation_xyz
  'x, y, z'

loop_
  _atom_site_type_symbol
  _atom_site_label
  _atom_site_symmetry_multiplicity
  _atom_site_fract_x
  _atom_site_fract_y
  _atom_site_fract_z
  _atom_site_occupancy
  Bi  Bi1       1.0  0.96100  0.61000  0.25000  1.0000
  Bi  Bi2       1.0  0.46100  0.89000  0.25000  1.0000
  Bi  Bi3       1.0  0.53900  0.11000  0.75000  1.0000
  Bi  Bi4       1.0  0.03890  0.39000  0.75000  1.0000
  Fe  Fe1       1.0  0.81800  0.16900  0.25000  1.0000
  Fe  Fe2       1.0  0.31800  0.33100  0.25000  1.0000
  Fe  Fe3       1.0  0.68200  0.66900  0.75000  1.0000
  Fe  Fe4       1.0  0.18200  0.83100  0.75000  1.0000
  S   S1        1.0  0.73400  0.01250  0.25000  1.0000
  S   S2        1.0  0.41600  0.18800  0.25000  1.0000
  S   S3        1.0  0.91600  0.31200  0.25000  1.0000
  S   S4        1.0  0.23400  0.48800  0.25000  1.0000
  S   S5        1.0  0.54600  0.59800  0.25000  1.0000
  S   S6        1.0  0.79500  0.73000  0.25000  1.0000
  S   S7        1.0  0.29500  0.77000  0.25000  1.0000
  S   S8        1.0  0.04560  0.90200  0.25000  1.0000
  S   S9        1.0  0.95400  0.09760  0.75000  1.0000
  S   S10       1.0  0.70500  0.23000  0.75000  1.0000
  S   S11       1.0  0.20500  0.27000  0.75000  1.0000
  S   S12       1.0  0.45400  0.40200  0.75000  1.0000
  S   S13       1.0  0.76600  0.51200  0.75000  1.0000
  S   S14       1.0  0.08430  0.68800  0.75000  1.0000
  S   S15       1.0  0.58400  0.81200  0.75000  1.0000
  S   S16       1.0  0.26600  0.98800  0.75000  1.0000
  Sb  Sb1       1.0  0.13800  0.06410  0.25000  1.0000
  Sb  Sb2       1.0  0.63800  0.43600  0.25000  1.0000
  Sb  Sb3       1.0  0.36200  0.56400  0.75000  1.0000
  Sb  Sb4       1.0  0.86200  0.93600  0.75000  1.0000
