data_image0
_chemical_formula_structural       Ag2As2F20Xe4
_chemical_formula_sum              "Ag2 As2 F20 Xe4"
_cell_length_a       8.19204
_cell_length_b       8.19204
_cell_length_c       8.51254
_cell_angle_alpha    118.762
_cell_angle_beta     118.762
_cell_angle_gamma    90

_space_group_name_H-M_alt    "P 1"
_space_group_IT_number       1

loop_
  _space_group_symop_operation_xyz
  'x, y, z'

loop_
  _atom_site_type_symbol
  _atom_site_label
  _atom_site_symmetry_multiplicity
  _atom_site_fract_x
  _atom_site_fract_y
  _atom_site_fract_z
  _atom_site_occupancy
  Ag  Ag1       1.0  0.25000  0.25000  0.50000  1.0000
  Ag  Ag2       1.0  0.75000  0.75000  0.50000  1.0000
  As  As1       1.0  0.75000  0.25000  0.50000  1.0000
  As  As2       1.0  0.25000  0.75000  0.50000  1.0000
  F   F1        1.0  0.21600  0.21900  0.21300  1.0000
  F   F2        1.0  0.71600  0.49400  0.21300  1.0000
  F   F3        1.0  0.49700  0.71900  0.21300  1.0000
  F   F4        1.0  0.99700  0.99400  0.21300  1.0000
  F   F5        1.0  0.60800  0.10800  0.21600  1.0000
  F   F6        1.0  0.10800  0.60800  0.21600  1.0000
  F   F7        1.0  0.55300  0.16100  0.50000  1.0000
  F   F8        1.0  0.94600  0.33800  0.50000  1.0000
  F   F9        1.0  0.44600  0.66100  0.50000  1.0000
  F   F10       1.0  0.05330  0.83800  0.50000  1.0000
  F   F11       1.0  0.83900  0.05370  0.50000  1.0000
  F   F12       1.0  0.66200  0.44700  0.50000  1.0000
  F   F13       1.0  0.16200  0.55400  0.50000  1.0000
  F   F14       1.0  0.33900  0.94700  0.50000  1.0000
  F   F15       1.0  0.89200  0.39200  0.78400  1.0000
  F   F16       1.0  0.39200  0.89200  0.78400  1.0000
  F   F17       1.0  0.78100  0.00283  0.78700  1.0000
  F   F18       1.0  0.28100  0.28400  0.78700  1.0000
  F   F19       1.0  0.50600  0.50300  0.78700  1.0000
  F   F20       1.0  0.00598  0.78400  0.78700  1.0000
  Xe  Xe1       1.0  0.74900  0.24900  0.00000  1.0000
  Xe  Xe2       1.0  0.24900  0.25100  0.00000  1.0000
  Xe  Xe3       1.0  0.75100  0.74900  0.00000  1.0000
  Xe  Xe4       1.0  0.25100  0.75100  0.00000  1.0000
