data_image0
_chemical_formula_structural       F24Pt4
_chemical_formula_sum              "F24 Pt4"
_cell_length_a       7.79853
_cell_length_b       8.471
_cell_length_c       4.5097
_cell_angle_alpha    89.9947
_cell_angle_beta     90
_cell_angle_gamma    90

_space_group_name_H-M_alt    "P 1"
_space_group_IT_number       1

loop_
  _space_group_symop_operation_xyz
  'x, y, z'

loop_
  _atom_site_type_symbol
  _atom_site_label
  _atom_site_symmetry_multiplicity
  _atom_site_fract_x
  _atom_site_fract_y
  _atom_site_fract_z
  _atom_site_occupancy
  F   F1        1.0  0.25000  0.75500  0.07320  1.0000
  F   F2        1.0  0.58000  0.74500  0.08410  1.0000
  F   F3        1.0  0.92000  0.74500  0.08410  1.0000
  F   F4        1.0  0.75000  0.50200  0.24300  1.0000
  F   F5        1.0  0.07950  0.49700  0.24500  1.0000
  F   F6        1.0  0.42000  0.49700  0.24500  1.0000
  F   F7        1.0  0.75000  0.00250  0.25500  1.0000
  F   F8        1.0  0.07970  0.99700  0.25500  1.0000
  F   F9        1.0  0.42000  0.99700  0.25500  1.0000
  F   F10       1.0  0.58000  0.24600  0.41600  1.0000
  F   F11       1.0  0.92000  0.24600  0.41600  1.0000
  F   F12       1.0  0.25000  0.25200  0.42800  1.0000
  F   F13       1.0  0.75000  0.74500  0.57300  1.0000
  F   F14       1.0  0.07950  0.75500  0.58400  1.0000
  F   F15       1.0  0.42100  0.75500  0.58400  1.0000
  F   F16       1.0  0.25000  0.99800  0.74300  1.0000
  F   F17       1.0  0.58000  0.00298  0.74400  1.0000
  F   F18       1.0  0.92000  0.00298  0.74400  1.0000
  F   F19       1.0  0.25000  0.49800  0.75600  1.0000
  F   F20       1.0  0.58000  0.50300  0.75600  1.0000
  F   F21       1.0  0.92000  0.50300  0.75600  1.0000
  F   F22       1.0  0.07980  0.25400  0.91700  1.0000
  F   F23       1.0  0.42000  0.25400  0.91700  1.0000
  F   F24       1.0  0.75000  0.24800  0.92800  1.0000
  Pt  Pt1       1.0  0.25000  0.12500  0.08490  1.0000
  Pt  Pt2       1.0  0.25000  0.62600  0.41500  1.0000
  Pt  Pt3       1.0  0.75000  0.37500  0.58500  1.0000
  Pt  Pt4       1.0  0.75000  0.87400  0.91500  1.0000
