data_image0
_chemical_formula_structural       Al18Co6U4
_chemical_formula_sum              "Al18 Co6 U4"
_cell_length_a       7.42005
_cell_length_b       7.42005
_cell_length_c       9.20605
_cell_angle_alpha    90
_cell_angle_beta     90
_cell_angle_gamma    119.173

_space_group_name_H-M_alt    "P 1"
_space_group_IT_number       1

loop_
  _space_group_symop_operation_xyz
  'x, y, z'

loop_
  _atom_site_type_symbol
  _atom_site_label
  _atom_site_symmetry_multiplicity
  _atom_site_fract_x
  _atom_site_fract_y
  _atom_site_fract_z
  _atom_site_occupancy
  Al  Al1       1.0  0.66600  0.66600  0.04740  1.0000
  Al  Al2       1.0  0.33700  0.00000  0.07240  1.0000
  Al  Al3       1.0  0.00000  0.33700  0.07240  1.0000
  Al  Al4       1.0  0.12700  0.12700  0.25000  1.0000
  Al  Al5       1.0  0.55500  0.34100  0.25000  1.0000
  Al  Al6       1.0  0.34100  0.55500  0.25000  1.0000
  Al  Al7       1.0  0.33700  0.00000  0.42800  1.0000
  Al  Al8       1.0  0.00000  0.33700  0.42800  1.0000
  Al  Al9       1.0  0.66600  0.66600  0.45300  1.0000
  Al  Al10      1.0  0.33400  0.33400  0.54700  1.0000
  Al  Al11      1.0  0.66300  0.00000  0.57200  1.0000
  Al  Al12      1.0  0.00000  0.66300  0.57200  1.0000
  Al  Al13      1.0  0.65900  0.44500  0.75000  1.0000
  Al  Al14      1.0  0.44500  0.65900  0.75000  1.0000
  Al  Al15      1.0  0.87300  0.87300  0.75000  1.0000
  Al  Al16      1.0  0.66300  0.00000  0.92800  1.0000
  Al  Al17      1.0  0.00000  0.66300  0.92800  1.0000
  Al  Al18      1.0  0.33400  0.33400  0.95300  1.0000
  Co  Co1       1.0  0.00000  0.00000  0.00000  1.0000
  Co  Co2       1.0  0.67200  0.32800  0.00000  1.0000
  Co  Co3       1.0  0.32800  0.67200  0.00000  1.0000
  Co  Co4       1.0  0.00000  0.00000  0.50000  1.0000
  Co  Co5       1.0  0.67200  0.32800  0.50000  1.0000
  Co  Co6       1.0  0.32800  0.67200  0.50000  1.0000
  U   U1        1.0  0.99500  0.67400  0.25000  1.0000
  U   U2        1.0  0.67400  0.99500  0.25000  1.0000
  U   U3        1.0  0.32600  0.00510  0.75000  1.0000
  U   U4        1.0  0.00510  0.32600  0.75000  1.0000
