data_image0
_chemical_formula_structural       B4Ca4Ga4O16
_chemical_formula_sum              "B4 Ca4 Ga4 O16"
_cell_length_a       5.83225
_cell_length_b       8.347
_cell_length_c       8.72308
_cell_angle_alpha    118.584
_cell_angle_beta     90
_cell_angle_gamma    90

_space_group_name_H-M_alt    "P 1"
_space_group_IT_number       1

loop_
  _space_group_symop_operation_xyz
  'x, y, z'

loop_
  _atom_site_type_symbol
  _atom_site_label
  _atom_site_symmetry_multiplicity
  _atom_site_fract_x
  _atom_site_fract_y
  _atom_site_fract_z
  _atom_site_occupancy
  B   B1        1.0  0.14000  0.34600  0.21100  1.0000
  B   B2        1.0  0.64000  0.86600  0.21100  1.0000
  B   B3        1.0  0.64000  0.13400  0.78900  1.0000
  B   B4        1.0  0.14000  0.65400  0.78900  1.0000
  Ca  Ca1       1.0  0.60000  0.45000  0.18200  1.0000
  Ca  Ca2       1.0  0.09960  0.73200  0.18200  1.0000
  Ca  Ca3       1.0  0.09960  0.26800  0.81800  1.0000
  Ca  Ca4       1.0  0.60000  0.55000  0.81800  1.0000
  Ga  Ga1       1.0  0.37600  0.18600  0.40700  1.0000
  Ga  Ga2       1.0  0.87600  0.22000  0.40700  1.0000
  Ga  Ga3       1.0  0.87600  0.78000  0.59300  1.0000
  Ga  Ga4       1.0  0.37600  0.81400  0.59300  1.0000
  O   O1        1.0  0.17500  0.43100  0.11300  1.0000
  O   O2        1.0  0.67500  0.68200  0.11300  1.0000
  O   O3        1.0  0.33500  0.27900  0.25200  1.0000
  O   O4        1.0  0.83500  0.97300  0.25200  1.0000
  O   O5        1.0  0.92000  0.32600  0.26200  1.0000
  O   O6        1.0  0.42000  0.93500  0.26200  1.0000
  O   O7        1.0  0.62100  0.69300  0.45900  1.0000
  O   O8        1.0  0.12100  0.76600  0.45900  1.0000
  O   O9        1.0  0.12100  0.23400  0.54100  1.0000
  O   O10       1.0  0.62100  0.30700  0.54100  1.0000
  O   O11       1.0  0.42000  0.06460  0.73800  1.0000
  O   O12       1.0  0.92000  0.67400  0.73800  1.0000
  O   O13       1.0  0.83500  0.02670  0.74800  1.0000
  O   O14       1.0  0.33500  0.72100  0.74800  1.0000
  O   O15       1.0  0.67500  0.31800  0.88700  1.0000
  O   O16       1.0  0.17500  0.56900  0.88700  1.0000
