data_image0
_chemical_formula_structural       B4Mn4O16Pb4
_chemical_formula_sum              "B4 Mn4 O16 Pb4"
_cell_length_a       6.58097
_cell_length_b       5.96672
_cell_length_c       8.69528
_cell_angle_alpha    90
_cell_angle_beta     90
_cell_angle_gamma    90

_space_group_name_H-M_alt    "P 1"
_space_group_IT_number       1

loop_
  _space_group_symop_operation_xyz
  'x, y, z'

loop_
  _atom_site_type_symbol
  _atom_site_label
  _atom_site_symmetry_multiplicity
  _atom_site_fract_x
  _atom_site_fract_y
  _atom_site_fract_z
  _atom_site_occupancy
  B   B1        1.0  0.70800  0.75000  0.23800  1.0000
  B   B2        1.0  0.20800  0.75000  0.26200  1.0000
  B   B3        1.0  0.79200  0.25000  0.73800  1.0000
  B   B4        1.0  0.29200  0.25000  0.76200  1.0000
  Mn  Mn1       1.0  0.00000  0.00000  0.00000  1.0000
  Mn  Mn2       1.0  0.00000  0.50000  0.00000  1.0000
  Mn  Mn3       1.0  0.50000  0.00000  0.50000  1.0000
  Mn  Mn4       1.0  0.50000  0.50000  0.50000  1.0000
  O   O1        1.0  0.77900  0.75000  0.09050  1.0000
  O   O2        1.0  0.88500  0.25000  0.10300  1.0000
  O   O3        1.0  0.17100  0.54700  0.18800  1.0000
  O   O4        1.0  0.17100  0.95300  0.18800  1.0000
  O   O5        1.0  0.67100  0.54700  0.31200  1.0000
  O   O6        1.0  0.67100  0.95300  0.31200  1.0000
  O   O7        1.0  0.38500  0.25000  0.39700  1.0000
  O   O8        1.0  0.27900  0.75000  0.41000  1.0000
  O   O9        1.0  0.72100  0.25000  0.59000  1.0000
  O   O10       1.0  0.61500  0.75000  0.60300  1.0000
  O   O11       1.0  0.32900  0.04680  0.68800  1.0000
  O   O12       1.0  0.32900  0.45300  0.68800  1.0000
  O   O13       1.0  0.82900  0.04680  0.81200  1.0000
  O   O14       1.0  0.82900  0.45300  0.81200  1.0000
  O   O15       1.0  0.11500  0.75000  0.89700  1.0000
  O   O16       1.0  0.22100  0.25000  0.91000  1.0000
  Pb  Pb1       1.0  0.51900  0.25000  0.14500  1.0000
  Pb  Pb2       1.0  0.01920  0.25000  0.35500  1.0000
  Pb  Pb3       1.0  0.98100  0.75000  0.64500  1.0000
  Pb  Pb4       1.0  0.48100  0.75000  0.85500  1.0000
