data_image0
_chemical_formula_structural       B2Eu6O18W2
_chemical_formula_sum              "B2 Eu6 O18 W2"
_cell_length_a       8.52988
_cell_length_b       8.53177
_cell_length_c       4.93697
_cell_angle_alpha    90.0057
_cell_angle_beta     89.9905
_cell_angle_gamma    120.048

_space_group_name_H-M_alt    "P 1"
_space_group_IT_number       1

loop_
  _space_group_symop_operation_xyz
  'x, y, z'

loop_
  _atom_site_type_symbol
  _atom_site_label
  _atom_site_symmetry_multiplicity
  _atom_site_fract_x
  _atom_site_fract_y
  _atom_site_fract_z
  _atom_site_occupancy
  B   B1        1.0  0.66700  0.33300  0.19400  1.0000
  B   B2        1.0  0.66700  0.33300  0.69500  1.0000
  Eu  Eu1       1.0  0.30600  0.06300  0.23300  1.0000
  Eu  Eu2       1.0  0.93700  0.24300  0.23300  1.0000
  Eu  Eu3       1.0  0.75700  0.69400  0.23300  1.0000
  Eu  Eu4       1.0  0.02780  0.60400  0.73400  1.0000
  Eu  Eu5       1.0  0.39600  0.42400  0.73400  1.0000
  Eu  Eu6       1.0  0.57600  0.97300  0.73400  1.0000
  O   O1        1.0  0.02660  0.84300  0.97500  1.0000
  O   O2        1.0  0.15700  0.18300  0.97500  1.0000
  O   O3        1.0  0.81600  0.97300  0.97500  1.0000
  O   O4        1.0  0.62100  0.15300  0.19500  1.0000
  O   O5        1.0  0.84700  0.46800  0.19500  1.0000
  O   O6        1.0  0.53200  0.37900  0.19500  1.0000
  O   O7        1.0  0.51700  0.69300  0.47500  1.0000
  O   O8        1.0  0.30700  0.82400  0.47500  1.0000
  O   O9        1.0  0.17600  0.48300  0.47500  1.0000
  O   O10       1.0  0.80100  0.28800  0.69600  1.0000
  O   O11       1.0  0.71200  0.51300  0.69600  1.0000
  O   O12       1.0  0.48700  0.19900  0.69600  1.0000
  O   O13       1.0  0.81400  0.97100  0.48700  1.0000
  O   O14       1.0  0.02880  0.84300  0.48700  1.0000
  O   O15       1.0  0.15600  0.18500  0.48700  1.0000
  O   O16       1.0  0.17700  0.48200  0.98700  1.0000
  O   O17       1.0  0.51900  0.69600  0.98700  1.0000
  O   O18       1.0  0.30400  0.82300  0.98700  1.0000
  W   W1        1.0  0.00000  0.00000  0.72900  1.0000
  W   W2        1.0  0.33300  0.66700  0.23100  1.0000
