data_image0
_chemical_formula_structural       Rb2Zn26
_chemical_formula_sum              "Rb2 Zn26"
_cell_length_a       8.74045
_cell_length_b       8.74045
_cell_length_c       8.74045
_cell_angle_alpha    120
_cell_angle_beta     90
_cell_angle_gamma    120

_space_group_name_H-M_alt    "P 1"
_space_group_IT_number       1

loop_
  _space_group_symop_operation_xyz
  'x, y, z'

loop_
  _atom_site_type_symbol
  _atom_site_label
  _atom_site_symmetry_multiplicity
  _atom_site_fract_x
  _atom_site_fract_y
  _atom_site_fract_z
  _atom_site_occupancy
  Rb  Rb1       1.0  0.75000  0.50000  0.25000  1.0000
  Rb  Rb2       1.0  0.25000  0.50000  0.75000  1.0000
  Zn  Zn1       1.0  0.00000  0.00000  0.00000  1.0000
  Zn  Zn2       1.0  0.70100  0.76200  0.06090  1.0000
  Zn  Zn3       1.0  0.29900  0.00000  0.06090  1.0000
  Zn  Zn4       1.0  0.06090  0.36000  0.06090  1.0000
  Zn  Zn5       1.0  0.56100  0.00000  0.20100  1.0000
  Zn  Zn6       1.0  0.20100  0.76200  0.20100  1.0000
  Zn  Zn7       1.0  0.43900  0.64000  0.20100  1.0000
  Zn  Zn8       1.0  0.93900  0.23800  0.29900  1.0000
  Zn  Zn9       1.0  0.06090  0.00000  0.29900  1.0000
  Zn  Zn10      1.0  0.29900  0.36000  0.29900  1.0000
  Zn  Zn11      1.0  0.79900  0.00000  0.43900  1.0000
  Zn  Zn12      1.0  0.43900  0.23800  0.43900  1.0000
  Zn  Zn13      1.0  0.20100  0.64000  0.43900  1.0000
  Zn  Zn14      1.0  0.50000  0.00000  0.50000  1.0000
  Zn  Zn15      1.0  0.20100  0.00000  0.56100  1.0000
  Zn  Zn16      1.0  0.56100  0.76200  0.56100  1.0000
  Zn  Zn17      1.0  0.79900  0.36000  0.56100  1.0000
  Zn  Zn18      1.0  0.93900  0.00000  0.70100  1.0000
  Zn  Zn19      1.0  0.70100  0.64000  0.70100  1.0000
  Zn  Zn20      1.0  0.06090  0.76200  0.70100  1.0000
  Zn  Zn21      1.0  0.43900  0.00000  0.79900  1.0000
  Zn  Zn22      1.0  0.79900  0.23800  0.79900  1.0000
  Zn  Zn23      1.0  0.56100  0.36000  0.79900  1.0000
  Zn  Zn24      1.0  0.70100  0.00000  0.93900  1.0000
  Zn  Zn25      1.0  0.29900  0.23800  0.93900  1.0000
  Zn  Zn26      1.0  0.93900  0.64000  0.93900  1.0000
