data_image0
_chemical_formula_structural       Hg4Mo2O8
_chemical_formula_sum              "Hg4 Mo2 O8"
_cell_length_a       4.93683
_cell_length_b       7.24664
_cell_length_c       7.24664
_cell_angle_alpha    105.835
_cell_angle_beta     104.363
_cell_angle_gamma    104.363

_space_group_name_H-M_alt    "P 1"
_space_group_IT_number       1

loop_
  _space_group_symop_operation_xyz
  'x, y, z'

loop_
  _atom_site_type_symbol
  _atom_site_label
  _atom_site_symmetry_multiplicity
  _atom_site_fract_x
  _atom_site_fract_y
  _atom_site_fract_z
  _atom_site_occupancy
  Hg  Hg1       1.0  0.51700  0.46700  0.25200  1.0000
  Hg  Hg2       1.0  0.01700  0.25200  0.46700  1.0000
  Hg  Hg3       1.0  0.98300  0.74800  0.53300  1.0000
  Hg  Hg4       1.0  0.48300  0.53300  0.74800  1.0000
  Mo  Mo1       1.0  0.25000  0.89800  0.10200  1.0000
  Mo  Mo2       1.0  0.75000  0.10200  0.89800  1.0000
  O   O1        1.0  0.29800  0.65800  0.05250  1.0000
  O   O2        1.0  0.14400  0.18300  0.08450  1.0000
  O   O3        1.0  0.64400  0.08450  0.18300  1.0000
  O   O4        1.0  0.20200  0.94800  0.34200  1.0000
  O   O5        1.0  0.79800  0.05250  0.65800  1.0000
  O   O6        1.0  0.35600  0.91500  0.81700  1.0000
  O   O7        1.0  0.85600  0.81700  0.91500  1.0000
  O   O8        1.0  0.70200  0.34200  0.94800  1.0000
