data_image0
_chemical_formula_structural       Rb8S20
_chemical_formula_sum              "Rb8 S20"
_cell_length_a       6.91231
_cell_length_b       17.9923
_cell_length_c       6.7115
_cell_angle_alpha    90
_cell_angle_beta     90
_cell_angle_gamma    90

_space_group_name_H-M_alt    "P 1"
_space_group_IT_number       1

loop_
  _space_group_symop_operation_xyz
  'x, y, z'

loop_
  _atom_site_type_symbol
  _atom_site_label
  _atom_site_symmetry_multiplicity
  _atom_site_fract_x
  _atom_site_fract_y
  _atom_site_fract_z
  _atom_site_occupancy
  Rb  Rb1       1.0  0.25500  0.83500  0.07620  1.0000
  Rb  Rb2       1.0  0.08180  0.48700  0.12100  1.0000
  Rb  Rb3       1.0  0.91800  0.98700  0.37900  1.0000
  Rb  Rb4       1.0  0.74500  0.33500  0.42400  1.0000
  Rb  Rb5       1.0  0.24500  0.16500  0.57600  1.0000
  Rb  Rb6       1.0  0.41800  0.51300  0.62100  1.0000
  Rb  Rb7       1.0  0.58200  0.01350  0.87900  1.0000
  Rb  Rb8       1.0  0.75500  0.66500  0.92400  1.0000
  S   S1        1.0  0.75300  0.84500  0.03600  1.0000
  S   S2        1.0  0.88300  0.19400  0.05710  1.0000
  S   S3        1.0  0.12800  0.12500  0.06640  1.0000
  S   S4        1.0  0.58400  0.47200  0.08880  1.0000
  S   S5        1.0  0.66900  0.14900  0.24100  1.0000
  S   S6        1.0  0.33100  0.64900  0.25900  1.0000
  S   S7        1.0  0.41600  0.97200  0.41100  1.0000
  S   S8        1.0  0.87200  0.62500  0.43400  1.0000
  S   S9        1.0  0.11700  0.69400  0.44300  1.0000
  S   S10       1.0  0.24700  0.34500  0.46400  1.0000
  S   S11       1.0  0.74700  0.15500  0.53600  1.0000
  S   S12       1.0  0.61700  0.80600  0.55700  1.0000
  S   S13       1.0  0.37200  0.87500  0.56600  1.0000
  S   S14       1.0  0.91600  0.52800  0.58900  1.0000
  S   S15       1.0  0.83100  0.85100  0.74100  1.0000
  S   S16       1.0  0.16900  0.35100  0.75900  1.0000
  S   S17       1.0  0.08390  0.02800  0.91100  1.0000
  S   S18       1.0  0.62800  0.37500  0.93400  1.0000
  S   S19       1.0  0.38300  0.30600  0.94300  1.0000
  S   S20       1.0  0.25300  0.65500  0.96400  1.0000
