data_image0
_chemical_formula_structural       Fe8O4Ti16
_chemical_formula_sum              "Fe8 O4 Ti16"
_cell_length_a       8.13031
_cell_length_b       8.13031
_cell_length_c       8.13031
_cell_angle_alpha    120
_cell_angle_beta     90
_cell_angle_gamma    120

_space_group_name_H-M_alt    "P 1"
_space_group_IT_number       1

loop_
  _space_group_symop_operation_xyz
  'x, y, z'

loop_
  _atom_site_type_symbol
  _atom_site_label
  _atom_site_symmetry_multiplicity
  _atom_site_fract_x
  _atom_site_fract_y
  _atom_site_fract_z
  _atom_site_occupancy
  Fe  Fe1       1.0  0.21200  0.57600  0.28800  1.0000
  Fe  Fe2       1.0  0.86400  0.57600  0.28800  1.0000
  Fe  Fe3       1.0  0.21200  0.92400  0.28800  1.0000
  Fe  Fe4       1.0  0.78800  0.07590  0.36400  1.0000
  Fe  Fe5       1.0  0.21200  0.92400  0.63600  1.0000
  Fe  Fe6       1.0  0.78800  0.07590  0.71200  1.0000
  Fe  Fe7       1.0  0.13600  0.42400  0.71200  1.0000
  Fe  Fe8       1.0  0.78800  0.42400  0.71200  1.0000
  O   O1        1.0  0.00000  0.00000  0.00000  1.0000
  O   O2        1.0  0.50000  0.00000  0.00000  1.0000
  O   O3        1.0  0.50000  0.50000  0.00000  1.0000
  O   O4        1.0  0.50000  0.50000  0.50000  1.0000
  Ti  Ti1       1.0  0.00000  0.50000  0.00000  1.0000
  Ti  Ti2       1.0  0.80800  0.75000  0.05830  1.0000
  Ti  Ti3       1.0  0.80800  0.11700  0.05830  1.0000
  Ti  Ti4       1.0  0.44200  0.75000  0.05830  1.0000
  Ti  Ti5       1.0  0.19200  0.25000  0.30800  1.0000
  Ti  Ti6       1.0  0.55800  0.25000  0.30800  1.0000
  Ti  Ti7       1.0  0.55800  0.61700  0.30800  1.0000
  Ti  Ti8       1.0  0.50000  0.00000  0.50000  1.0000
  Ti  Ti9       1.0  0.00000  0.00000  0.50000  1.0000
  Ti  Ti10      1.0  0.00000  0.50000  0.50000  1.0000
  Ti  Ti11      1.0  0.44200  0.38300  0.69200  1.0000
  Ti  Ti12      1.0  0.44200  0.75000  0.69200  1.0000
  Ti  Ti13      1.0  0.80800  0.75000  0.69200  1.0000
  Ti  Ti14      1.0  0.19200  0.25000  0.94200  1.0000
  Ti  Ti15      1.0  0.55800  0.25000  0.94200  1.0000
  Ti  Ti16      1.0  0.19200  0.88300  0.94200  1.0000
