data_image0
_chemical_formula_structural       Cu16Si10Sr2
_chemical_formula_sum              "Cu16 Si10 Sr2"
_cell_length_a       8.13169
_cell_length_b       8.13169
_cell_length_c       8.22643
_cell_angle_alpha    119.62
_cell_angle_beta     119.62
_cell_angle_gamma    90

_space_group_name_H-M_alt    "P 1"
_space_group_IT_number       1

loop_
  _space_group_symop_operation_xyz
  'x, y, z'

loop_
  _atom_site_type_symbol
  _atom_site_label
  _atom_site_symmetry_multiplicity
  _atom_site_fract_x
  _atom_site_fract_y
  _atom_site_fract_z
  _atom_site_occupancy
  Cu  Cu1       1.0  0.20700  0.05750  0.00000  1.0000
  Cu  Cu2       1.0  0.94300  0.20700  0.00000  1.0000
  Cu  Cu3       1.0  0.44300  0.29300  0.00000  1.0000
  Cu  Cu4       1.0  0.70700  0.44300  0.00000  1.0000
  Cu  Cu5       1.0  0.29300  0.55700  0.00000  1.0000
  Cu  Cu6       1.0  0.55700  0.70700  0.00000  1.0000
  Cu  Cu7       1.0  0.05750  0.79300  0.00000  1.0000
  Cu  Cu8       1.0  0.79300  0.94300  0.00000  1.0000
  Cu  Cu9       1.0  0.79800  0.06090  0.35800  1.0000
  Cu  Cu10      1.0  0.56100  0.29800  0.35800  1.0000
  Cu  Cu11      1.0  0.06090  0.56100  0.35800  1.0000
  Cu  Cu12      1.0  0.29800  0.79800  0.35800  1.0000
  Cu  Cu13      1.0  0.70200  0.20200  0.64200  1.0000
  Cu  Cu14      1.0  0.93900  0.43900  0.64200  1.0000
  Cu  Cu15      1.0  0.43900  0.70200  0.64200  1.0000
  Cu  Cu16      1.0  0.20200  0.93900  0.64200  1.0000
  Si  Si1       1.0  0.50000  0.00000  0.00000  1.0000
  Si  Si2       1.0  0.00000  0.50000  0.00000  1.0000
  Si  Si3       1.0  0.80500  0.30500  0.24600  1.0000
  Si  Si4       1.0  0.30500  0.44100  0.24600  1.0000
  Si  Si5       1.0  0.94100  0.80500  0.24600  1.0000
  Si  Si6       1.0  0.44100  0.94100  0.24600  1.0000
  Si  Si7       1.0  0.55900  0.05870  0.75400  1.0000
  Si  Si8       1.0  0.05870  0.19500  0.75400  1.0000
  Si  Si9       1.0  0.69500  0.55900  0.75400  1.0000
  Si  Si10      1.0  0.19500  0.69500  0.75400  1.0000
  Sr  Sr1       1.0  0.25000  0.25000  0.50000  1.0000
  Sr  Sr2       1.0  0.75000  0.75000  0.50000  1.0000
