data_image0
_chemical_formula_structural       Cs4P4Pb4Se16
_chemical_formula_sum              "Cs4 P4 Pb4 Se16"
_cell_length_a       18.8913
_cell_length_b       7.17802
_cell_length_c       6.86439
_cell_angle_alpha    90
_cell_angle_beta     90
_cell_angle_gamma    90

_space_group_name_H-M_alt    "P 1"
_space_group_IT_number       1

loop_
  _space_group_symop_operation_xyz
  'x, y, z'

loop_
  _atom_site_type_symbol
  _atom_site_label
  _atom_site_symmetry_multiplicity
  _atom_site_fract_x
  _atom_site_fract_y
  _atom_site_fract_z
  _atom_site_occupancy
  Cs  Cs1       1.0  0.29000  0.75000  0.02870  1.0000
  Cs  Cs2       1.0  0.79000  0.75000  0.47100  1.0000
  Cs  Cs3       1.0  0.21000  0.25000  0.52900  1.0000
  Cs  Cs4       1.0  0.71000  0.25000  0.97100  1.0000
  P   P1        1.0  0.59100  0.75000  0.21800  1.0000
  P   P2        1.0  0.09080  0.75000  0.28200  1.0000
  P   P3        1.0  0.90900  0.25000  0.71800  1.0000
  P   P4        1.0  0.40900  0.25000  0.78200  1.0000
  Pb  Pb1       1.0  0.98100  0.25000  0.21400  1.0000
  Pb  Pb2       1.0  0.48100  0.25000  0.28600  1.0000
  Pb  Pb3       1.0  0.51900  0.75000  0.71400  1.0000
  Pb  Pb4       1.0  0.01930  0.75000  0.78600  1.0000
  Se  Se1       1.0  0.34200  0.25000  0.04620  1.0000
  Se  Se2       1.0  0.11300  0.50100  0.09690  1.0000
  Se  Se3       1.0  0.11300  0.99900  0.09690  1.0000
  Se  Se4       1.0  0.47600  0.75000  0.14100  1.0000
  Se  Se5       1.0  0.97600  0.75000  0.35900  1.0000
  Se  Se6       1.0  0.61300  0.50100  0.40300  1.0000
  Se  Se7       1.0  0.61300  0.99900  0.40300  1.0000
  Se  Se8       1.0  0.84200  0.25000  0.45400  1.0000
  Se  Se9       1.0  0.15800  0.75000  0.54600  1.0000
  Se  Se10      1.0  0.38700  0.00079  0.59700  1.0000
  Se  Se11      1.0  0.38700  0.49900  0.59700  1.0000
  Se  Se12      1.0  0.02370  0.25000  0.64100  1.0000
  Se  Se13      1.0  0.52400  0.25000  0.85900  1.0000
  Se  Se14      1.0  0.88700  0.00079  0.90300  1.0000
  Se  Se15      1.0  0.88700  0.49900  0.90300  1.0000
  Se  Se16      1.0  0.65800  0.75000  0.95400  1.0000
