data_image0
_chemical_formula_structural       Co8O12Rb8
_chemical_formula_sum              "Co8 O12 Rb8"
_cell_length_a       11.7316
_cell_length_b       6.11077
_cell_length_c       7.79407
_cell_angle_alpha    90
_cell_angle_beta     90
_cell_angle_gamma    90

_space_group_name_H-M_alt    "P 1"
_space_group_IT_number       1

loop_
  _space_group_symop_operation_xyz
  'x, y, z'

loop_
  _atom_site_type_symbol
  _atom_site_label
  _atom_site_symmetry_multiplicity
  _atom_site_fract_x
  _atom_site_fract_y
  _atom_site_fract_z
  _atom_site_occupancy
  Co  Co1       1.0  0.23300  0.75000  0.08640  1.0000
  Co  Co2       1.0  0.64800  0.25000  0.22400  1.0000
  Co  Co3       1.0  0.14800  0.25000  0.27600  1.0000
  Co  Co4       1.0  0.73300  0.75000  0.41400  1.0000
  Co  Co5       1.0  0.26700  0.25000  0.58600  1.0000
  Co  Co6       1.0  0.85200  0.75000  0.72400  1.0000
  Co  Co7       1.0  0.35200  0.75000  0.77600  1.0000
  Co  Co8       1.0  0.76700  0.25000  0.91400  1.0000
  O   O1        1.0  0.38200  0.75000  0.01780  1.0000
  O   O2        1.0  0.14600  0.50900  0.16000  1.0000
  O   O3        1.0  0.14600  0.99100  0.16000  1.0000
  O   O4        1.0  0.64600  0.50900  0.34000  1.0000
  O   O5        1.0  0.64600  0.99100  0.34000  1.0000
  O   O6        1.0  0.88200  0.75000  0.48200  1.0000
  O   O7        1.0  0.11800  0.25000  0.51800  1.0000
  O   O8        1.0  0.35400  0.00854  0.66000  1.0000
  O   O9        1.0  0.35400  0.49100  0.66000  1.0000
  O   O10       1.0  0.85400  0.00854  0.84000  1.0000
  O   O11       1.0  0.85400  0.49100  0.84000  1.0000
  O   O12       1.0  0.61800  0.25000  0.98200  1.0000
  Rb  Rb1       1.0  0.37800  0.25000  0.00778  1.0000
  Rb  Rb2       1.0  0.93900  0.75000  0.12600  1.0000
  Rb  Rb3       1.0  0.43900  0.75000  0.37400  1.0000
  Rb  Rb4       1.0  0.87800  0.25000  0.49200  1.0000
  Rb  Rb5       1.0  0.12200  0.75000  0.50800  1.0000
  Rb  Rb6       1.0  0.56100  0.25000  0.62600  1.0000
  Rb  Rb7       1.0  0.06150  0.25000  0.87400  1.0000
  Rb  Rb8       1.0  0.62200  0.75000  0.99200  1.0000
