data_image0
_chemical_formula_structural       Ba4F20Ga4
_chemical_formula_sum              "Ba4 F20 Ga4"
_cell_length_a       13.7347
_cell_length_b       5.53967
_cell_length_c       4.79152
_cell_angle_alpha    90
_cell_angle_beta     90
_cell_angle_gamma    90

_space_group_name_H-M_alt    "P 1"
_space_group_IT_number       1

loop_
  _space_group_symop_operation_xyz
  'x, y, z'

loop_
  _atom_site_type_symbol
  _atom_site_label
  _atom_site_symmetry_multiplicity
  _atom_site_fract_x
  _atom_site_fract_y
  _atom_site_fract_z
  _atom_site_occupancy
  Ba  Ba1       1.0  0.09000  0.09280  0.03960  1.0000
  Ba  Ba2       1.0  0.91000  0.59300  0.46000  1.0000
  Ba  Ba3       1.0  0.41000  0.90700  0.54000  1.0000
  Ba  Ba4       1.0  0.59000  0.40700  0.96000  1.0000
  F   F1        1.0  0.41000  0.65200  0.06380  1.0000
  F   F2        1.0  0.42300  0.16300  0.07970  1.0000
  F   F3        1.0  0.08220  0.59600  0.11600  1.0000
  F   F4        1.0  0.76100  0.35800  0.21800  1.0000
  F   F5        1.0  0.74800  0.87300  0.24000  1.0000
  F   F6        1.0  0.25200  0.37300  0.26000  1.0000
  F   F7        1.0  0.23900  0.85800  0.28200  1.0000
  F   F8        1.0  0.91800  0.09560  0.38400  1.0000
  F   F9        1.0  0.57700  0.66300  0.42000  1.0000
  F   F10       1.0  0.59000  0.15200  0.43600  1.0000
  F   F11       1.0  0.09010  0.34800  0.56400  1.0000
  F   F12       1.0  0.07710  0.83700  0.58000  1.0000
  F   F13       1.0  0.41800  0.40400  0.61600  1.0000
  F   F14       1.0  0.73900  0.64200  0.71800  1.0000
  F   F15       1.0  0.75200  0.12700  0.74000  1.0000
  F   F16       1.0  0.24800  0.62700  0.76000  1.0000
  F   F17       1.0  0.26100  0.14200  0.78200  1.0000
  F   F18       1.0  0.58200  0.90400  0.88400  1.0000
  F   F19       1.0  0.92300  0.33700  0.92000  1.0000
  F   F20       1.0  0.91000  0.84800  0.93600  1.0000
  Ga  Ga1       1.0  0.83400  0.10700  0.06430  1.0000
  Ga  Ga2       1.0  0.16600  0.60700  0.43600  1.0000
  Ga  Ga3       1.0  0.66600  0.89300  0.56400  1.0000
  Ga  Ga4       1.0  0.33400  0.39300  0.93600  1.0000
