data_image0
_chemical_formula_structural       B2Nd6O18W2
_chemical_formula_sum              "B2 Nd6 O18 W2"
_cell_length_a       8.68395
_cell_length_b       8.68395
_cell_length_c       5.48983
_cell_angle_alpha    90
_cell_angle_beta     90
_cell_angle_gamma    120

_space_group_name_H-M_alt    "P 1"
_space_group_IT_number       1

loop_
  _space_group_symop_operation_xyz
  'x, y, z'

loop_
  _atom_site_type_symbol
  _atom_site_label
  _atom_site_symmetry_multiplicity
  _atom_site_fract_x
  _atom_site_fract_y
  _atom_site_fract_z
  _atom_site_occupancy
  B   B1        1.0  0.00000  0.00000  0.36100  1.0000
  B   B2        1.0  0.00000  0.00000  0.86100  1.0000
  Nd  Nd1       1.0  0.35900  0.08520  0.20700  1.0000
  Nd  Nd2       1.0  0.91500  0.27400  0.20700  1.0000
  Nd  Nd3       1.0  0.72600  0.64100  0.20700  1.0000
  Nd  Nd4       1.0  0.27400  0.35900  0.70700  1.0000
  Nd  Nd5       1.0  0.08520  0.72600  0.70700  1.0000
  Nd  Nd6       1.0  0.64100  0.91500  0.70700  1.0000
  O   O1        1.0  0.52900  0.72700  0.04270  1.0000
  O   O2        1.0  0.27300  0.80300  0.04270  1.0000
  O   O3        1.0  0.19700  0.47100  0.04270  1.0000
  O   O4        1.0  0.13000  0.17700  0.35300  1.0000
  O   O5        1.0  0.04670  0.87000  0.35300  1.0000
  O   O6        1.0  0.82300  0.95300  0.35300  1.0000
  O   O7        1.0  0.13700  0.51600  0.47900  1.0000
  O   O8        1.0  0.48400  0.62200  0.47900  1.0000
  O   O9        1.0  0.37800  0.86300  0.47900  1.0000
  O   O10       1.0  0.72700  0.19700  0.54300  1.0000
  O   O11       1.0  0.47100  0.27300  0.54300  1.0000
  O   O12       1.0  0.80300  0.52900  0.54300  1.0000
  O   O13       1.0  0.17700  0.04670  0.85300  1.0000
  O   O14       1.0  0.95300  0.13000  0.85300  1.0000
  O   O15       1.0  0.87000  0.82300  0.85300  1.0000
  O   O16       1.0  0.62200  0.13700  0.97900  1.0000
  O   O17       1.0  0.86300  0.48400  0.97900  1.0000
  O   O18       1.0  0.51600  0.37800  0.97900  1.0000
  W   W1        1.0  0.33300  0.66700  0.25000  1.0000
  W   W2        1.0  0.66700  0.33300  0.75000  1.0000
