data_image0
_chemical_formula_structural       O8Si2Zn4
_chemical_formula_sum              "O8 Si2 Zn4"
_cell_length_a       5.9236
_cell_length_b       5.9236
_cell_length_c       5.9236
_cell_angle_alpha    107.358
_cell_angle_beta     113.786
_cell_angle_gamma    107.358

_space_group_name_H-M_alt    "P 1"
_space_group_IT_number       1

loop_
  _space_group_symop_operation_xyz
  'x, y, z'

loop_
  _atom_site_type_symbol
  _atom_site_label
  _atom_site_symmetry_multiplicity
  _atom_site_fract_x
  _atom_site_fract_y
  _atom_site_fract_z
  _atom_site_occupancy
  O   O1        1.0  0.55500  0.18400  0.34800  1.0000
  O   O2        1.0  0.16500  0.81600  0.37100  1.0000
  O   O3        1.0  0.12100  0.31600  0.41500  1.0000
  O   O4        1.0  0.62900  0.79300  0.44500  1.0000
  O   O5        1.0  0.09830  0.68400  0.80500  1.0000
  O   O6        1.0  0.65200  0.20700  0.83500  1.0000
  O   O7        1.0  0.19500  0.29300  0.87900  1.0000
  O   O8        1.0  0.58500  0.70700  0.90200  1.0000
  Si  Si1       1.0  0.50000  0.00000  0.50000  1.0000
  Si  Si2       1.0  0.25000  0.50000  0.75000  1.0000
  Zn  Zn1       1.0  0.71700  0.09250  0.12500  1.0000
  Zn  Zn2       1.0  0.37500  0.40800  0.28300  1.0000
  Zn  Zn3       1.0  0.03250  0.90800  0.62500  1.0000
  Zn  Zn4       1.0  0.87500  0.59200  0.96700  1.0000
