data_image0
_chemical_formula_structural       Cl18Cs6Ru4
_chemical_formula_sum              "Cl18 Cs6 Ru4"
_cell_length_a       7.31533
_cell_length_b       7.31533
_cell_length_c       17.6539
_cell_angle_alpha    90
_cell_angle_beta     90
_cell_angle_gamma    120

_space_group_name_H-M_alt    "P 1"
_space_group_IT_number       1

loop_
  _space_group_symop_operation_xyz
  'x, y, z'

loop_
  _atom_site_type_symbol
  _atom_site_label
  _atom_site_symmetry_multiplicity
  _atom_site_fract_x
  _atom_site_fract_y
  _atom_site_fract_z
  _atom_site_occupancy
  Cl  Cl1       1.0  0.36400  0.18200  0.09670  1.0000
  Cl  Cl2       1.0  0.81800  0.18200  0.09670  1.0000
  Cl  Cl3       1.0  0.81800  0.63600  0.09670  1.0000
  Cl  Cl4       1.0  0.50900  0.01740  0.25000  1.0000
  Cl  Cl5       1.0  0.50900  0.49100  0.25000  1.0000
  Cl  Cl6       1.0  0.98300  0.49100  0.25000  1.0000
  Cl  Cl7       1.0  0.36400  0.18200  0.40300  1.0000
  Cl  Cl8       1.0  0.81800  0.18200  0.40300  1.0000
  Cl  Cl9       1.0  0.81800  0.63600  0.40300  1.0000
  Cl  Cl10      1.0  0.18200  0.36400  0.59700  1.0000
  Cl  Cl11      1.0  0.18200  0.81800  0.59700  1.0000
  Cl  Cl12      1.0  0.63600  0.81800  0.59700  1.0000
  Cl  Cl13      1.0  0.01740  0.50900  0.75000  1.0000
  Cl  Cl14      1.0  0.49100  0.50900  0.75000  1.0000
  Cl  Cl15      1.0  0.49100  0.98300  0.75000  1.0000
  Cl  Cl16      1.0  0.18200  0.36400  0.90300  1.0000
  Cl  Cl17      1.0  0.18200  0.81800  0.90300  1.0000
  Cl  Cl18      1.0  0.63600  0.81800  0.90300  1.0000
  Cs  Cs1       1.0  0.33300  0.66700  0.07350  1.0000
  Cs  Cs2       1.0  0.00000  0.00000  0.25000  1.0000
  Cs  Cs3       1.0  0.33300  0.66700  0.42600  1.0000
  Cs  Cs4       1.0  0.66700  0.33300  0.57400  1.0000
  Cs  Cs5       1.0  0.00000  0.00000  0.75000  1.0000
  Cs  Cs6       1.0  0.66700  0.33300  0.92600  1.0000
  Ru  Ru1       1.0  0.66700  0.33300  0.17400  1.0000
  Ru  Ru2       1.0  0.66700  0.33300  0.32600  1.0000
  Ru  Ru3       1.0  0.33300  0.66700  0.67400  1.0000
  Ru  Ru4       1.0  0.33300  0.66700  0.82600  1.0000
