data_image0
_chemical_formula_structural       F4O12P4Rb8
_chemical_formula_sum              "F4 O12 P4 Rb8"
_cell_length_a       7.78477
_cell_length_b       6.03718
_cell_length_c       10.3652
_cell_angle_alpha    90
_cell_angle_beta     90
_cell_angle_gamma    90

_space_group_name_H-M_alt    "P 1"
_space_group_IT_number       1

loop_
  _space_group_symop_operation_xyz
  'x, y, z'

loop_
  _atom_site_type_symbol
  _atom_site_label
  _atom_site_symmetry_multiplicity
  _atom_site_fract_x
  _atom_site_fract_y
  _atom_site_fract_z
  _atom_site_occupancy
  F   F1        1.0  0.52900  0.25000  0.06590  1.0000
  F   F2        1.0  0.02910  0.25000  0.43400  1.0000
  F   F3        1.0  0.97100  0.75000  0.56600  1.0000
  F   F4        1.0  0.47100  0.75000  0.93400  1.0000
  O   O1        1.0  0.19000  0.75000  0.05290  1.0000
  O   O2        1.0  0.77400  0.03810  0.15900  1.0000
  O   O3        1.0  0.77400  0.46200  0.15900  1.0000
  O   O4        1.0  0.27400  0.03810  0.34100  1.0000
  O   O5        1.0  0.27400  0.46200  0.34100  1.0000
  O   O6        1.0  0.69000  0.75000  0.44700  1.0000
  O   O7        1.0  0.31000  0.25000  0.55300  1.0000
  O   O8        1.0  0.72600  0.53800  0.65900  1.0000
  O   O9        1.0  0.72600  0.96200  0.65900  1.0000
  O   O10       1.0  0.22600  0.53800  0.84100  1.0000
  O   O11       1.0  0.22600  0.96200  0.84100  1.0000
  O   O12       1.0  0.81000  0.25000  0.94700  1.0000
  P   P1        1.0  0.74200  0.25000  0.08450  1.0000
  P   P2        1.0  0.24200  0.25000  0.41600  1.0000
  P   P3        1.0  0.75800  0.75000  0.58400  1.0000
  P   P4        1.0  0.25800  0.75000  0.91600  1.0000
  Rb  Rb1       1.0  0.17100  0.25000  0.07990  1.0000
  Rb  Rb2       1.0  0.49600  0.75000  0.21600  1.0000
  Rb  Rb3       1.0  0.99600  0.75000  0.28400  1.0000
  Rb  Rb4       1.0  0.67100  0.25000  0.42000  1.0000
  Rb  Rb5       1.0  0.32900  0.75000  0.58000  1.0000
  Rb  Rb6       1.0  0.00423  0.25000  0.71600  1.0000
  Rb  Rb7       1.0  0.50400  0.25000  0.78400  1.0000
  Rb  Rb8       1.0  0.82900  0.75000  0.92000  1.0000
