data_image0
_chemical_formula_structural       Cl18Mo4Rb6
_chemical_formula_sum              "Cl18 Mo4 Rb6"
_cell_length_a       7.17947
_cell_length_b       7.1794
_cell_length_c       17.4327
_cell_angle_alpha    90
_cell_angle_beta     90
_cell_angle_gamma    120

_space_group_name_H-M_alt    "P 1"
_space_group_IT_number       1

loop_
  _space_group_symop_operation_xyz
  'x, y, z'

loop_
  _atom_site_type_symbol
  _atom_site_label
  _atom_site_symmetry_multiplicity
  _atom_site_fract_x
  _atom_site_fract_y
  _atom_site_fract_z
  _atom_site_occupancy
  Cl  Cl1       1.0  0.34800  0.17400  0.09240  1.0000
  Cl  Cl2       1.0  0.82600  0.17400  0.09240  1.0000
  Cl  Cl3       1.0  0.82600  0.65200  0.09240  1.0000
  Cl  Cl4       1.0  0.50000  0.00019  0.25000  1.0000
  Cl  Cl5       1.0  0.50000  0.50000  0.25000  1.0000
  Cl  Cl6       1.0  0.00000  0.50000  0.25000  1.0000
  Cl  Cl7       1.0  0.82600  0.65200  0.40800  1.0000
  Cl  Cl8       1.0  0.34800  0.17400  0.40800  1.0000
  Cl  Cl9       1.0  0.82600  0.17400  0.40800  1.0000
  Cl  Cl10      1.0  0.17400  0.82600  0.59200  1.0000
  Cl  Cl11      1.0  0.65200  0.82600  0.59200  1.0000
  Cl  Cl12      1.0  0.17400  0.34800  0.59200  1.0000
  Cl  Cl13      1.0  0.00019  0.50000  0.75000  1.0000
  Cl  Cl14      1.0  0.50000  0.50000  0.75000  1.0000
  Cl  Cl15      1.0  0.50000  0.00000  0.75000  1.0000
  Cl  Cl16      1.0  0.17400  0.34800  0.90800  1.0000
  Cl  Cl17      1.0  0.17400  0.82600  0.90800  1.0000
  Cl  Cl18      1.0  0.65200  0.82600  0.90800  1.0000
  Mo  Mo1       1.0  0.66700  0.33300  0.17100  1.0000
  Mo  Mo2       1.0  0.66700  0.33300  0.32900  1.0000
  Mo  Mo3       1.0  0.33300  0.66700  0.67100  1.0000
  Mo  Mo4       1.0  0.33300  0.66700  0.82900  1.0000
  Rb  Rb1       1.0  0.33300  0.66700  0.07050  1.0000
  Rb  Rb2       1.0  0.00000  0.00000  0.25000  1.0000
  Rb  Rb3       1.0  0.33300  0.66700  0.43000  1.0000
  Rb  Rb4       1.0  0.66700  0.33300  0.57000  1.0000
  Rb  Rb5       1.0  0.00000  0.00000  0.75000  1.0000
  Rb  Rb6       1.0  0.66700  0.33300  0.93000  1.0000
