data_image0
_chemical_formula_structural       Br18Cs6Er4
_chemical_formula_sum              "Br18 Cs6 Er4"
_cell_length_a       10.2103
_cell_length_b       10.2103
_cell_length_c       10.2103
_cell_angle_alpha    83.9031
_cell_angle_beta     96.0969
_cell_angle_gamma    96.0969

_space_group_name_H-M_alt    "P 1"
_space_group_IT_number       1

loop_
  _space_group_symop_operation_xyz
  'x, y, z'

loop_
  _atom_site_type_symbol
  _atom_site_label
  _atom_site_symmetry_multiplicity
  _atom_site_fract_x
  _atom_site_fract_y
  _atom_site_fract_z
  _atom_site_occupancy
  Br  Br1       1.0  0.08420  0.26500  0.08090  1.0000
  Br  Br2       1.0  0.26500  0.91900  0.08420  1.0000
  Br  Br3       1.0  0.75000  0.40700  0.09320  1.0000
  Br  Br4       1.0  0.41600  0.41900  0.23500  1.0000
  Br  Br5       1.0  0.59300  0.09320  0.25000  1.0000
  Br  Br6       1.0  0.91900  0.91600  0.26500  1.0000
  Br  Br7       1.0  0.90700  0.25000  0.40700  1.0000
  Br  Br8       1.0  0.41900  0.76500  0.41600  1.0000
  Br  Br9       1.0  0.76500  0.58400  0.41900  1.0000
  Br  Br10      1.0  0.23500  0.41600  0.58100  1.0000
  Br  Br11      1.0  0.58100  0.23500  0.58400  1.0000
  Br  Br12      1.0  0.09320  0.75000  0.59300  1.0000
  Br  Br13      1.0  0.08090  0.08420  0.73500  1.0000
  Br  Br14      1.0  0.40700  0.90700  0.75000  1.0000
  Br  Br15      1.0  0.58400  0.58100  0.76500  1.0000
  Br  Br16      1.0  0.25000  0.59300  0.90700  1.0000
  Br  Br17      1.0  0.73500  0.08090  0.91600  1.0000
  Br  Br18      1.0  0.91600  0.73500  0.91900  1.0000
  Cs  Cs1       1.0  0.59000  0.75000  0.09040  1.0000
  Cs  Cs2       1.0  0.09040  0.59000  0.25000  1.0000
  Cs  Cs3       1.0  0.25000  0.09040  0.41000  1.0000
  Cs  Cs4       1.0  0.75000  0.91000  0.59000  1.0000
  Cs  Cs5       1.0  0.91000  0.41000  0.75000  1.0000
  Cs  Cs6       1.0  0.41000  0.25000  0.91000  1.0000
  Er  Er1       1.0  0.84900  0.15100  0.15100  1.0000
  Er  Er2       1.0  0.65100  0.34900  0.34900  1.0000
  Er  Er3       1.0  0.34900  0.65100  0.65100  1.0000
  Er  Er4       1.0  0.15100  0.84900  0.84900  1.0000
