data_image0
_chemical_formula_structural       P4S16Sr4Tl4
_chemical_formula_sum              "P4 S16 Sr4 Tl4"
_cell_length_a       12.6076
_cell_length_b       6.62326
_cell_length_c       8.82506
_cell_angle_alpha    90
_cell_angle_beta     90
_cell_angle_gamma    90

_space_group_name_H-M_alt    "P 1"
_space_group_IT_number       1

loop_
  _space_group_symop_operation_xyz
  'x, y, z'

loop_
  _atom_site_type_symbol
  _atom_site_label
  _atom_site_symmetry_multiplicity
  _atom_site_fract_x
  _atom_site_fract_y
  _atom_site_fract_z
  _atom_site_occupancy
  P   P1        1.0  0.65000  0.75000  0.12500  1.0000
  P   P2        1.0  0.15000  0.75000  0.37500  1.0000
  P   P3        1.0  0.85000  0.25000  0.62500  1.0000
  P   P4        1.0  0.35000  0.25000  0.87500  1.0000
  S   S1        1.0  0.43100  0.25000  0.07610  1.0000
  S   S2        1.0  0.74900  0.50300  0.13600  1.0000
  S   S3        1.0  0.74900  0.99700  0.13600  1.0000
  S   S4        1.0  0.05310  0.75000  0.18900  1.0000
  S   S5        1.0  0.55300  0.75000  0.31100  1.0000
  S   S6        1.0  0.24900  0.50300  0.36400  1.0000
  S   S7        1.0  0.24900  0.99700  0.36400  1.0000
  S   S8        1.0  0.93100  0.25000  0.42400  1.0000
  S   S9        1.0  0.06880  0.75000  0.57600  1.0000
  S   S10       1.0  0.75100  0.00305  0.63600  1.0000
  S   S11       1.0  0.75100  0.49700  0.63600  1.0000
  S   S12       1.0  0.44700  0.25000  0.68900  1.0000
  S   S13       1.0  0.94700  0.25000  0.81100  1.0000
  S   S14       1.0  0.25100  0.00305  0.86400  1.0000
  S   S15       1.0  0.25100  0.49700  0.86400  1.0000
  S   S16       1.0  0.56900  0.75000  0.92400  1.0000
  Sr  Sr1       1.0  0.36300  0.75000  0.10800  1.0000
  Sr  Sr2       1.0  0.86300  0.75000  0.39200  1.0000
  Sr  Sr3       1.0  0.13700  0.25000  0.60800  1.0000
  Sr  Sr4       1.0  0.63700  0.25000  0.89200  1.0000
  Tl  Tl1       1.0  0.10800  0.25000  0.12800  1.0000
  Tl  Tl2       1.0  0.60800  0.25000  0.37200  1.0000
  Tl  Tl3       1.0  0.39200  0.75000  0.62800  1.0000
  Tl  Tl4       1.0  0.89200  0.75000  0.87200  1.0000
