data_image0
_chemical_formula_structural       Ga4O18Te6
_chemical_formula_sum              "Ga4 O18 Te6"
_cell_length_a       9.05087
_cell_length_b       9.05118
_cell_length_c       7.46483
_cell_angle_alpha    90
_cell_angle_beta     90
_cell_angle_gamma    120.001

_space_group_name_H-M_alt    "P 1"
_space_group_IT_number       1

loop_
  _space_group_symop_operation_xyz
  'x, y, z'

loop_
  _atom_site_type_symbol
  _atom_site_label
  _atom_site_symmetry_multiplicity
  _atom_site_fract_x
  _atom_site_fract_y
  _atom_site_fract_z
  _atom_site_occupancy
  Ga  Ga1       1.0  0.33300  0.66700  0.06220  1.0000
  Ga  Ga2       1.0  0.33300  0.66700  0.43800  1.0000
  Ga  Ga3       1.0  0.66700  0.33300  0.56200  1.0000
  Ga  Ga4       1.0  0.66700  0.33300  0.93800  1.0000
  O   O1        1.0  0.65800  0.14400  0.06670  1.0000
  O   O2        1.0  0.85600  0.51400  0.06670  1.0000
  O   O3        1.0  0.48600  0.34200  0.06670  1.0000
  O   O4        1.0  0.33500  0.50100  0.25000  1.0000
  O   O5        1.0  0.16600  0.66500  0.25000  1.0000
  O   O6        1.0  0.49900  0.83400  0.25000  1.0000
  O   O7        1.0  0.48600  0.34200  0.43300  1.0000
  O   O8        1.0  0.65800  0.14400  0.43300  1.0000
  O   O9        1.0  0.85600  0.51400  0.43300  1.0000
  O   O10       1.0  0.34200  0.85600  0.56700  1.0000
  O   O11       1.0  0.14400  0.48600  0.56700  1.0000
  O   O12       1.0  0.51400  0.65800  0.56700  1.0000
  O   O13       1.0  0.50100  0.16600  0.75000  1.0000
  O   O14       1.0  0.83400  0.33500  0.75000  1.0000
  O   O15       1.0  0.66500  0.49900  0.75000  1.0000
  O   O16       1.0  0.14400  0.48600  0.93300  1.0000
  O   O17       1.0  0.51400  0.65800  0.93300  1.0000
  O   O18       1.0  0.34200  0.85600  0.93300  1.0000
  Te  Te1       1.0  0.48800  0.04080  0.25000  1.0000
  Te  Te2       1.0  0.95900  0.44700  0.25000  1.0000
  Te  Te3       1.0  0.55300  0.51200  0.25000  1.0000
  Te  Te4       1.0  0.44700  0.48800  0.75000  1.0000
  Te  Te5       1.0  0.04080  0.55300  0.75000  1.0000
  Te  Te6       1.0  0.51200  0.95900  0.75000  1.0000
