data_image0
_chemical_formula_structural       Ag4Co4O16P4
_chemical_formula_sum              "Ag4 Co4 O16 P4"
_cell_length_a       9.50008
_cell_length_b       5.52093
_cell_length_c       6.58165
_cell_angle_alpha    102.226
_cell_angle_beta     106.131
_cell_angle_gamma    80.1796

_space_group_name_H-M_alt    "P 1"
_space_group_IT_number       1

loop_
  _space_group_symop_operation_xyz
  'x, y, z'

loop_
  _atom_site_type_symbol
  _atom_site_label
  _atom_site_symmetry_multiplicity
  _atom_site_fract_x
  _atom_site_fract_y
  _atom_site_fract_z
  _atom_site_occupancy
  Ag  Ag1       1.0  0.12100  0.33400  0.37700  1.0000
  Ag  Ag2       1.0  0.24700  0.83900  0.47700  1.0000
  Ag  Ag3       1.0  0.75300  0.16100  0.52300  1.0000
  Ag  Ag4       1.0  0.87900  0.66600  0.62300  1.0000
  Co  Co1       1.0  0.78800  0.32100  0.05870  1.0000
  Co  Co2       1.0  0.43200  0.21400  0.16900  1.0000
  Co  Co3       1.0  0.56800  0.78600  0.83100  1.0000
  Co  Co4       1.0  0.21200  0.67900  0.94100  1.0000
  O   O1        1.0  0.21000  0.18700  0.07340  1.0000
  O   O2        1.0  0.06430  0.76000  0.11800  1.0000
  O   O3        1.0  0.56000  0.87100  0.16000  1.0000
  O   O4        1.0  0.61300  0.41200  0.21100  1.0000
  O   O5        1.0  0.36900  0.63900  0.22200  1.0000
  O   O6        1.0  0.87800  0.62300  0.26600  1.0000
  O   O7        1.0  0.88700  0.08850  0.27800  1.0000
  O   O8        1.0  0.40800  0.23500  0.47300  1.0000
  O   O9        1.0  0.59200  0.76500  0.52700  1.0000
  O   O10       1.0  0.11300  0.91200  0.72200  1.0000
  O   O11       1.0  0.12200  0.37700  0.73400  1.0000
  O   O12       1.0  0.63100  0.36100  0.77800  1.0000
  O   O13       1.0  0.38700  0.58800  0.78900  1.0000
  O   O14       1.0  0.44000  0.12900  0.84000  1.0000
  O   O15       1.0  0.93600  0.24000  0.88200  1.0000
  O   O16       1.0  0.79000  0.81300  0.92700  1.0000
  P   P1        1.0  0.90700  0.81900  0.14600  1.0000
  P   P2        1.0  0.53700  0.67900  0.28600  1.0000
  P   P3        1.0  0.46300  0.32100  0.71400  1.0000
  P   P4        1.0  0.09320  0.18100  0.85400  1.0000
