data_image0
_chemical_formula_structural       Cs8F4O12P4
_chemical_formula_sum              "Cs8 F4 O12 P4"
_cell_length_a       8.21912
_cell_length_b       6.28087
_cell_length_c       10.8698
_cell_angle_alpha    90
_cell_angle_beta     90
_cell_angle_gamma    90

_space_group_name_H-M_alt    "P 1"
_space_group_IT_number       1

loop_
  _space_group_symop_operation_xyz
  'x, y, z'

loop_
  _atom_site_type_symbol
  _atom_site_label
  _atom_site_symmetry_multiplicity
  _atom_site_fract_x
  _atom_site_fract_y
  _atom_site_fract_z
  _atom_site_occupancy
  Cs  Cs1       1.0  0.17300  0.25000  0.08350  1.0000
  Cs  Cs2       1.0  0.50200  0.75000  0.21500  1.0000
  Cs  Cs3       1.0  0.00168  0.75000  0.28500  1.0000
  Cs  Cs4       1.0  0.67300  0.25000  0.41600  1.0000
  Cs  Cs5       1.0  0.32700  0.75000  0.58400  1.0000
  Cs  Cs6       1.0  0.99800  0.25000  0.71500  1.0000
  Cs  Cs7       1.0  0.49800  0.25000  0.78500  1.0000
  Cs  Cs8       1.0  0.82700  0.75000  0.91600  1.0000
  F   F1        1.0  0.54400  0.25000  0.07470  1.0000
  F   F2        1.0  0.04390  0.25000  0.42500  1.0000
  F   F3        1.0  0.95600  0.75000  0.57500  1.0000
  F   F4        1.0  0.45600  0.75000  0.92500  1.0000
  O   O1        1.0  0.20000  0.75000  0.05130  1.0000
  O   O2        1.0  0.78400  0.04570  0.15200  1.0000
  O   O3        1.0  0.78400  0.45400  0.15200  1.0000
  O   O4        1.0  0.28400  0.04570  0.34800  1.0000
  O   O5        1.0  0.28400  0.45400  0.34800  1.0000
  O   O6        1.0  0.70000  0.75000  0.44900  1.0000
  O   O7        1.0  0.30000  0.25000  0.55100  1.0000
  O   O8        1.0  0.71600  0.54600  0.65200  1.0000
  O   O9        1.0  0.71600  0.95400  0.65200  1.0000
  O   O10       1.0  0.21600  0.54600  0.84800  1.0000
  O   O11       1.0  0.21600  0.95400  0.84800  1.0000
  O   O12       1.0  0.80000  0.25000  0.94900  1.0000
  P   P1        1.0  0.74700  0.25000  0.08290  1.0000
  P   P2        1.0  0.24700  0.25000  0.41700  1.0000
  P   P3        1.0  0.75300  0.75000  0.58300  1.0000
  P   P4        1.0  0.25300  0.75000  0.91700  1.0000
