data_image0
_chemical_formula_structural       Be4Cs4O16P4
_chemical_formula_sum              "Be4 Cs4 O16 P4"
_cell_length_a       8.5724
_cell_length_b       8.87186
_cell_length_c       5.13745
_cell_angle_alpha    90
_cell_angle_beta     90
_cell_angle_gamma    90

_space_group_name_H-M_alt    "P 1"
_space_group_IT_number       1

loop_
  _space_group_symop_operation_xyz
  'x, y, z'

loop_
  _atom_site_type_symbol
  _atom_site_label
  _atom_site_symmetry_multiplicity
  _atom_site_fract_x
  _atom_site_fract_y
  _atom_site_fract_z
  _atom_site_occupancy
  Be  Be1       1.0  0.17700  0.58900  0.25000  1.0000
  Be  Be2       1.0  0.67700  0.91100  0.25000  1.0000
  Be  Be3       1.0  0.32300  0.08850  0.75000  1.0000
  Be  Be4       1.0  0.82300  0.41100  0.75000  1.0000
  Cs  Cs1       1.0  0.99300  0.20000  0.25000  1.0000
  Cs  Cs2       1.0  0.49300  0.30000  0.25000  1.0000
  Cs  Cs3       1.0  0.50700  0.70000  0.75000  1.0000
  Cs  Cs4       1.0  0.00654  0.80000  0.75000  1.0000
  O   O1        1.0  0.25400  0.00388  0.00647  1.0000
  O   O2        1.0  0.75400  0.49600  0.00647  1.0000
  O   O3        1.0  0.99000  0.59300  0.25000  1.0000
  O   O4        1.0  0.74000  0.73900  0.25000  1.0000
  O   O5        1.0  0.24000  0.76100  0.25000  1.0000
  O   O6        1.0  0.49000  0.90700  0.25000  1.0000
  O   O7        1.0  0.25400  0.00388  0.49400  1.0000
  O   O8        1.0  0.75400  0.49600  0.49400  1.0000
  O   O9        1.0  0.24600  0.50400  0.50600  1.0000
  O   O10       1.0  0.74600  0.99600  0.50600  1.0000
  O   O11       1.0  0.51000  0.09270  0.75000  1.0000
  O   O12       1.0  0.76000  0.23900  0.75000  1.0000
  O   O13       1.0  0.26000  0.26100  0.75000  1.0000
  O   O14       1.0  0.00959  0.40700  0.75000  1.0000
  O   O15       1.0  0.24600  0.50400  0.99400  1.0000
  O   O16       1.0  0.74600  0.99600  0.99400  1.0000
  P   P1        1.0  0.81300  0.58200  0.25000  1.0000
  P   P2        1.0  0.31300  0.91800  0.25000  1.0000
  P   P3        1.0  0.68700  0.08150  0.75000  1.0000
  P   P4        1.0  0.18700  0.41800  0.75000  1.0000
