data_image0
_chemical_formula_structural       Cu24Gd4
_chemical_formula_sum              "Cu24 Gd4"
_cell_length_a       8.00011
_cell_length_b       4.99733
_cell_length_c       10.0304
_cell_angle_alpha    90
_cell_angle_beta     90
_cell_angle_gamma    90

_space_group_name_H-M_alt    "P 1"
_space_group_IT_number       1

loop_
  _space_group_symop_operation_xyz
  'x, y, z'

loop_
  _atom_site_type_symbol
  _atom_site_label
  _atom_site_symmetry_multiplicity
  _atom_site_fract_x
  _atom_site_fract_y
  _atom_site_fract_z
  _atom_site_occupancy
  Cu  Cu1       1.0  0.40100  0.25000  0.01680  1.0000
  Cu  Cu2       1.0  0.06040  0.25000  0.09330  1.0000
  Cu  Cu3       1.0  0.85400  0.75000  0.14300  1.0000
  Cu  Cu4       1.0  0.56400  0.50600  0.19100  1.0000
  Cu  Cu5       1.0  0.56400  0.99400  0.19100  1.0000
  Cu  Cu6       1.0  0.81500  0.25000  0.24400  1.0000
  Cu  Cu7       1.0  0.31500  0.25000  0.25600  1.0000
  Cu  Cu8       1.0  0.06380  0.50600  0.30900  1.0000
  Cu  Cu9       1.0  0.06380  0.99400  0.30900  1.0000
  Cu  Cu10      1.0  0.35400  0.75000  0.35700  1.0000
  Cu  Cu11      1.0  0.56000  0.25000  0.40700  1.0000
  Cu  Cu12      1.0  0.90100  0.25000  0.48300  1.0000
  Cu  Cu13      1.0  0.09920  0.75000  0.51700  1.0000
  Cu  Cu14      1.0  0.44000  0.75000  0.59300  1.0000
  Cu  Cu15      1.0  0.64600  0.25000  0.64300  1.0000
  Cu  Cu16      1.0  0.93600  0.00614  0.69100  1.0000
  Cu  Cu17      1.0  0.93600  0.49400  0.69100  1.0000
  Cu  Cu18      1.0  0.68500  0.75000  0.74400  1.0000
  Cu  Cu19      1.0  0.18500  0.75000  0.75600  1.0000
  Cu  Cu20      1.0  0.43600  0.00614  0.80900  1.0000
  Cu  Cu21      1.0  0.43600  0.49400  0.80900  1.0000
  Cu  Cu22      1.0  0.14600  0.25000  0.85700  1.0000
  Cu  Cu23      1.0  0.94000  0.75000  0.90700  1.0000
  Cu  Cu24      1.0  0.59900  0.75000  0.98300  1.0000
  Gd  Gd1       1.0  0.24100  0.75000  0.06510  1.0000
  Gd  Gd2       1.0  0.74100  0.75000  0.43500  1.0000
  Gd  Gd3       1.0  0.25900  0.25000  0.56500  1.0000
  Gd  Gd4       1.0  0.75900  0.25000  0.93500  1.0000
