data_image0
_chemical_formula_structural       Mn4Na4O16P4
_chemical_formula_sum              "Mn4 Na4 O16 P4"
_cell_length_a       6.85315
_cell_length_b       9.07835
_cell_length_c       5.08366
_cell_angle_alpha    90
_cell_angle_beta     90
_cell_angle_gamma    90

_space_group_name_H-M_alt    "P 1"
_space_group_IT_number       1

loop_
  _space_group_symop_operation_xyz
  'x, y, z'

loop_
  _atom_site_type_symbol
  _atom_site_label
  _atom_site_symmetry_multiplicity
  _atom_site_fract_x
  _atom_site_fract_y
  _atom_site_fract_z
  _atom_site_occupancy
  Mn  Mn1       1.0  0.00000  0.00000  0.00000  1.0000
  Mn  Mn2       1.0  0.50000  0.00000  0.00000  1.0000
  Mn  Mn3       1.0  0.00000  0.50000  0.50000  1.0000
  Mn  Mn4       1.0  0.50000  0.50000  0.50000  1.0000
  Na  Na1       1.0  0.25000  0.64800  0.01770  1.0000
  Na  Na2       1.0  0.25000  0.14800  0.48200  1.0000
  Na  Na3       1.0  0.75000  0.85200  0.51800  1.0000
  Na  Na4       1.0  0.75000  0.35200  0.98200  1.0000
  O   O1        1.0  0.75000  0.85000  0.04170  1.0000
  O   O2        1.0  0.56600  0.62200  0.16500  1.0000
  O   O3        1.0  0.93400  0.62200  0.16500  1.0000
  O   O4        1.0  0.25000  0.87700  0.23200  1.0000
  O   O5        1.0  0.25000  0.37700  0.26800  1.0000
  O   O6        1.0  0.56600  0.12200  0.33500  1.0000
  O   O7        1.0  0.93400  0.12200  0.33500  1.0000
  O   O8        1.0  0.75000  0.35000  0.45800  1.0000
  O   O9        1.0  0.25000  0.65000  0.54200  1.0000
  O   O10       1.0  0.06590  0.87800  0.66500  1.0000
  O   O11       1.0  0.43400  0.87800  0.66500  1.0000
  O   O12       1.0  0.75000  0.62300  0.73200  1.0000
  O   O13       1.0  0.75000  0.12300  0.76800  1.0000
  O   O14       1.0  0.06590  0.37800  0.83500  1.0000
  O   O15       1.0  0.43400  0.37800  0.83500  1.0000
  O   O16       1.0  0.25000  0.15000  0.95800  1.0000
  P   P1        1.0  0.75000  0.67700  0.02330  1.0000
  P   P2        1.0  0.75000  0.17700  0.47700  1.0000
  P   P3        1.0  0.25000  0.82300  0.52300  1.0000
  P   P4        1.0  0.25000  0.32300  0.97700  1.0000
