data_image0
_chemical_formula_structural       Cs4F20Te4
_chemical_formula_sum              "Cs4 F20 Te4"
_cell_length_a       9.5969
_cell_length_b       6.31331
_cell_length_c       7.95395
_cell_angle_alpha    90
_cell_angle_beta     90
_cell_angle_gamma    90

_space_group_name_H-M_alt    "P 1"
_space_group_IT_number       1

loop_
  _space_group_symop_operation_xyz
  'x, y, z'

loop_
  _atom_site_type_symbol
  _atom_site_label
  _atom_site_symmetry_multiplicity
  _atom_site_fract_x
  _atom_site_fract_y
  _atom_site_fract_z
  _atom_site_occupancy
  Cs  Cs1       1.0  0.33000  0.75000  0.13700  1.0000
  Cs  Cs2       1.0  0.83000  0.75000  0.36300  1.0000
  Cs  Cs3       1.0  0.17000  0.25000  0.63700  1.0000
  Cs  Cs4       1.0  0.67000  0.25000  0.86300  1.0000
  F   F1        1.0  0.86500  0.53500  0.02940  1.0000
  F   F2        1.0  0.86500  0.96500  0.02940  1.0000
  F   F3        1.0  0.57600  0.02290  0.18300  1.0000
  F   F4        1.0  0.57600  0.47700  0.18300  1.0000
  F   F5        1.0  0.26400  0.25000  0.18900  1.0000
  F   F6        1.0  0.76400  0.25000  0.31100  1.0000
  F   F7        1.0  0.07600  0.02290  0.31700  1.0000
  F   F8        1.0  0.07600  0.47700  0.31700  1.0000
  F   F9        1.0  0.36500  0.53500  0.47100  1.0000
  F   F10       1.0  0.36500  0.96500  0.47100  1.0000
  F   F11       1.0  0.63500  0.03480  0.52900  1.0000
  F   F12       1.0  0.63500  0.46500  0.52900  1.0000
  F   F13       1.0  0.92400  0.52300  0.68300  1.0000
  F   F14       1.0  0.92400  0.97700  0.68300  1.0000
  F   F15       1.0  0.23600  0.75000  0.68900  1.0000
  F   F16       1.0  0.73600  0.75000  0.81100  1.0000
  F   F17       1.0  0.42400  0.52300  0.81700  1.0000
  F   F18       1.0  0.42400  0.97700  0.81700  1.0000
  F   F19       1.0  0.13500  0.03480  0.97100  1.0000
  F   F20       1.0  0.13500  0.46500  0.97100  1.0000
  Te  Te1       1.0  0.06700  0.25000  0.14200  1.0000
  Te  Te2       1.0  0.56700  0.25000  0.35800  1.0000
  Te  Te3       1.0  0.43300  0.75000  0.64200  1.0000
  Te  Te4       1.0  0.93300  0.75000  0.85800  1.0000
