data_image0
_chemical_formula_structural       Ce12Rh8Si8
_chemical_formula_sum              "Ce12 Rh8 Si8"
_cell_length_a       5.83784
_cell_length_b       8.08083
_cell_length_c       13.4954
_cell_angle_alpha    90
_cell_angle_beta     90
_cell_angle_gamma    90

_space_group_name_H-M_alt    "P 1"
_space_group_IT_number       1

loop_
  _space_group_symop_operation_xyz
  'x, y, z'

loop_
  _atom_site_type_symbol
  _atom_site_label
  _atom_site_symmetry_multiplicity
  _atom_site_fract_x
  _atom_site_fract_y
  _atom_site_fract_z
  _atom_site_occupancy
  Ce  Ce1       1.0  0.13400  0.38800  0.10200  1.0000
  Ce  Ce2       1.0  0.86600  0.88800  0.10200  1.0000
  Ce  Ce3       1.0  0.64300  0.24100  0.25000  1.0000
  Ce  Ce4       1.0  0.35700  0.74100  0.25000  1.0000
  Ce  Ce5       1.0  0.13400  0.38800  0.39800  1.0000
  Ce  Ce6       1.0  0.86600  0.88800  0.39800  1.0000
  Ce  Ce7       1.0  0.13400  0.11200  0.60200  1.0000
  Ce  Ce8       1.0  0.86600  0.61200  0.60200  1.0000
  Ce  Ce9       1.0  0.64300  0.25900  0.75000  1.0000
  Ce  Ce10      1.0  0.35700  0.75900  0.75000  1.0000
  Ce  Ce11      1.0  0.13400  0.11200  0.89800  1.0000
  Ce  Ce12      1.0  0.86600  0.61200  0.89800  1.0000
  Rh  Rh1       1.0  0.37800  0.03150  0.08920  1.0000
  Rh  Rh2       1.0  0.62200  0.53200  0.08920  1.0000
  Rh  Rh3       1.0  0.37800  0.03150  0.41100  1.0000
  Rh  Rh4       1.0  0.62200  0.53200  0.41100  1.0000
  Rh  Rh5       1.0  0.37800  0.46800  0.58900  1.0000
  Rh  Rh6       1.0  0.62200  0.96800  0.58900  1.0000
  Rh  Rh7       1.0  0.37800  0.46800  0.91100  1.0000
  Rh  Rh8       1.0  0.62200  0.96800  0.91100  1.0000
  Si  Si1       1.0  0.61900  0.25000  0.00000  1.0000
  Si  Si2       1.0  0.38100  0.75000  0.00000  1.0000
  Si  Si3       1.0  0.16100  0.09590  0.25000  1.0000
  Si  Si4       1.0  0.83900  0.59600  0.25000  1.0000
  Si  Si5       1.0  0.61900  0.25000  0.50000  1.0000
  Si  Si6       1.0  0.38100  0.75000  0.50000  1.0000
  Si  Si7       1.0  0.16100  0.40400  0.75000  1.0000
  Si  Si8       1.0  0.83900  0.90400  0.75000  1.0000
