data_image0
_chemical_formula_structural       As4Ce4F4O16
_chemical_formula_sum              "As4 Ce4 F4 O16"
_cell_length_a       8.71684
_cell_length_b       7.37992
_cell_length_c       6.93411
_cell_angle_alpha    90
_cell_angle_beta     90
_cell_angle_gamma    90

_space_group_name_H-M_alt    "P 1"
_space_group_IT_number       1

loop_
  _space_group_symop_operation_xyz
  'x, y, z'

loop_
  _atom_site_type_symbol
  _atom_site_label
  _atom_site_symmetry_multiplicity
  _atom_site_fract_x
  _atom_site_fract_y
  _atom_site_fract_z
  _atom_site_occupancy
  As  As1       1.0  0.89100  0.25000  0.19800  1.0000
  As  As2       1.0  0.39100  0.25000  0.30200  1.0000
  As  As3       1.0  0.60900  0.75000  0.69800  1.0000
  As  As4       1.0  0.10900  0.75000  0.80200  1.0000
  Ce  Ce1       1.0  0.47400  0.75000  0.14800  1.0000
  Ce  Ce2       1.0  0.97400  0.75000  0.35200  1.0000
  Ce  Ce3       1.0  0.02550  0.25000  0.64800  1.0000
  Ce  Ce4       1.0  0.52600  0.25000  0.85200  1.0000
  F   F1        1.0  0.73200  0.75000  0.21000  1.0000
  F   F2        1.0  0.23200  0.75000  0.29000  1.0000
  F   F3        1.0  0.76800  0.25000  0.71000  1.0000
  F   F4        1.0  0.26800  0.25000  0.79000  1.0000
  O   O1        1.0  0.99700  0.75000  0.00094  1.0000
  O   O2        1.0  0.70100  0.25000  0.13200  1.0000
  O   O3        1.0  0.42400  0.07100  0.15200  1.0000
  O   O4        1.0  0.42400  0.42900  0.15200  1.0000
  O   O5        1.0  0.92400  0.07100  0.34800  1.0000
  O   O6        1.0  0.92400  0.42900  0.34800  1.0000
  O   O7        1.0  0.20100  0.25000  0.36800  1.0000
  O   O8        1.0  0.49700  0.75000  0.49900  1.0000
  O   O9        1.0  0.50300  0.25000  0.50100  1.0000
  O   O10       1.0  0.79900  0.75000  0.63200  1.0000
  O   O11       1.0  0.07590  0.57100  0.65200  1.0000
  O   O12       1.0  0.07590  0.92900  0.65200  1.0000
  O   O13       1.0  0.57600  0.57100  0.84800  1.0000
  O   O14       1.0  0.57600  0.92900  0.84800  1.0000
  O   O15       1.0  0.29900  0.75000  0.86800  1.0000
  O   O16       1.0  0.00348  0.25000  0.99900  1.0000
