data_image0
_chemical_formula_structural       Dy8O16Sr4
_chemical_formula_sum              "Dy8 O16 Sr4"
_cell_length_a       10.0242
_cell_length_b       11.886
_cell_length_c       3.41297
_cell_angle_alpha    90
_cell_angle_beta     90
_cell_angle_gamma    90

_space_group_name_H-M_alt    "P 1"
_space_group_IT_number       1

loop_
  _space_group_symop_operation_xyz
  'x, y, z'

loop_
  _atom_site_type_symbol
  _atom_site_label
  _atom_site_symmetry_multiplicity
  _atom_site_fract_x
  _atom_site_fract_y
  _atom_site_fract_z
  _atom_site_occupancy
  Dy  Dy1       1.0  0.42400  0.11100  0.25000  1.0000
  Dy  Dy2       1.0  0.92400  0.38900  0.25000  1.0000
  Dy  Dy3       1.0  0.42000  0.61100  0.25000  1.0000
  Dy  Dy4       1.0  0.92000  0.88900  0.25000  1.0000
  Dy  Dy5       1.0  0.07980  0.11100  0.75000  1.0000
  Dy  Dy6       1.0  0.58000  0.38900  0.75000  1.0000
  Dy  Dy7       1.0  0.07590  0.61100  0.75000  1.0000
  Dy  Dy8       1.0  0.57600  0.88900  0.75000  1.0000
  O   O1        1.0  0.62800  0.01930  0.25000  1.0000
  O   O2        1.0  0.92600  0.07840  0.25000  1.0000
  O   O3        1.0  0.21200  0.17600  0.25000  1.0000
  O   O4        1.0  0.71200  0.32400  0.25000  1.0000
  O   O5        1.0  0.42600  0.42200  0.25000  1.0000
  O   O6        1.0  0.12800  0.48100  0.25000  1.0000
  O   O7        1.0  0.01360  0.71700  0.25000  1.0000
  O   O8        1.0  0.51400  0.78300  0.25000  1.0000
  O   O9        1.0  0.48600  0.21700  0.75000  1.0000
  O   O10       1.0  0.98600  0.28300  0.75000  1.0000
  O   O11       1.0  0.87200  0.51900  0.75000  1.0000
  O   O12       1.0  0.57400  0.57800  0.75000  1.0000
  O   O13       1.0  0.28800  0.67600  0.75000  1.0000
  O   O14       1.0  0.78800  0.82400  0.75000  1.0000
  O   O15       1.0  0.07350  0.92200  0.75000  1.0000
  O   O16       1.0  0.37200  0.98100  0.75000  1.0000
  Sr  Sr1       1.0  0.75200  0.64900  0.25000  1.0000
  Sr  Sr2       1.0  0.25200  0.85100  0.25000  1.0000
  Sr  Sr3       1.0  0.74800  0.14900  0.75000  1.0000
  Sr  Sr4       1.0  0.24800  0.35100  0.75000  1.0000
