data_image0
_chemical_formula_structural       Cs8S20
_chemical_formula_sum              "Cs8 S20"
_cell_length_a       7.2462
_cell_length_b       18.6513
_cell_length_c       6.91714
_cell_angle_alpha    90
_cell_angle_beta     90
_cell_angle_gamma    90

_space_group_name_H-M_alt    "P 1"
_space_group_IT_number       1

loop_
  _space_group_symop_operation_xyz
  'x, y, z'

loop_
  _atom_site_type_symbol
  _atom_site_label
  _atom_site_symmetry_multiplicity
  _atom_site_fract_x
  _atom_site_fract_y
  _atom_site_fract_z
  _atom_site_occupancy
  Cs  Cs1       1.0  0.74400  0.66500  0.07500  1.0000
  Cs  Cs2       1.0  0.57800  0.01600  0.11400  1.0000
  Cs  Cs3       1.0  0.42200  0.51600  0.38600  1.0000
  Cs  Cs4       1.0  0.25600  0.16500  0.42500  1.0000
  Cs  Cs5       1.0  0.75600  0.33500  0.57500  1.0000
  Cs  Cs6       1.0  0.92200  0.98400  0.61400  1.0000
  Cs  Cs7       1.0  0.07800  0.48400  0.88600  1.0000
  Cs  Cs8       1.0  0.24400  0.83500  0.92500  1.0000
  S   S1        1.0  0.23800  0.65400  0.03050  1.0000
  S   S2        1.0  0.40000  0.31000  0.06490  1.0000
  S   S3        1.0  0.62500  0.38000  0.06780  1.0000
  S   S4        1.0  0.07840  0.02850  0.08760  1.0000
  S   S5        1.0  0.19000  0.35000  0.24400  1.0000
  S   S6        1.0  0.81000  0.85000  0.25600  1.0000
  S   S7        1.0  0.92200  0.52800  0.41200  1.0000
  S   S8        1.0  0.37500  0.88000  0.43200  1.0000
  S   S9        1.0  0.60000  0.81000  0.43500  1.0000
  S   S10       1.0  0.76200  0.15400  0.46900  1.0000
  S   S11       1.0  0.26200  0.34600  0.53100  1.0000
  S   S12       1.0  0.10000  0.69000  0.56500  1.0000
  S   S13       1.0  0.87500  0.62000  0.56800  1.0000
  S   S14       1.0  0.42200  0.97200  0.58800  1.0000
  S   S15       1.0  0.31000  0.65000  0.74400  1.0000
  S   S16       1.0  0.69000  0.15000  0.75600  1.0000
  S   S17       1.0  0.57800  0.47200  0.91200  1.0000
  S   S18       1.0  0.12500  0.12000  0.93200  1.0000
  S   S19       1.0  0.90000  0.19000  0.93500  1.0000
  S   S20       1.0  0.73800  0.84600  0.96900  1.0000
