data_image0
_chemical_formula_structural       Lu4Ni20Sn4
_chemical_formula_sum              "Lu4 Ni20 Sn4"
_cell_length_a       7.96934
_cell_length_b       4.81813
_cell_length_c       10.1954
_cell_angle_alpha    90
_cell_angle_beta     90
_cell_angle_gamma    90

_space_group_name_H-M_alt    "P 1"
_space_group_IT_number       1

loop_
  _space_group_symop_operation_xyz
  'x, y, z'

loop_
  _atom_site_type_symbol
  _atom_site_label
  _atom_site_symmetry_multiplicity
  _atom_site_fract_x
  _atom_site_fract_y
  _atom_site_fract_z
  _atom_site_occupancy
  Lu  Lu1       1.0  0.75400  0.75000  0.06070  1.0000
  Lu  Lu2       1.0  0.25400  0.75000  0.43900  1.0000
  Lu  Lu3       1.0  0.74600  0.25000  0.56100  1.0000
  Lu  Lu4       1.0  0.24600  0.25000  0.93900  1.0000
  Ni  Ni1       1.0  0.91400  0.25000  0.01760  1.0000
  Ni  Ni2       1.0  0.54800  0.25000  0.09810  1.0000
  Ni  Ni3       1.0  0.06590  0.50100  0.19000  1.0000
  Ni  Ni4       1.0  0.06590  0.99900  0.19000  1.0000
  Ni  Ni5       1.0  0.81100  0.25000  0.24300  1.0000
  Ni  Ni6       1.0  0.31100  0.25000  0.25700  1.0000
  Ni  Ni7       1.0  0.56600  0.50100  0.31000  1.0000
  Ni  Ni8       1.0  0.56600  0.99900  0.31000  1.0000
  Ni  Ni9       1.0  0.04810  0.25000  0.40200  1.0000
  Ni  Ni10      1.0  0.41400  0.25000  0.48200  1.0000
  Ni  Ni11      1.0  0.58600  0.75000  0.51800  1.0000
  Ni  Ni12      1.0  0.95200  0.75000  0.59800  1.0000
  Ni  Ni13      1.0  0.43400  0.00138  0.69000  1.0000
  Ni  Ni14      1.0  0.43400  0.49900  0.69000  1.0000
  Ni  Ni15      1.0  0.68900  0.75000  0.74300  1.0000
  Ni  Ni16      1.0  0.18900  0.75000  0.75700  1.0000
  Ni  Ni17      1.0  0.93400  0.00138  0.81000  1.0000
  Ni  Ni18      1.0  0.93400  0.49900  0.81000  1.0000
  Ni  Ni19      1.0  0.45200  0.75000  0.90200  1.0000
  Ni  Ni20      1.0  0.08650  0.75000  0.98200  1.0000
  Sn  Sn1       1.0  0.36000  0.75000  0.14000  1.0000
  Sn  Sn2       1.0  0.86000  0.75000  0.36000  1.0000
  Sn  Sn3       1.0  0.14000  0.25000  0.64000  1.0000
  Sn  Sn4       1.0  0.64000  0.25000  0.86000  1.0000
