data_image0
_chemical_formula_structural       Cs6I18Tm4
_chemical_formula_sum              "Cs6 I18 Tm4"
_cell_length_a       8.56451
_cell_length_b       8.56449
_cell_length_c       21.7311
_cell_angle_alpha    90
_cell_angle_beta     90
_cell_angle_gamma    120

_space_group_name_H-M_alt    "P 1"
_space_group_IT_number       1

loop_
  _space_group_symop_operation_xyz
  'x, y, z'

loop_
  _atom_site_type_symbol
  _atom_site_label
  _atom_site_symmetry_multiplicity
  _atom_site_fract_x
  _atom_site_fract_y
  _atom_site_fract_z
  _atom_site_occupancy
  Cs  Cs1       1.0  0.33300  0.66700  0.06610  1.0000
  Cs  Cs2       1.0  0.00000  0.00000  0.25000  1.0000
  Cs  Cs3       1.0  0.33300  0.66700  0.43400  1.0000
  Cs  Cs4       1.0  0.66700  0.33300  0.56600  1.0000
  Cs  Cs5       1.0  0.00000  0.00000  0.75000  1.0000
  Cs  Cs6       1.0  0.66700  0.33300  0.93400  1.0000
  I   I1        1.0  0.33200  0.16600  0.08710  1.0000
  I   I2        1.0  0.83400  0.16600  0.08710  1.0000
  I   I3        1.0  0.83400  0.66800  0.08710  1.0000
  I   I4        1.0  0.50700  0.01400  0.25000  1.0000
  I   I5        1.0  0.50700  0.49300  0.25000  1.0000
  I   I6        1.0  0.98600  0.49300  0.25000  1.0000
  I   I7        1.0  0.83400  0.66800  0.41300  1.0000
  I   I8        1.0  0.33200  0.16600  0.41300  1.0000
  I   I9        1.0  0.83400  0.16600  0.41300  1.0000
  I   I10       1.0  0.16600  0.83400  0.58700  1.0000
  I   I11       1.0  0.66800  0.83400  0.58700  1.0000
  I   I12       1.0  0.16600  0.33200  0.58700  1.0000
  I   I13       1.0  0.01400  0.50700  0.75000  1.0000
  I   I14       1.0  0.49300  0.50700  0.75000  1.0000
  I   I15       1.0  0.49300  0.98600  0.75000  1.0000
  I   I16       1.0  0.16600  0.33200  0.91300  1.0000
  I   I17       1.0  0.16600  0.83400  0.91300  1.0000
  I   I18       1.0  0.66800  0.83400  0.91300  1.0000
  Tm  Tm1       1.0  0.66700  0.33300  0.15700  1.0000
  Tm  Tm2       1.0  0.66700  0.33300  0.34300  1.0000
  Tm  Tm3       1.0  0.33300  0.66700  0.65700  1.0000
  Tm  Tm4       1.0  0.33300  0.66700  0.84300  1.0000
