data_image0
_chemical_formula_structural       Ho8O16Sr4
_chemical_formula_sum              "Ho8 O16 Sr4"
_cell_length_a       10.0049
_cell_length_b       11.8472
_cell_length_c       3.39064
_cell_angle_alpha    90
_cell_angle_beta     90
_cell_angle_gamma    90

_space_group_name_H-M_alt    "P 1"
_space_group_IT_number       1

loop_
  _space_group_symop_operation_xyz
  'x, y, z'

loop_
  _atom_site_type_symbol
  _atom_site_label
  _atom_site_symmetry_multiplicity
  _atom_site_fract_x
  _atom_site_fract_y
  _atom_site_fract_z
  _atom_site_occupancy
  Ho  Ho1       1.0  0.42300  0.11100  0.25000  1.0000
  Ho  Ho2       1.0  0.92300  0.38900  0.25000  1.0000
  Ho  Ho3       1.0  0.42200  0.61200  0.25000  1.0000
  Ho  Ho4       1.0  0.92200  0.88800  0.25000  1.0000
  Ho  Ho5       1.0  0.07810  0.11200  0.75000  1.0000
  Ho  Ho6       1.0  0.57800  0.38800  0.75000  1.0000
  Ho  Ho7       1.0  0.07690  0.61100  0.75000  1.0000
  Ho  Ho8       1.0  0.57700  0.88900  0.75000  1.0000
  O   O1        1.0  0.62600  0.01950  0.25000  1.0000
  O   O2        1.0  0.92600  0.07780  0.25000  1.0000
  O   O3        1.0  0.21200  0.17500  0.25000  1.0000
  O   O4        1.0  0.71200  0.32500  0.25000  1.0000
  O   O5        1.0  0.42600  0.42200  0.25000  1.0000
  O   O6        1.0  0.12600  0.48000  0.25000  1.0000
  O   O7        1.0  0.01430  0.71700  0.25000  1.0000
  O   O8        1.0  0.51400  0.78300  0.25000  1.0000
  O   O9        1.0  0.48600  0.21700  0.75000  1.0000
  O   O10       1.0  0.98600  0.28300  0.75000  1.0000
  O   O11       1.0  0.87400  0.52000  0.75000  1.0000
  O   O12       1.0  0.57400  0.57800  0.75000  1.0000
  O   O13       1.0  0.28800  0.67500  0.75000  1.0000
  O   O14       1.0  0.78800  0.82500  0.75000  1.0000
  O   O15       1.0  0.07430  0.92200  0.75000  1.0000
  O   O16       1.0  0.37400  0.98000  0.75000  1.0000
  Sr  Sr1       1.0  0.75200  0.65000  0.25000  1.0000
  Sr  Sr2       1.0  0.25200  0.85000  0.25000  1.0000
  Sr  Sr3       1.0  0.74800  0.15000  0.75000  1.0000
  Sr  Sr4       1.0  0.24800  0.35000  0.75000  1.0000
