data_image0
_chemical_formula_structural       As4K6S16Sm2
_chemical_formula_sum              "As4 K6 S16 Sm2"
_cell_length_a       9.01102
_cell_length_b       10.2099
_cell_length_c       10.9045
_cell_angle_alpha    107.445
_cell_angle_beta     102.852
_cell_angle_gamma    114.045

_space_group_name_H-M_alt    "P 1"
_space_group_IT_number       1

loop_
  _space_group_symop_operation_xyz
  'x, y, z'

loop_
  _atom_site_type_symbol
  _atom_site_label
  _atom_site_symmetry_multiplicity
  _atom_site_fract_x
  _atom_site_fract_y
  _atom_site_fract_z
  _atom_site_occupancy
  As  As1       1.0  0.74000  0.34200  0.24700  1.0000
  As  As2       1.0  0.00781  0.90500  0.24700  1.0000
  As  As3       1.0  0.99200  0.09480  0.75300  1.0000
  As  As4       1.0  0.26000  0.65800  0.75300  1.0000
  K   K1        1.0  0.00000  0.50000  0.00000  1.0000
  K   K2        1.0  0.50000  0.50000  0.00000  1.0000
  K   K3        1.0  0.25400  0.00413  0.00826  1.0000
  K   K4        1.0  0.49000  0.74000  0.48100  1.0000
  K   K5        1.0  0.51000  0.26000  0.51900  1.0000
  K   K6        1.0  0.74600  0.99600  0.99200  1.0000
  S   S1        1.0  0.63800  0.26600  0.02490  1.0000
  S   S2        1.0  0.88700  0.75900  0.02490  1.0000
  S   S3        1.0  0.65200  0.13100  0.28800  1.0000
  S   S4        1.0  0.13600  0.15800  0.28800  1.0000
  S   S5        1.0  0.03020  0.47200  0.34500  1.0000
  S   S6        1.0  0.81500  0.87300  0.34500  1.0000
  S   S7        1.0  0.65000  0.49600  0.35500  1.0000
  S   S8        1.0  0.20500  0.86000  0.35500  1.0000
  S   S9        1.0  0.79500  0.14000  0.64500  1.0000
  S   S10       1.0  0.35000  0.50400  0.64500  1.0000
  S   S11       1.0  0.18500  0.12700  0.65500  1.0000
  S   S12       1.0  0.97000  0.52800  0.65500  1.0000
  S   S13       1.0  0.86400  0.84200  0.71200  1.0000
  S   S14       1.0  0.34800  0.86900  0.71200  1.0000
  S   S15       1.0  0.11300  0.24100  0.97500  1.0000
  S   S16       1.0  0.36200  0.73400  0.97500  1.0000
  Sm  Sm1       1.0  0.99300  0.24300  0.48600  1.0000
  Sm  Sm2       1.0  0.00712  0.75700  0.51400  1.0000
