data_image0
_chemical_formula_structural       Ba7Cl2O15Ru4
_chemical_formula_sum              "Ba7 Cl2 O15 Ru4"
_cell_length_a       5.79722
_cell_length_b       5.79722
_cell_length_c       17.5176
_cell_angle_alpha    99.5245
_cell_angle_beta     80.4755
_cell_angle_gamma    120

_space_group_name_H-M_alt    "P 1"
_space_group_IT_number       1

loop_
  _space_group_symop_operation_xyz
  'x, y, z'

loop_
  _atom_site_type_symbol
  _atom_site_label
  _atom_site_symmetry_multiplicity
  _atom_site_fract_x
  _atom_site_fract_y
  _atom_site_fract_z
  _atom_site_occupancy
  Ba  Ba1       1.0  0.00000  0.00000  0.00000  1.0000
  Ba  Ba2       1.0  0.28600  0.71400  0.14200  1.0000
  Ba  Ba3       1.0  0.91500  0.08480  0.25400  1.0000
  Ba  Ba4       1.0  0.20500  0.79500  0.38500  1.0000
  Ba  Ba5       1.0  0.79500  0.20500  0.61500  1.0000
  Ba  Ba6       1.0  0.08480  0.91500  0.74600  1.0000
  Ba  Ba7       1.0  0.71400  0.28600  0.85800  1.0000
  Cl  Cl1       1.0  0.85500  0.14500  0.43400  1.0000
  Cl  Cl2       1.0  0.14500  0.85500  0.56600  1.0000
  O   O1        1.0  0.50000  0.00000  0.00000  1.0000
  O   O2        1.0  0.00000  0.50000  0.00000  1.0000
  O   O3        1.0  0.50000  0.50000  0.00000  1.0000
  O   O4        1.0  0.77700  0.22300  0.13700  1.0000
  O   O5        1.0  0.31000  0.22300  0.13700  1.0000
  O   O6        1.0  0.77700  0.69000  0.13700  1.0000
  O   O7        1.0  0.41300  0.10300  0.27600  1.0000
  O   O8        1.0  0.41300  0.58700  0.27600  1.0000
  O   O9        1.0  0.89700  0.58700  0.27600  1.0000
  O   O10       1.0  0.10300  0.41300  0.72400  1.0000
  O   O11       1.0  0.58700  0.41300  0.72400  1.0000
  O   O12       1.0  0.58700  0.89700  0.72400  1.0000
  O   O13       1.0  0.22300  0.31000  0.86300  1.0000
  O   O14       1.0  0.69000  0.77700  0.86300  1.0000
  O   O15       1.0  0.22300  0.77700  0.86300  1.0000
  Ru  Ru1       1.0  0.64500  0.35500  0.06380  1.0000
  Ru  Ru2       1.0  0.59400  0.40600  0.21800  1.0000
  Ru  Ru3       1.0  0.40600  0.59400  0.78200  1.0000
  Ru  Ru4       1.0  0.35500  0.64500  0.93600  1.0000
