data_image0
_chemical_formula_structural       C16O8Se4
_chemical_formula_sum              "C16 O8 Se4"
_cell_length_a       4.08379
_cell_length_b       8.7876
_cell_length_c       11.4514
_cell_angle_alpha    90
_cell_angle_beta     90
_cell_angle_gamma    90

_space_group_name_H-M_alt    "P 1"
_space_group_IT_number       1

loop_
  _space_group_symop_operation_xyz
  'x, y, z'

loop_
  _atom_site_type_symbol
  _atom_site_label
  _atom_site_symmetry_multiplicity
  _atom_site_fract_x
  _atom_site_fract_y
  _atom_site_fract_z
  _atom_site_occupancy
  C   C1        1.0  0.58900  0.43300  0.12000  1.0000
  C   C2        1.0  0.41100  0.56700  0.12000  1.0000
  C   C3        1.0  0.09970  0.07430  0.25000  1.0000
  C   C4        1.0  0.90000  0.92600  0.25000  1.0000
  C   C5        1.0  0.60000  0.42600  0.25000  1.0000
  C   C6        1.0  0.40000  0.57400  0.25000  1.0000
  C   C7        1.0  0.08890  0.06730  0.38000  1.0000
  C   C8        1.0  0.91100  0.93300  0.38000  1.0000
  C   C9        1.0  0.08890  0.06730  0.62000  1.0000
  C   C10       1.0  0.91100  0.93300  0.62000  1.0000
  C   C11       1.0  0.60000  0.42600  0.75000  1.0000
  C   C12       1.0  0.40000  0.57400  0.75000  1.0000
  C   C13       1.0  0.09970  0.07430  0.75000  1.0000
  C   C14       1.0  0.90000  0.92600  0.75000  1.0000
  C   C15       1.0  0.58900  0.43300  0.88000  1.0000
  C   C16       1.0  0.41100  0.56700  0.88000  1.0000
  O   O1        1.0  0.21600  0.15700  0.17600  1.0000
  O   O2        1.0  0.78400  0.84300  0.17600  1.0000
  O   O3        1.0  0.71600  0.34300  0.32400  1.0000
  O   O4        1.0  0.28400  0.65700  0.32400  1.0000
  O   O5        1.0  0.71600  0.34300  0.67600  1.0000
  O   O6        1.0  0.28400  0.65700  0.67600  1.0000
  O   O7        1.0  0.21600  0.15700  0.82400  1.0000
  O   O8        1.0  0.78400  0.84300  0.82400  1.0000
  Se  Se1       1.0  0.75300  0.30800  0.00000  1.0000
  Se  Se2       1.0  0.24700  0.69200  0.00000  1.0000
  Se  Se3       1.0  0.25300  0.19200  0.50000  1.0000
  Se  Se4       1.0  0.74700  0.80800  0.50000  1.0000
