data_image0
_chemical_formula_structural       As4Fe4Li4O16
_chemical_formula_sum              "As4 Fe4 Li4 O16"
_cell_length_a       10.5222
_cell_length_b       6.04593
_cell_length_c       4.88264
_cell_angle_alpha    90
_cell_angle_beta     90
_cell_angle_gamma    90

_space_group_name_H-M_alt    "P 1"
_space_group_IT_number       1

loop_
  _space_group_symop_operation_xyz
  'x, y, z'

loop_
  _atom_site_type_symbol
  _atom_site_label
  _atom_site_symmetry_multiplicity
  _atom_site_fract_x
  _atom_site_fract_y
  _atom_site_fract_z
  _atom_site_occupancy
  As  As1       1.0  0.59100  0.25000  0.06640  1.0000
  As  As2       1.0  0.09130  0.25000  0.43400  1.0000
  As  As3       1.0  0.90900  0.75000  0.56600  1.0000
  As  As4       1.0  0.40900  0.75000  0.93400  1.0000
  Fe  Fe1       1.0  0.72500  0.75000  0.01300  1.0000
  Fe  Fe2       1.0  0.22500  0.75000  0.48700  1.0000
  Fe  Fe3       1.0  0.77500  0.25000  0.51300  1.0000
  Fe  Fe4       1.0  0.27500  0.25000  0.98700  1.0000
  Li  Li1       1.0  0.00000  0.00000  0.00000  1.0000
  Li  Li2       1.0  0.00000  0.50000  0.00000  1.0000
  Li  Li3       1.0  0.50000  0.00000  0.50000  1.0000
  Li  Li4       1.0  0.50000  0.50000  0.50000  1.0000
  O   O1        1.0  0.44400  0.25000  0.21800  1.0000
  O   O2        1.0  0.90900  0.75000  0.21800  1.0000
  O   O3        1.0  0.66900  0.02960  0.22100  1.0000
  O   O4        1.0  0.66900  0.47000  0.22100  1.0000
  O   O5        1.0  0.16900  0.02960  0.27900  1.0000
  O   O6        1.0  0.16900  0.47000  0.27900  1.0000
  O   O7        1.0  0.40900  0.75000  0.28200  1.0000
  O   O8        1.0  0.94400  0.25000  0.28200  1.0000
  O   O9        1.0  0.05630  0.75000  0.71800  1.0000
  O   O10       1.0  0.59100  0.25000  0.71800  1.0000
  O   O11       1.0  0.83100  0.53000  0.72100  1.0000
  O   O12       1.0  0.83100  0.97000  0.72100  1.0000
  O   O13       1.0  0.33100  0.53000  0.77900  1.0000
  O   O14       1.0  0.33100  0.97000  0.77900  1.0000
  O   O15       1.0  0.09140  0.25000  0.78200  1.0000
  O   O16       1.0  0.55600  0.75000  0.78200  1.0000
