data_image0
_chemical_formula_structural       Cu8O16P4
_chemical_formula_sum              "Cu8 O16 P4"
_cell_length_a       6.13903
_cell_length_b       9.26223
_cell_length_c       5.99013
_cell_angle_alpha    96.4829
_cell_angle_beta     99.88
_cell_angle_gamma    73.3794

_space_group_name_H-M_alt    "P 1"
_space_group_IT_number       1

loop_
  _space_group_symop_operation_xyz
  'x, y, z'

loop_
  _atom_site_type_symbol
  _atom_site_label
  _atom_site_symmetry_multiplicity
  _atom_site_fract_x
  _atom_site_fract_y
  _atom_site_fract_z
  _atom_site_occupancy
  Cu  Cu1       1.0  0.88900  0.27400  0.03190  1.0000
  Cu  Cu2       1.0  0.66800  0.03760  0.19800  1.0000
  Cu  Cu3       1.0  0.81900  0.65700  0.43200  1.0000
  Cu  Cu4       1.0  0.37300  0.63700  0.45200  1.0000
  Cu  Cu5       1.0  0.62700  0.36300  0.54800  1.0000
  Cu  Cu6       1.0  0.18100  0.34300  0.56800  1.0000
  Cu  Cu7       1.0  0.33200  0.96200  0.80200  1.0000
  Cu  Cu8       1.0  0.11100  0.72600  0.96800  1.0000
  O   O1        1.0  0.74400  0.67400  0.12200  1.0000
  O   O2        1.0  0.35200  0.02440  0.13000  1.0000
  O   O3        1.0  0.28400  0.55600  0.15100  1.0000
  O   O4        1.0  0.94300  0.09600  0.19500  1.0000
  O   O5        1.0  0.54300  0.30100  0.24200  1.0000
  O   O6        1.0  0.11200  0.35800  0.25200  1.0000
  O   O7        1.0  0.19000  0.83200  0.27100  1.0000
  O   O8        1.0  0.74100  0.94000  0.47100  1.0000
  O   O9        1.0  0.25900  0.05970  0.52900  1.0000
  O   O10       1.0  0.81000  0.16800  0.72900  1.0000
  O   O11       1.0  0.88800  0.64200  0.74800  1.0000
  O   O12       1.0  0.45700  0.69900  0.75800  1.0000
  O   O13       1.0  0.05750  0.90400  0.80500  1.0000
  O   O14       1.0  0.71600  0.44400  0.84900  1.0000
  O   O15       1.0  0.64800  0.97600  0.87000  1.0000
  O   O16       1.0  0.25600  0.32600  0.87800  1.0000
  P   P1        1.0  0.30000  0.38400  0.12200  1.0000
  P   P2        1.0  0.19100  0.99900  0.28800  1.0000
  P   P3        1.0  0.80900  0.00130  0.71200  1.0000
  P   P4        1.0  0.70000  0.61600  0.87800  1.0000
