data_image0
_chemical_formula_structural       Ag6Fe2O16V4
_chemical_formula_sum              "Ag6 Fe2 O16 V4"
_cell_length_a       5.1422
_cell_length_b       5.52943
_cell_length_c       14.2656
_cell_angle_alpha    93.4542
_cell_angle_beta     90
_cell_angle_gamma    117.709

_space_group_name_H-M_alt    "P 1"
_space_group_IT_number       1

loop_
  _space_group_symop_operation_xyz
  'x, y, z'

loop_
  _atom_site_type_symbol
  _atom_site_label
  _atom_site_symmetry_multiplicity
  _atom_site_fract_x
  _atom_site_fract_y
  _atom_site_fract_z
  _atom_site_occupancy
  Ag  Ag1       1.0  0.72100  0.32000  0.14100  1.0000
  Ag  Ag2       1.0  0.04570  0.00000  0.25000  1.0000
  Ag  Ag3       1.0  0.40100  0.68000  0.35900  1.0000
  Ag  Ag4       1.0  0.59900  0.32000  0.64100  1.0000
  Ag  Ag5       1.0  0.95400  0.00000  0.75000  1.0000
  Ag  Ag6       1.0  0.27900  0.68000  0.85900  1.0000
  Fe  Fe1       1.0  0.00000  0.00000  0.00000  1.0000
  Fe  Fe2       1.0  0.00000  0.00000  0.50000  1.0000
  O   O1        1.0  0.21100  0.78300  0.02620  1.0000
  O   O2        1.0  0.29800  0.32500  0.07500  1.0000
  O   O3        1.0  0.75500  0.88400  0.11600  1.0000
  O   O4        1.0  0.20700  0.66700  0.21200  1.0000
  O   O5        1.0  0.54100  0.33300  0.28800  1.0000
  O   O6        1.0  0.87100  0.11600  0.38400  1.0000
  O   O7        1.0  0.97300  0.67500  0.42500  1.0000
  O   O8        1.0  0.42900  0.21700  0.47400  1.0000
  O   O9        1.0  0.57100  0.78300  0.52600  1.0000
  O   O10       1.0  0.02670  0.32500  0.57500  1.0000
  O   O11       1.0  0.12900  0.88400  0.61600  1.0000
  O   O12       1.0  0.45900  0.66700  0.71200  1.0000
  O   O13       1.0  0.79300  0.33300  0.78800  1.0000
  O   O14       1.0  0.24500  0.11600  0.88400  1.0000
  O   O15       1.0  0.70200  0.67500  0.92500  1.0000
  O   O16       1.0  0.78900  0.21700  0.97400  1.0000
  V   V1        1.0  0.36800  0.66300  0.10600  1.0000
  V   V2        1.0  0.70500  0.33700  0.39400  1.0000
  V   V3        1.0  0.29500  0.66300  0.60600  1.0000
  V   V4        1.0  0.63200  0.33700  0.89400  1.0000
