data_image0
_chemical_formula_structural       Gd2K6O16P4
_chemical_formula_sum              "Gd2 K6 O16 P4"
_cell_length_a       7.3539
_cell_length_b       5.60358
_cell_length_c       9.39001
_cell_angle_alpha    90
_cell_angle_beta     90.6969
_cell_angle_gamma    90

_space_group_name_H-M_alt    "P 1"
_space_group_IT_number       1

loop_
  _space_group_symop_operation_xyz
  'x, y, z'

loop_
  _atom_site_type_symbol
  _atom_site_label
  _atom_site_symmetry_multiplicity
  _atom_site_fract_x
  _atom_site_fract_y
  _atom_site_fract_z
  _atom_site_occupancy
  Gd  Gd1       1.0  0.00653  0.25000  0.29100  1.0000
  Gd  Gd2       1.0  0.99300  0.75000  0.70900  1.0000
  K   K1        1.0  0.20300  0.75000  0.08170  1.0000
  K   K2        1.0  0.50500  0.25000  0.19200  1.0000
  K   K3        1.0  0.63500  0.75000  0.40900  1.0000
  K   K4        1.0  0.36500  0.25000  0.59100  1.0000
  K   K5        1.0  0.49500  0.75000  0.80800  1.0000
  K   K6        1.0  0.79700  0.25000  0.91800  1.0000
  O   O1        1.0  0.17300  0.25000  0.07040  1.0000
  O   O2        1.0  0.56100  0.75000  0.10200  1.0000
  O   O3        1.0  0.84900  0.52400  0.16300  1.0000
  O   O4        1.0  0.84900  0.97600  0.16300  1.0000
  O   O5        1.0  0.24600  0.52400  0.34100  1.0000
  O   O6        1.0  0.24600  0.97600  0.34100  1.0000
  O   O7        1.0  0.71600  0.25000  0.42400  1.0000
  O   O8        1.0  0.98300  0.75000  0.45300  1.0000
  O   O9        1.0  0.01670  0.25000  0.54700  1.0000
  O   O10       1.0  0.28400  0.75000  0.57600  1.0000
  O   O11       1.0  0.75400  0.02390  0.65900  1.0000
  O   O12       1.0  0.75400  0.47600  0.65900  1.0000
  O   O13       1.0  0.15100  0.02450  0.83700  1.0000
  O   O14       1.0  0.15100  0.47600  0.83700  1.0000
  O   O15       1.0  0.43900  0.25000  0.89800  1.0000
  O   O16       1.0  0.82700  0.75000  0.93000  1.0000
  P   P1        1.0  0.76900  0.75000  0.08810  1.0000
  P   P2        1.0  0.19000  0.75000  0.42600  1.0000
  P   P3        1.0  0.81000  0.25000  0.57400  1.0000
  P   P4        1.0  0.23100  0.25000  0.91200  1.0000
