data_image0
_chemical_formula_structural       Al4Cs4O16Si4
_chemical_formula_sum              "Al4 Cs4 O16 Si4"
_cell_length_a       9.49987
_cell_length_b       5.44051
_cell_length_c       8.72067
_cell_angle_alpha    90
_cell_angle_beta     90
_cell_angle_gamma    90

_space_group_name_H-M_alt    "P 1"
_space_group_IT_number       1

loop_
  _space_group_symop_operation_xyz
  'x, y, z'

loop_
  _atom_site_type_symbol
  _atom_site_label
  _atom_site_symmetry_multiplicity
  _atom_site_fract_x
  _atom_site_fract_y
  _atom_site_fract_z
  _atom_site_occupancy
  Al  Al1       1.0  0.91800  0.49900  0.18700  1.0000
  Al  Al2       1.0  0.41800  0.99900  0.31300  1.0000
  Al  Al3       1.0  0.58200  0.49900  0.68700  1.0000
  Al  Al4       1.0  0.08180  0.99900  0.81300  1.0000
  Cs  Cs1       1.0  0.29800  0.49900  0.00031  1.0000
  Cs  Cs2       1.0  0.79800  0.99900  0.50000  1.0000
  Cs  Cs3       1.0  0.20200  0.49900  0.50000  1.0000
  Cs  Cs4       1.0  0.70200  0.99900  0.00000  1.0000
  O   O1        1.0  0.07720  0.00000  0.01110  1.0000
  O   O2        1.0  0.50200  0.74100  0.23400  1.0000
  O   O3        1.0  0.50300  0.25600  0.23500  1.0000
  O   O4        1.0  0.74400  0.50000  0.24500  1.0000
  O   O5        1.0  0.24400  0.00020  0.25500  1.0000
  O   O6        1.0  0.00318  0.75600  0.26500  1.0000
  O   O7        1.0  0.00241  0.24100  0.26600  1.0000
  O   O8        1.0  0.57700  0.50000  0.48900  1.0000
  O   O9        1.0  0.42300  0.00000  0.51100  1.0000
  O   O10       1.0  0.99800  0.74100  0.73400  1.0000
  O   O11       1.0  0.99700  0.25600  0.73500  1.0000
  O   O12       1.0  0.75600  0.50000  0.74500  1.0000
  O   O13       1.0  0.25600  0.00020  0.75500  1.0000
  O   O14       1.0  0.49700  0.75600  0.76500  1.0000
  O   O15       1.0  0.49800  0.24100  0.76600  1.0000
  O   O16       1.0  0.92300  0.50000  0.98900  1.0000
  Si  Si1       1.0  0.08230  0.99900  0.19600  1.0000
  Si  Si2       1.0  0.58200  0.49900  0.30400  1.0000
  Si  Si3       1.0  0.41800  0.99900  0.69600  1.0000
  Si  Si4       1.0  0.91800  0.49900  0.80400  1.0000
