data_image0
_chemical_formula_structural       I6O18Tl4
_chemical_formula_sum              "I6 O18 Tl4"
_cell_length_a       7.02834
_cell_length_b       7.05612
_cell_length_c       10.478
_cell_angle_alpha    87.1824
_cell_angle_beta     72.9698
_cell_angle_gamma    71.7475

_space_group_name_H-M_alt    "P 1"
_space_group_IT_number       1

loop_
  _space_group_symop_operation_xyz
  'x, y, z'

loop_
  _atom_site_type_symbol
  _atom_site_label
  _atom_site_symmetry_multiplicity
  _atom_site_fract_x
  _atom_site_fract_y
  _atom_site_fract_z
  _atom_site_occupancy
  I   I1        1.0  0.95800  0.97500  0.19100  1.0000
  I   I2        1.0  0.44500  0.47000  0.19300  1.0000
  I   I3        1.0  0.40500  0.95200  0.37300  1.0000
  I   I4        1.0  0.59500  0.04820  0.62700  1.0000
  I   I5        1.0  0.55500  0.53000  0.80700  1.0000
  I   I6        1.0  0.04170  0.02480  0.80900  1.0000
  O   O1        1.0  0.15100  0.05030  0.04710  1.0000
  O   O2        1.0  0.43000  0.33400  0.04950  1.0000
  O   O3        1.0  0.08360  0.70400  0.18500  1.0000
  O   O4        1.0  0.72000  0.34800  0.19000  1.0000
  O   O5        1.0  0.54300  0.87300  0.19100  1.0000
  O   O6        1.0  0.04500  0.04830  0.32400  1.0000
  O   O7        1.0  0.32000  0.33300  0.32700  1.0000
  O   O8        1.0  0.66500  0.94000  0.39400  1.0000
  O   O9        1.0  0.40900  0.69600  0.41600  1.0000
  O   O10       1.0  0.59100  0.30400  0.58400  1.0000
  O   O11       1.0  0.33500  0.06030  0.60600  1.0000
  O   O12       1.0  0.68000  0.66700  0.67300  1.0000
  O   O13       1.0  0.95500  0.95200  0.67600  1.0000
  O   O14       1.0  0.45700  0.12700  0.80900  1.0000
  O   O15       1.0  0.28000  0.65200  0.81000  1.0000
  O   O16       1.0  0.91600  0.29600  0.81500  1.0000
  O   O17       1.0  0.57000  0.66600  0.95000  1.0000
  O   O18       1.0  0.84900  0.95000  0.95300  1.0000
  Tl  Tl1       1.0  0.50000  0.00000  0.00000  1.0000
  Tl  Tl2       1.0  0.00000  0.50000  0.00000  1.0000
  Tl  Tl3       1.0  0.84400  0.46600  0.40000  1.0000
  Tl  Tl4       1.0  0.15600  0.53400  0.60000  1.0000
