data_image0
_chemical_formula_structural       Ba4Ga4La4O16
_chemical_formula_sum              "Ba4 Ga4 La4 O16"
_cell_length_a       9.98427
_cell_length_b       7.24601
_cell_length_c       5.90602
_cell_angle_alpha    90
_cell_angle_beta     90
_cell_angle_gamma    90

_space_group_name_H-M_alt    "P 1"
_space_group_IT_number       1

loop_
  _space_group_symop_operation_xyz
  'x, y, z'

loop_
  _atom_site_type_symbol
  _atom_site_label
  _atom_site_symmetry_multiplicity
  _atom_site_fract_x
  _atom_site_fract_y
  _atom_site_fract_z
  _atom_site_occupancy
  Ba  Ba1       1.0  0.66900  0.33600  0.24200  1.0000
  Ba  Ba2       1.0  0.33100  0.83600  0.25800  1.0000
  Ba  Ba3       1.0  0.83100  0.66400  0.74200  1.0000
  Ba  Ba4       1.0  0.16900  0.16400  0.75800  1.0000
  Ga  Ga1       1.0  0.66700  0.78400  0.23700  1.0000
  Ga  Ga2       1.0  0.33300  0.28400  0.26300  1.0000
  Ga  Ga3       1.0  0.83300  0.21600  0.73700  1.0000
  Ga  Ga4       1.0  0.16700  0.71600  0.76300  1.0000
  La  La1       1.0  0.05020  0.49800  0.23500  1.0000
  La  La2       1.0  0.95000  0.99800  0.26500  1.0000
  La  La3       1.0  0.45000  0.50200  0.73500  1.0000
  La  La4       1.0  0.55000  0.00217  0.76500  1.0000
  O   O1        1.0  0.43000  0.23500  0.00180  1.0000
  O   O2        1.0  0.55600  0.68800  0.00766  1.0000
  O   O3        1.0  0.71300  0.00580  0.10200  1.0000
  O   O4        1.0  0.82800  0.65300  0.24600  1.0000
  O   O5        1.0  0.17200  0.15300  0.25400  1.0000
  O   O6        1.0  0.28700  0.50600  0.39800  1.0000
  O   O7        1.0  0.44400  0.18800  0.49200  1.0000
  O   O8        1.0  0.57000  0.73500  0.49800  1.0000
  O   O9        1.0  0.07010  0.76500  0.50200  1.0000
  O   O10       1.0  0.94400  0.31200  0.50800  1.0000
  O   O11       1.0  0.78700  0.99400  0.60200  1.0000
  O   O12       1.0  0.67200  0.34700  0.74600  1.0000
  O   O13       1.0  0.32800  0.84700  0.75400  1.0000
  O   O14       1.0  0.21300  0.49400  0.89800  1.0000
  O   O15       1.0  0.05640  0.81200  0.99200  1.0000
  O   O16       1.0  0.93000  0.26500  0.99800  1.0000
