data_image0
_chemical_formula_structural       As4Gd2K6S16
_chemical_formula_sum              "As4 Gd2 K6 S16"
_cell_length_a       8.97876
_cell_length_b       10.1804
_cell_length_c       10.8603
_cell_angle_alpha    107.481
_cell_angle_beta     102.858
_cell_angle_gamma    114.027

_space_group_name_H-M_alt    "P 1"
_space_group_IT_number       1

loop_
  _space_group_symop_operation_xyz
  'x, y, z'

loop_
  _atom_site_type_symbol
  _atom_site_label
  _atom_site_symmetry_multiplicity
  _atom_site_fract_x
  _atom_site_fract_y
  _atom_site_fract_z
  _atom_site_occupancy
  As  As1       1.0  0.74100  0.34300  0.24800  1.0000
  As  As2       1.0  0.00673  0.90500  0.24800  1.0000
  As  As3       1.0  0.99300  0.09490  0.75200  1.0000
  As  As4       1.0  0.25900  0.65700  0.75200  1.0000
  Gd  Gd1       1.0  0.99300  0.24300  0.48600  1.0000
  Gd  Gd2       1.0  0.00699  0.75700  0.51400  1.0000
  K   K1        1.0  0.00000  0.50000  0.00000  1.0000
  K   K2        1.0  0.50000  0.50000  0.00000  1.0000
  K   K3        1.0  0.25500  0.00481  0.00962  1.0000
  K   K4        1.0  0.48900  0.73900  0.47700  1.0000
  K   K5        1.0  0.51100  0.26100  0.52300  1.0000
  K   K6        1.0  0.74500  0.99500  0.99000  1.0000
  S   S1        1.0  0.63800  0.26500  0.02390  1.0000
  S   S2        1.0  0.88600  0.75900  0.02390  1.0000
  S   S3        1.0  0.65500  0.13100  0.29000  1.0000
  S   S4        1.0  0.13500  0.15900  0.29000  1.0000
  S   S5        1.0  0.03270  0.47300  0.34700  1.0000
  S   S6        1.0  0.81400  0.87400  0.34700  1.0000
  S   S7        1.0  0.65300  0.49800  0.35600  1.0000
  S   S8        1.0  0.20300  0.85800  0.35600  1.0000
  S   S9        1.0  0.79700  0.14200  0.64400  1.0000
  S   S10       1.0  0.34700  0.50200  0.64400  1.0000
  S   S11       1.0  0.18600  0.12600  0.65300  1.0000
  S   S12       1.0  0.96700  0.52700  0.65300  1.0000
  S   S13       1.0  0.86500  0.84100  0.71000  1.0000
  S   S14       1.0  0.34500  0.86900  0.71000  1.0000
  S   S15       1.0  0.11400  0.24100  0.97600  1.0000
  S   S16       1.0  0.36200  0.73500  0.97600  1.0000
