data_image0
_chemical_formula_structural       K4P4Pb4S16
_chemical_formula_sum              "K4 P4 Pb4 S16"
_cell_length_a       16.978
_cell_length_b       6.64506
_cell_length_c       6.5761
_cell_angle_alpha    90
_cell_angle_beta     90
_cell_angle_gamma    90

_space_group_name_H-M_alt    "P 1"
_space_group_IT_number       1

loop_
  _space_group_symop_operation_xyz
  'x, y, z'

loop_
  _atom_site_type_symbol
  _atom_site_label
  _atom_site_symmetry_multiplicity
  _atom_site_fract_x
  _atom_site_fract_y
  _atom_site_fract_z
  _atom_site_occupancy
  K   K1        1.0  0.20900  0.75000  0.00786  1.0000
  K   K2        1.0  0.70900  0.75000  0.49200  1.0000
  K   K3        1.0  0.29100  0.25000  0.50800  1.0000
  K   K4        1.0  0.79100  0.25000  0.99200  1.0000
  P   P1        1.0  0.09790  0.25000  0.21700  1.0000
  P   P2        1.0  0.59800  0.25000  0.28300  1.0000
  P   P3        1.0  0.40200  0.75000  0.71700  1.0000
  P   P4        1.0  0.90200  0.75000  0.78300  1.0000
  Pb  Pb1       1.0  0.47900  0.75000  0.21600  1.0000
  Pb  Pb2       1.0  0.97900  0.75000  0.28400  1.0000
  Pb  Pb3       1.0  0.02070  0.25000  0.71600  1.0000
  Pb  Pb4       1.0  0.52100  0.25000  0.78400  1.0000
  S   S1        1.0  0.83400  0.75000  0.03970  1.0000
  S   S2        1.0  0.62300  0.00285  0.10800  1.0000
  S   S3        1.0  0.62300  0.49700  0.10800  1.0000
  S   S4        1.0  0.97900  0.25000  0.14900  1.0000
  S   S5        1.0  0.47900  0.25000  0.35100  1.0000
  S   S6        1.0  0.12300  0.00285  0.39200  1.0000
  S   S7        1.0  0.12300  0.49700  0.39200  1.0000
  S   S8        1.0  0.33400  0.75000  0.46000  1.0000
  S   S9        1.0  0.66600  0.25000  0.54000  1.0000
  S   S10       1.0  0.87700  0.50300  0.60800  1.0000
  S   S11       1.0  0.87700  0.99700  0.60800  1.0000
  S   S12       1.0  0.52100  0.75000  0.64900  1.0000
  S   S13       1.0  0.02100  0.75000  0.85100  1.0000
  S   S14       1.0  0.37700  0.50300  0.89200  1.0000
  S   S15       1.0  0.37700  0.99700  0.89200  1.0000
  S   S16       1.0  0.16600  0.25000  0.96000  1.0000
