data_image0
_chemical_formula_structural       As4Co4Li4O16
_chemical_formula_sum              "As4 Co4 Li4 O16"
_cell_length_a       10.4054
_cell_length_b       5.9481
_cell_length_c       4.89418
_cell_angle_alpha    90
_cell_angle_beta     90
_cell_angle_gamma    90

_space_group_name_H-M_alt    "P 1"
_space_group_IT_number       1

loop_
  _space_group_symop_operation_xyz
  'x, y, z'

loop_
  _atom_site_type_symbol
  _atom_site_label
  _atom_site_symmetry_multiplicity
  _atom_site_fract_x
  _atom_site_fract_y
  _atom_site_fract_z
  _atom_site_occupancy
  As  As1       1.0  0.59400  0.25000  0.06570  1.0000
  As  As2       1.0  0.09370  0.25000  0.43400  1.0000
  As  As3       1.0  0.90600  0.75000  0.56600  1.0000
  As  As4       1.0  0.40600  0.75000  0.93400  1.0000
  Co  Co1       1.0  0.72400  0.75000  0.00968  1.0000
  Co  Co2       1.0  0.22400  0.75000  0.49000  1.0000
  Co  Co3       1.0  0.77600  0.25000  0.51000  1.0000
  Co  Co4       1.0  0.27600  0.25000  0.99000  1.0000
  Li  Li1       1.0  0.00000  0.00000  0.00000  1.0000
  Li  Li2       1.0  0.00000  0.50000  0.00000  1.0000
  Li  Li3       1.0  0.50000  0.00000  0.50000  1.0000
  Li  Li4       1.0  0.50000  0.50000  0.50000  1.0000
  O   O1        1.0  0.44300  0.25000  0.21300  1.0000
  O   O2        1.0  0.90600  0.75000  0.21900  1.0000
  O   O3        1.0  0.67000  0.02720  0.22800  1.0000
  O   O4        1.0  0.67000  0.47300  0.22800  1.0000
  O   O5        1.0  0.17000  0.02720  0.27200  1.0000
  O   O6        1.0  0.17000  0.47300  0.27200  1.0000
  O   O7        1.0  0.40600  0.75000  0.28100  1.0000
  O   O8        1.0  0.94300  0.25000  0.28700  1.0000
  O   O9        1.0  0.05650  0.75000  0.71300  1.0000
  O   O10       1.0  0.59400  0.25000  0.71900  1.0000
  O   O11       1.0  0.83000  0.52700  0.72800  1.0000
  O   O12       1.0  0.83000  0.97300  0.72800  1.0000
  O   O13       1.0  0.33000  0.52700  0.77200  1.0000
  O   O14       1.0  0.33000  0.97300  0.77200  1.0000
  O   O15       1.0  0.09430  0.25000  0.78100  1.0000
  O   O16       1.0  0.55700  0.75000  0.78700  1.0000
