data_image0
_chemical_formula_structural       Ca8Cu6P10Zn4
_chemical_formula_sum              "Ca8 Cu6 P10 Zn4"
_cell_length_a       4.04251
_cell_length_b       4.04256
_cell_length_c       37.0353
_cell_angle_alpha    90
_cell_angle_beta     90
_cell_angle_gamma    119.999

_space_group_name_H-M_alt    "P 1"
_space_group_IT_number       1

loop_
  _space_group_symop_operation_xyz
  'x, y, z'

loop_
  _atom_site_type_symbol
  _atom_site_label
  _atom_site_symmetry_multiplicity
  _atom_site_fract_x
  _atom_site_fract_y
  _atom_site_fract_z
  _atom_site_occupancy
  Ca  Ca1       1.0  0.00000  0.00013  0.09160  1.0000
  Ca  Ca2       1.0  0.00011  0.00015  0.19700  1.0000
  Ca  Ca3       1.0  0.00011  0.00015  0.30300  1.0000
  Ca  Ca4       1.0  0.00000  0.00013  0.40800  1.0000
  Ca  Ca5       1.0  0.00000  0.00000  0.59200  1.0000
  Ca  Ca6       1.0  0.00000  0.00000  0.69700  1.0000
  Ca  Ca7       1.0  0.00000  0.00000  0.80300  1.0000
  Ca  Ca8       1.0  0.00000  0.00000  0.90800  1.0000
  Cu  Cu1       1.0  0.33300  0.66700  0.14400  1.0000
  Cu  Cu2       1.0  0.66700  0.33300  0.25000  1.0000
  Cu  Cu3       1.0  0.33300  0.66700  0.35600  1.0000
  Cu  Cu4       1.0  0.66700  0.33300  0.64400  1.0000
  Cu  Cu5       1.0  0.33300  0.66700  0.75000  1.0000
  Cu  Cu6       1.0  0.66700  0.33300  0.85600  1.0000
  P   P1        1.0  0.33300  0.66700  0.04390  1.0000
  P   P2        1.0  0.66700  0.33300  0.14400  1.0000
  P   P3        1.0  0.33300  0.66700  0.25000  1.0000
  P   P4        1.0  0.66700  0.33300  0.35600  1.0000
  P   P5        1.0  0.33300  0.66700  0.45600  1.0000
  P   P6        1.0  0.66700  0.33300  0.54400  1.0000
  P   P7        1.0  0.33300  0.66700  0.64400  1.0000
  P   P8        1.0  0.66700  0.33300  0.75000  1.0000
  P   P9        1.0  0.33300  0.66700  0.85600  1.0000
  P   P10       1.0  0.66700  0.33300  0.95600  1.0000
  Zn  Zn1       1.0  0.66700  0.33300  0.02470  1.0000
  Zn  Zn2       1.0  0.66700  0.33300  0.47500  1.0000
  Zn  Zn3       1.0  0.33300  0.66700  0.52500  1.0000
  Zn  Zn4       1.0  0.33300  0.66700  0.97500  1.0000
