data_image0
_chemical_formula_structural       B2O18Pr6W2
_chemical_formula_sum              "B2 O18 Pr6 W2"
_cell_length_a       8.73294
_cell_length_b       8.73294
_cell_length_c       5.51435
_cell_angle_alpha    90
_cell_angle_beta     90
_cell_angle_gamma    120

_space_group_name_H-M_alt    "P 1"
_space_group_IT_number       1

loop_
  _space_group_symop_operation_xyz
  'x, y, z'

loop_
  _atom_site_type_symbol
  _atom_site_label
  _atom_site_symmetry_multiplicity
  _atom_site_fract_x
  _atom_site_fract_y
  _atom_site_fract_z
  _atom_site_occupancy
  B   B1        1.0  0.00000  0.00000  0.35800  1.0000
  B   B2        1.0  0.00000  0.00000  0.85800  1.0000
  O   O1        1.0  0.19200  0.47500  0.03670  1.0000
  O   O2        1.0  0.28300  0.80800  0.03670  1.0000
  O   O3        1.0  0.52500  0.71700  0.03670  1.0000
  O   O4        1.0  0.13000  0.17600  0.35000  1.0000
  O   O5        1.0  0.04600  0.87000  0.35000  1.0000
  O   O6        1.0  0.82400  0.95400  0.35000  1.0000
  O   O7        1.0  0.14000  0.51600  0.47400  1.0000
  O   O8        1.0  0.48400  0.62300  0.47400  1.0000
  O   O9        1.0  0.37700  0.86000  0.47400  1.0000
  O   O10       1.0  0.80800  0.52500  0.53700  1.0000
  O   O11       1.0  0.71700  0.19200  0.53700  1.0000
  O   O12       1.0  0.47500  0.28300  0.53700  1.0000
  O   O13       1.0  0.17600  0.04600  0.85000  1.0000
  O   O14       1.0  0.95400  0.13000  0.85000  1.0000
  O   O15       1.0  0.87000  0.82400  0.85000  1.0000
  O   O16       1.0  0.62300  0.14000  0.97400  1.0000
  O   O17       1.0  0.51600  0.37700  0.97400  1.0000
  O   O18       1.0  0.86000  0.48400  0.97400  1.0000
  Pr  Pr1       1.0  0.36100  0.08670  0.20700  1.0000
  Pr  Pr2       1.0  0.91300  0.27400  0.20700  1.0000
  Pr  Pr3       1.0  0.72600  0.63900  0.20700  1.0000
  Pr  Pr4       1.0  0.27400  0.36100  0.70700  1.0000
  Pr  Pr5       1.0  0.08670  0.72600  0.70700  1.0000
  Pr  Pr6       1.0  0.63900  0.91300  0.70700  1.0000
  W   W1        1.0  0.33300  0.66700  0.24600  1.0000
  W   W2        1.0  0.66700  0.33300  0.74600  1.0000
