data_image0
_chemical_formula_structural       Ca12Ga8Pd8
_chemical_formula_sum              "Ca12 Ga8 Pd8"
_cell_length_a       5.81097
_cell_length_b       7.93858
_cell_length_c       13.9822
_cell_angle_alpha    90
_cell_angle_beta     90
_cell_angle_gamma    90

_space_group_name_H-M_alt    "P 1"
_space_group_IT_number       1

loop_
  _space_group_symop_operation_xyz
  'x, y, z'

loop_
  _atom_site_type_symbol
  _atom_site_label
  _atom_site_symmetry_multiplicity
  _atom_site_fract_x
  _atom_site_fract_y
  _atom_site_fract_z
  _atom_site_occupancy
  Ca  Ca1       1.0  0.86000  0.10700  0.09910  1.0000
  Ca  Ca2       1.0  0.14000  0.60700  0.09910  1.0000
  Ca  Ca3       1.0  0.36500  0.25600  0.25000  1.0000
  Ca  Ca4       1.0  0.63500  0.75600  0.25000  1.0000
  Ca  Ca5       1.0  0.86000  0.10700  0.40100  1.0000
  Ca  Ca6       1.0  0.14000  0.60700  0.40100  1.0000
  Ca  Ca7       1.0  0.86000  0.39300  0.59900  1.0000
  Ca  Ca8       1.0  0.14000  0.89300  0.59900  1.0000
  Ca  Ca9       1.0  0.36500  0.24400  0.75000  1.0000
  Ca  Ca10      1.0  0.63500  0.74400  0.75000  1.0000
  Ca  Ca11      1.0  0.86000  0.39300  0.90100  1.0000
  Ca  Ca12      1.0  0.14000  0.89300  0.90100  1.0000
  Ga  Ga1       1.0  0.37100  0.25000  0.00000  1.0000
  Ga  Ga2       1.0  0.62900  0.75000  0.00000  1.0000
  Ga  Ga3       1.0  0.85500  0.40500  0.25000  1.0000
  Ga  Ga4       1.0  0.14500  0.90500  0.25000  1.0000
  Ga  Ga5       1.0  0.37100  0.25000  0.50000  1.0000
  Ga  Ga6       1.0  0.62900  0.75000  0.50000  1.0000
  Ga  Ga7       1.0  0.85500  0.09490  0.75000  1.0000
  Ga  Ga8       1.0  0.14500  0.59500  0.75000  1.0000
  Pd  Pd1       1.0  0.63400  0.46700  0.09230  1.0000
  Pd  Pd2       1.0  0.36600  0.96700  0.09230  1.0000
  Pd  Pd3       1.0  0.63400  0.46700  0.40800  1.0000
  Pd  Pd4       1.0  0.36600  0.96700  0.40800  1.0000
  Pd  Pd5       1.0  0.63400  0.03260  0.59200  1.0000
  Pd  Pd6       1.0  0.36600  0.53300  0.59200  1.0000
  Pd  Pd7       1.0  0.63400  0.03260  0.90800  1.0000
  Pd  Pd8       1.0  0.36600  0.53300  0.90800  1.0000
