data_image0
_chemical_formula_structural       O18Sc4Se6
_chemical_formula_sum              "O18 Sc4 Se6"
_cell_length_a       7.92093
_cell_length_b       7.921
_cell_length_c       7.61329
_cell_angle_alpha    90
_cell_angle_beta     90
_cell_angle_gamma    120.002

_space_group_name_H-M_alt    "P 1"
_space_group_IT_number       1

loop_
  _space_group_symop_operation_xyz
  'x, y, z'

loop_
  _atom_site_type_symbol
  _atom_site_label
  _atom_site_symmetry_multiplicity
  _atom_site_fract_x
  _atom_site_fract_y
  _atom_site_fract_z
  _atom_site_occupancy
  O   O1        1.0  0.40400  0.17900  0.07560  1.0000
  O   O2        1.0  0.82100  0.22400  0.07560  1.0000
  O   O3        1.0  0.77600  0.59600  0.07560  1.0000
  O   O4        1.0  0.12000  0.51000  0.25000  1.0000
  O   O5        1.0  0.49000  0.61000  0.25000  1.0000
  O   O6        1.0  0.39000  0.88000  0.25000  1.0000
  O   O7        1.0  0.77600  0.59600  0.42400  1.0000
  O   O8        1.0  0.82100  0.22400  0.42400  1.0000
  O   O9        1.0  0.40400  0.17900  0.42400  1.0000
  O   O10       1.0  0.59600  0.82100  0.57600  1.0000
  O   O11       1.0  0.22400  0.40400  0.57600  1.0000
  O   O12       1.0  0.17900  0.77600  0.57600  1.0000
  O   O13       1.0  0.61000  0.12000  0.75000  1.0000
  O   O14       1.0  0.51000  0.39000  0.75000  1.0000
  O   O15       1.0  0.88000  0.49000  0.75000  1.0000
  O   O16       1.0  0.22400  0.40400  0.92400  1.0000
  O   O17       1.0  0.17900  0.77600  0.92400  1.0000
  O   O18       1.0  0.59600  0.82100  0.92400  1.0000
  Sc  Sc1       1.0  0.33300  0.66700  0.04360  1.0000
  Sc  Sc2       1.0  0.33300  0.66700  0.45600  1.0000
  Sc  Sc3       1.0  0.66700  0.33300  0.54400  1.0000
  Sc  Sc4       1.0  0.66700  0.33300  0.95600  1.0000
  Se  Se1       1.0  0.28800  0.03150  0.25000  1.0000
  Se  Se2       1.0  0.96800  0.25600  0.25000  1.0000
  Se  Se3       1.0  0.74400  0.71200  0.25000  1.0000
  Se  Se4       1.0  0.25600  0.28800  0.75000  1.0000
  Se  Se5       1.0  0.03160  0.74400  0.75000  1.0000
  Se  Se6       1.0  0.71200  0.96800  0.75000  1.0000
