data_image0
_chemical_formula_structural       C8Cu2Hg2N8S8
_chemical_formula_sum              "C8 Cu2 Hg2 N8 S8"
_cell_length_a       5.86785
_cell_length_b       5.86785
_cell_length_c       15.1235
_cell_angle_alpha    90.1843
_cell_angle_beta     90.1843
_cell_angle_gamma    82.1922

_space_group_name_H-M_alt    "P 1"
_space_group_IT_number       1

loop_
  _space_group_symop_operation_xyz
  'x, y, z'

loop_
  _atom_site_type_symbol
  _atom_site_label
  _atom_site_symmetry_multiplicity
  _atom_site_fract_x
  _atom_site_fract_y
  _atom_site_fract_z
  _atom_site_occupancy
  C   C1        1.0  0.07770  0.27400  0.06470  1.0000
  C   C2        1.0  0.43500  0.84300  0.16100  1.0000
  C   C3        1.0  0.15700  0.56500  0.33900  1.0000
  C   C4        1.0  0.72600  0.92200  0.43500  1.0000
  C   C5        1.0  0.27400  0.07770  0.56500  1.0000
  C   C6        1.0  0.84300  0.43500  0.66100  1.0000
  C   C7        1.0  0.56500  0.15700  0.83900  1.0000
  C   C8        1.0  0.92200  0.72600  0.93500  1.0000
  Cu  Cu1       1.0  0.50000  0.50000  0.00000  1.0000
  Cu  Cu2       1.0  0.50000  0.50000  0.50000  1.0000
  Hg  Hg1       1.0  0.94600  0.05410  0.25000  1.0000
  Hg  Hg2       1.0  0.05410  0.94600  0.75000  1.0000
  N   N1        1.0  0.24200  0.35400  0.04400  1.0000
  N   N2        1.0  0.45800  0.72600  0.09760  1.0000
  N   N3        1.0  0.27400  0.54200  0.40200  1.0000
  N   N4        1.0  0.64600  0.75800  0.45600  1.0000
  N   N5        1.0  0.35400  0.24200  0.54400  1.0000
  N   N6        1.0  0.72600  0.45800  0.59800  1.0000
  N   N7        1.0  0.54200  0.27400  0.90200  1.0000
  N   N8        1.0  0.75800  0.64600  0.95600  1.0000
  S   S1        1.0  0.84500  0.16000  0.08970  1.0000
  S   S2        1.0  0.41300  0.01690  0.24600  1.0000
  S   S3        1.0  0.98300  0.58700  0.25400  1.0000
  S   S4        1.0  0.84000  0.15500  0.41000  1.0000
  S   S5        1.0  0.16000  0.84500  0.59000  1.0000
  S   S6        1.0  0.01690  0.41300  0.74600  1.0000
  S   S7        1.0  0.58700  0.98300  0.75400  1.0000
  S   S8        1.0  0.15500  0.84000  0.91000  1.0000
