data_image0
_chemical_formula_structural       C4Cl4Cu4H8N8
_chemical_formula_sum              "C4 Cl4 Cu4 H8 N8"
_cell_length_a       9.11175
_cell_length_b       3.86004
_cell_length_c       12.2689
_cell_angle_alpha    90
_cell_angle_beta     90
_cell_angle_gamma    90

_space_group_name_H-M_alt    "P 1"
_space_group_IT_number       1

loop_
  _space_group_symop_operation_xyz
  'x, y, z'

loop_
  _atom_site_type_symbol
  _atom_site_label
  _atom_site_symmetry_multiplicity
  _atom_site_fract_x
  _atom_site_fract_y
  _atom_site_fract_z
  _atom_site_occupancy
  C   C1        1.0  0.12200  0.75000  0.09540  1.0000
  C   C2        1.0  0.62200  0.75000  0.40500  1.0000
  C   C3        1.0  0.37800  0.25000  0.59500  1.0000
  C   C4        1.0  0.87800  0.25000  0.90500  1.0000
  Cl  Cl1       1.0  0.50500  0.75000  0.14300  1.0000
  Cl  Cl2       1.0  0.00499  0.75000  0.35700  1.0000
  Cl  Cl3       1.0  0.99500  0.25000  0.64300  1.0000
  Cl  Cl4       1.0  0.49500  0.25000  0.85700  1.0000
  Cu  Cu1       1.0  0.53400  0.25000  0.05710  1.0000
  Cu  Cu2       1.0  0.03440  0.25000  0.44300  1.0000
  Cu  Cu3       1.0  0.96600  0.75000  0.55700  1.0000
  Cu  Cu4       1.0  0.46600  0.75000  0.94300  1.0000
  H   H1        1.0  0.78800  0.75000  0.04970  1.0000
  H   H2        1.0  0.80700  0.75000  0.19500  1.0000
  H   H3        1.0  0.30700  0.75000  0.30500  1.0000
  H   H4        1.0  0.28800  0.75000  0.45000  1.0000
  H   H5        1.0  0.71200  0.25000  0.55000  1.0000
  H   H6        1.0  0.69300  0.25000  0.69500  1.0000
  H   H7        1.0  0.19300  0.25000  0.80500  1.0000
  H   H8        1.0  0.21200  0.25000  0.95000  1.0000
  N   N1        1.0  0.99300  0.75000  0.10700  1.0000
  N   N2        1.0  0.85000  0.75000  0.11900  1.0000
  N   N3        1.0  0.35000  0.75000  0.38100  1.0000
  N   N4        1.0  0.49300  0.75000  0.39300  1.0000
  N   N5        1.0  0.50700  0.25000  0.60700  1.0000
  N   N6        1.0  0.65000  0.25000  0.61900  1.0000
  N   N7        1.0  0.15000  0.25000  0.88100  1.0000
  N   N8        1.0  0.00700  0.25000  0.89300  1.0000
