data_image0
_chemical_formula_structural       Gd8O16Sr4
_chemical_formula_sum              "Gd8 O16 Sr4"
_cell_length_a       11.961
_cell_length_b       9.88218
_cell_length_c       3.48507
_cell_angle_alpha    90
_cell_angle_beta     90
_cell_angle_gamma    90

_space_group_name_H-M_alt    "P 1"
_space_group_IT_number       1

loop_
  _space_group_symop_operation_xyz
  'x, y, z'

loop_
  _atom_site_type_symbol
  _atom_site_label
  _atom_site_symmetry_multiplicity
  _atom_site_fract_x
  _atom_site_fract_y
  _atom_site_fract_z
  _atom_site_occupancy
  Gd  Gd1       1.0  0.39300  0.40300  0.25000  1.0000
  Gd  Gd2       1.0  0.88400  0.43500  0.25000  1.0000
  Gd  Gd3       1.0  0.10700  0.90300  0.25000  1.0000
  Gd  Gd4       1.0  0.61600  0.93500  0.25000  1.0000
  Gd  Gd5       1.0  0.38400  0.06490  0.75000  1.0000
  Gd  Gd6       1.0  0.89300  0.09710  0.75000  1.0000
  Gd  Gd7       1.0  0.11600  0.56500  0.75000  1.0000
  Gd  Gd8       1.0  0.60700  0.59700  0.75000  1.0000
  O   O1        1.0  0.51000  0.14000  0.25000  1.0000
  O   O2        1.0  0.81400  0.22400  0.25000  1.0000
  O   O3        1.0  0.58300  0.43800  0.25000  1.0000
  O   O4        1.0  0.21600  0.49500  0.25000  1.0000
  O   O5        1.0  0.99000  0.64000  0.25000  1.0000
  O   O6        1.0  0.68600  0.72400  0.25000  1.0000
  O   O7        1.0  0.91700  0.93800  0.25000  1.0000
  O   O8        1.0  0.28400  0.99500  0.25000  1.0000
  O   O9        1.0  0.71600  0.00541  0.75000  1.0000
  O   O10       1.0  0.08260  0.06180  0.75000  1.0000
  O   O11       1.0  0.31400  0.27600  0.75000  1.0000
  O   O12       1.0  0.00998  0.36000  0.75000  1.0000
  O   O13       1.0  0.78400  0.50500  0.75000  1.0000
  O   O14       1.0  0.41700  0.56200  0.75000  1.0000
  O   O15       1.0  0.18600  0.77600  0.75000  1.0000
  O   O16       1.0  0.49000  0.86000  0.75000  1.0000
  Sr  Sr1       1.0  0.14800  0.24100  0.25000  1.0000
  Sr  Sr2       1.0  0.35200  0.74100  0.25000  1.0000
  Sr  Sr3       1.0  0.64800  0.25900  0.75000  1.0000
  Sr  Sr4       1.0  0.85200  0.75900  0.75000  1.0000
