data_image0
_chemical_formula_structural       Be4K4O16P4
_chemical_formula_sum              "Be4 K4 O16 P4"
_cell_length_a       8.45099
_cell_length_b       4.9142
_cell_length_c       8.26979
_cell_angle_alpha    90
_cell_angle_beta     90
_cell_angle_gamma    90

_space_group_name_H-M_alt    "P 1"
_space_group_IT_number       1

loop_
  _space_group_symop_operation_xyz
  'x, y, z'

loop_
  _atom_site_type_symbol
  _atom_site_label
  _atom_site_symmetry_multiplicity
  _atom_site_fract_x
  _atom_site_fract_y
  _atom_site_fract_z
  _atom_site_occupancy
  Be  Be1       1.0  0.58800  0.24100  0.18500  1.0000
  Be  Be2       1.0  0.08830  0.74100  0.31500  1.0000
  Be  Be3       1.0  0.91200  0.24100  0.68500  1.0000
  Be  Be4       1.0  0.41200  0.74100  0.81500  1.0000
  K   K1        1.0  0.78800  0.75300  0.00115  1.0000
  K   K2        1.0  0.28800  0.25300  0.49900  1.0000
  K   K3        1.0  0.71200  0.75300  0.50100  1.0000
  K   K4        1.0  0.21200  0.25300  0.99900  1.0000
  O   O1        1.0  0.41000  0.74200  0.00880  1.0000
  O   O2        1.0  0.76100  0.13500  0.24000  1.0000
  O   O3        1.0  0.95500  0.52900  0.24300  1.0000
  O   O4        1.0  0.05220  0.04480  0.24800  1.0000
  O   O5        1.0  0.55200  0.54500  0.25200  1.0000
  O   O6        1.0  0.45500  0.02910  0.25700  1.0000
  O   O7        1.0  0.26100  0.63500  0.26000  1.0000
  O   O8        1.0  0.91000  0.24200  0.49100  1.0000
  O   O9        1.0  0.08980  0.74200  0.50900  1.0000
  O   O10       1.0  0.73900  0.13500  0.74000  1.0000
  O   O11       1.0  0.54500  0.52900  0.74300  1.0000
  O   O12       1.0  0.44800  0.04480  0.74800  1.0000
  O   O13       1.0  0.94800  0.54500  0.75200  1.0000
  O   O14       1.0  0.04490  0.02910  0.75700  1.0000
  O   O15       1.0  0.23900  0.63500  0.76000  1.0000
  O   O16       1.0  0.59000  0.24200  0.99100  1.0000
  P   P1        1.0  0.42000  0.73900  0.19300  1.0000
  P   P2        1.0  0.92000  0.23900  0.30700  1.0000
  P   P3        1.0  0.08030  0.73900  0.69300  1.0000
  P   P4        1.0  0.58000  0.23900  0.80700  1.0000
