data_image0
_chemical_formula_structural       B4Ba4S16Sb4
_chemical_formula_sum              "B4 Ba4 S16 Sb4"
_cell_length_a       9.97309
_cell_length_b       6.25995
_cell_length_c       11.8904
_cell_angle_alpha    90
_cell_angle_beta     90
_cell_angle_gamma    90

_space_group_name_H-M_alt    "P 1"
_space_group_IT_number       1

loop_
  _space_group_symop_operation_xyz
  'x, y, z'

loop_
  _atom_site_type_symbol
  _atom_site_label
  _atom_site_symmetry_multiplicity
  _atom_site_fract_x
  _atom_site_fract_y
  _atom_site_fract_z
  _atom_site_occupancy
  B   B1        1.0  0.69300  0.25000  0.04900  1.0000
  B   B2        1.0  0.19300  0.25000  0.45100  1.0000
  B   B3        1.0  0.80700  0.75000  0.54900  1.0000
  B   B4        1.0  0.30700  0.75000  0.95100  1.0000
  Ba  Ba1       1.0  0.01480  0.75000  0.16700  1.0000
  Ba  Ba2       1.0  0.51500  0.75000  0.33300  1.0000
  Ba  Ba3       1.0  0.48500  0.25000  0.66700  1.0000
  Ba  Ba4       1.0  0.98500  0.25000  0.83300  1.0000
  S   S1        1.0  0.07370  0.25000  0.09050  1.0000
  S   S2        1.0  0.32700  0.75000  0.10100  1.0000
  S   S3        1.0  0.70700  0.00230  0.12800  1.0000
  S   S4        1.0  0.70700  0.49800  0.12800  1.0000
  S   S5        1.0  0.20700  0.00230  0.37200  1.0000
  S   S6        1.0  0.20700  0.49800  0.37200  1.0000
  S   S7        1.0  0.82700  0.75000  0.39900  1.0000
  S   S8        1.0  0.57400  0.25000  0.40900  1.0000
  S   S9        1.0  0.42600  0.75000  0.59100  1.0000
  S   S10       1.0  0.17300  0.25000  0.60100  1.0000
  S   S11       1.0  0.79300  0.50200  0.62800  1.0000
  S   S12       1.0  0.79300  0.99800  0.62800  1.0000
  S   S13       1.0  0.29300  0.50200  0.87200  1.0000
  S   S14       1.0  0.29300  0.99800  0.87200  1.0000
  S   S15       1.0  0.67300  0.25000  0.89900  1.0000
  S   S16       1.0  0.92600  0.75000  0.90900  1.0000
  Sb  Sb1       1.0  0.30800  0.25000  0.04080  1.0000
  Sb  Sb2       1.0  0.80800  0.25000  0.45900  1.0000
  Sb  Sb3       1.0  0.19200  0.75000  0.54100  1.0000
  Sb  Sb4       1.0  0.69200  0.75000  0.95900  1.0000
