data_image0
_chemical_formula_structural       C12Co2Er2N12
_chemical_formula_sum              "C12 Co2 Er2 N12"
_cell_length_a       7.32266
_cell_length_b       7.32276
_cell_length_c       12.9222
_cell_angle_alpha    90
_cell_angle_beta     90
_cell_angle_gamma    120

_space_group_name_H-M_alt    "P 1"
_space_group_IT_number       1

loop_
  _space_group_symop_operation_xyz
  'x, y, z'

loop_
  _atom_site_type_symbol
  _atom_site_label
  _atom_site_symmetry_multiplicity
  _atom_site_fract_x
  _atom_site_fract_y
  _atom_site_fract_z
  _atom_site_occupancy
  C   C1        1.0  0.11900  0.23700  0.08340  1.0000
  C   C2        1.0  0.11900  0.88100  0.08340  1.0000
  C   C3        1.0  0.76200  0.88100  0.08340  1.0000
  C   C4        1.0  0.11900  0.88100  0.41700  1.0000
  C   C5        1.0  0.76200  0.88100  0.41700  1.0000
  C   C6        1.0  0.11900  0.23700  0.41700  1.0000
  C   C7        1.0  0.88100  0.76300  0.58300  1.0000
  C   C8        1.0  0.23800  0.11900  0.58300  1.0000
  C   C9        1.0  0.88100  0.11900  0.58300  1.0000
  C   C10       1.0  0.23800  0.11900  0.91700  1.0000
  C   C11       1.0  0.88100  0.11900  0.91700  1.0000
  C   C12       1.0  0.88100  0.76300  0.91700  1.0000
  Co  Co1       1.0  0.00000  0.00000  0.00000  1.0000
  Co  Co2       1.0  0.00000  0.00000  0.50000  1.0000
  Er  Er1       1.0  0.33300  0.66700  0.25000  1.0000
  Er  Er2       1.0  0.66700  0.33300  0.75000  1.0000
  N   N1        1.0  0.19300  0.38500  0.13700  1.0000
  N   N2        1.0  0.19300  0.80700  0.13700  1.0000
  N   N3        1.0  0.61500  0.80700  0.13700  1.0000
  N   N4        1.0  0.19300  0.80700  0.36300  1.0000
  N   N5        1.0  0.61500  0.80700  0.36300  1.0000
  N   N6        1.0  0.19300  0.38500  0.36300  1.0000
  N   N7        1.0  0.80700  0.61500  0.63700  1.0000
  N   N8        1.0  0.38500  0.19300  0.63700  1.0000
  N   N9        1.0  0.80700  0.19300  0.63700  1.0000
  N   N10       1.0  0.38500  0.19300  0.86300  1.0000
  N   N11       1.0  0.80700  0.19300  0.86300  1.0000
  N   N12       1.0  0.80700  0.61500  0.86300  1.0000
