data_image0
_chemical_formula_structural       Cl9Cs3Fe2
_chemical_formula_sum              "Cl9 Cs3 Fe2"
_cell_length_a       7.2236
_cell_length_b       7.22378
_cell_length_c       8.93099
_cell_angle_alpha    90
_cell_angle_beta     89.9989
_cell_angle_gamma    120.001

_space_group_name_H-M_alt    "P 1"
_space_group_IT_number       1

loop_
  _space_group_symop_operation_xyz
  'x, y, z'

loop_
  _atom_site_type_symbol
  _atom_site_label
  _atom_site_symmetry_multiplicity
  _atom_site_fract_x
  _atom_site_fract_y
  _atom_site_fract_z
  _atom_site_occupancy
  Cl  Cl1       1.0  0.50000  0.50000  1.00000  1.0000
  Cl  Cl2       1.0  0.50000  1.00000  1.00000  1.0000
  Cl  Cl3       1.0  1.00000  0.50000  0.00000  1.0000
  Cl  Cl4       1.0  0.35400  0.17700  0.31400  1.0000
  Cl  Cl5       1.0  0.82300  0.17700  0.31400  1.0000
  Cl  Cl6       1.0  0.82300  0.64600  0.31400  1.0000
  Cl  Cl7       1.0  0.17700  0.35400  0.68600  1.0000
  Cl  Cl8       1.0  0.17700  0.82300  0.68600  1.0000
  Cl  Cl9       1.0  0.64600  0.82300  0.68600  1.0000
  Cs  Cs1       1.0  0.00000  0.00000  0.00000  1.0000
  Cs  Cs2       1.0  0.33300  0.66700  0.33100  1.0000
  Cs  Cs3       1.0  0.66700  0.33300  0.66900  1.0000
  Fe  Fe1       1.0  0.66700  0.33300  0.18500  1.0000
  Fe  Fe2       1.0  0.33300  0.66700  0.81500  1.0000
