data_image0
_chemical_formula_structural       O20P4W4
_chemical_formula_sum              "O20 P4 W4"
_cell_length_a       11.2083
_cell_length_b       6.56874
_cell_length_c       5.25317
_cell_angle_alpha    90
_cell_angle_beta     90
_cell_angle_gamma    90

_space_group_name_H-M_alt    "P 1"
_space_group_IT_number       1

loop_
  _space_group_symop_operation_xyz
  'x, y, z'

loop_
  _atom_site_type_symbol
  _atom_site_label
  _atom_site_symmetry_multiplicity
  _atom_site_fract_x
  _atom_site_fract_y
  _atom_site_fract_z
  _atom_site_occupancy
  O   O1        1.0  0.29100  0.01220  0.00743  1.0000
  O   O2        1.0  0.79100  0.48800  0.00743  1.0000
  O   O3        1.0  0.61900  0.67000  0.19700  1.0000
  O   O4        1.0  0.11900  0.83000  0.19700  1.0000
  O   O5        1.0  0.86500  0.12000  0.21900  1.0000
  O   O6        1.0  0.36500  0.38000  0.21900  1.0000
  O   O7        1.0  0.49400  0.02080  0.27500  1.0000
  O   O8        1.0  0.99400  0.47900  0.27500  1.0000
  O   O9        1.0  0.41000  0.67500  0.50000  1.0000
  O   O10       1.0  0.91000  0.82500  0.50000  1.0000
  O   O11       1.0  0.20900  0.51200  0.50700  1.0000
  O   O12       1.0  0.70900  0.98800  0.50700  1.0000
  O   O13       1.0  0.88100  0.17000  0.69700  1.0000
  O   O14       1.0  0.38100  0.33000  0.69700  1.0000
  O   O15       1.0  0.63500  0.62000  0.71900  1.0000
  O   O16       1.0  0.13500  0.88000  0.71900  1.0000
  O   O17       1.0  0.00631  0.52100  0.77500  1.0000
  O   O18       1.0  0.50600  0.97900  0.77500  1.0000
  O   O19       1.0  0.09020  0.17500  0.00000  1.0000
  O   O20       1.0  0.59000  0.32500  0.00000  1.0000
  P   P1        1.0  0.84300  0.02830  0.48200  1.0000
  P   P2        1.0  0.34300  0.47200  0.48200  1.0000
  P   P3        1.0  0.65700  0.52800  0.98200  1.0000
  P   P4        1.0  0.15700  0.97200  0.98200  1.0000
  W   W1        1.0  0.05960  0.66800  0.49700  1.0000
  W   W2        1.0  0.56000  0.83200  0.49700  1.0000
  W   W3        1.0  0.44000  0.16800  0.99700  1.0000
  W   W4        1.0  0.94000  0.33200  0.99700  1.0000
