data_image0
_chemical_formula_structural       Mn4O16P4Rb4
_chemical_formula_sum              "Mn4 O16 P4 Rb4"
_cell_length_a       8.85807
_cell_length_b       5.42737
_cell_length_c       9.02889
_cell_angle_alpha    90
_cell_angle_beta     90.1394
_cell_angle_gamma    90

_space_group_name_H-M_alt    "P 1"
_space_group_IT_number       1

loop_
  _space_group_symop_operation_xyz
  'x, y, z'

loop_
  _atom_site_type_symbol
  _atom_site_label
  _atom_site_symmetry_multiplicity
  _atom_site_fract_x
  _atom_site_fract_y
  _atom_site_fract_z
  _atom_site_occupancy
  Mn  Mn1       1.0  0.32500  0.58400  0.09480  1.0000
  Mn  Mn2       1.0  0.83900  0.64600  0.42900  1.0000
  Mn  Mn3       1.0  0.16100  0.14600  0.57100  1.0000
  Mn  Mn4       1.0  0.67500  0.08370  0.90500  1.0000
  O   O1        1.0  0.29000  0.21700  0.05460  1.0000
  O   O2        1.0  0.73800  0.30700  0.07600  1.0000
  O   O3        1.0  0.54200  0.61500  0.16600  1.0000
  O   O4        1.0  0.82000  0.70100  0.20400  1.0000
  O   O5        1.0  0.18600  0.67900  0.26600  1.0000
  O   O6        1.0  0.31300  0.37800  0.44800  1.0000
  O   O7        1.0  0.73100  0.32300  0.47900  1.0000
  O   O8        1.0  0.05260  0.51100  0.49400  1.0000
  O   O9        1.0  0.94700  0.01100  0.50600  1.0000
  O   O10       1.0  0.26900  0.82300  0.52100  1.0000
  O   O11       1.0  0.68700  0.87800  0.55200  1.0000
  O   O12       1.0  0.81400  0.17900  0.73400  1.0000
  O   O13       1.0  0.18000  0.20100  0.79600  1.0000
  O   O14       1.0  0.45800  0.11500  0.83400  1.0000
  O   O15       1.0  0.26200  0.80700  0.92400  1.0000
  O   O16       1.0  0.71000  0.71700  0.94500  1.0000
  P   P1        1.0  0.70200  0.58500  0.09830  1.0000
  P   P2        1.0  0.20800  0.60400  0.43000  1.0000
  P   P3        1.0  0.79200  0.10400  0.57000  1.0000
  P   P4        1.0  0.29800  0.08510  0.90200  1.0000
  Rb  Rb1       1.0  0.01120  0.13200  0.19900  1.0000
  Rb  Rb2       1.0  0.51000  0.08290  0.30500  1.0000
  Rb  Rb3       1.0  0.49000  0.58300  0.69500  1.0000
  Rb  Rb4       1.0  0.98900  0.63200  0.80100  1.0000
