data_image0
_chemical_formula_structural       B20Pr8
_chemical_formula_sum              "B20 Pr8"
_cell_length_a       7.31945
_cell_length_b       7.35042
_cell_length_c       8.46412
_cell_angle_alpha    107.472
_cell_angle_beta     115.619
_cell_angle_gamma    90

_space_group_name_H-M_alt    "P 1"
_space_group_IT_number       1

loop_
  _space_group_symop_operation_xyz
  'x, y, z'

loop_
  _atom_site_type_symbol
  _atom_site_label
  _atom_site_symmetry_multiplicity
  _atom_site_fract_x
  _atom_site_fract_y
  _atom_site_fract_z
  _atom_site_occupancy
  B   B1        1.0  0.79800  0.35100  0.08600  1.0000
  B   B2        1.0  0.28800  0.85100  0.08600  1.0000
  B   B3        1.0  0.91100  0.43900  0.32000  1.0000
  B   B4        1.0  0.41000  0.93900  0.32000  1.0000
  B   B5        1.0  0.95900  0.67000  0.49800  1.0000
  B   B6        1.0  0.53900  0.17000  0.49800  1.0000
  B   B7        1.0  0.59200  0.40700  0.49900  1.0000
  B   B8        1.0  0.90700  0.90700  0.49900  1.0000
  B   B9        1.0  0.82900  0.46000  0.50000  1.0000
  B   B10       1.0  0.67100  0.96000  0.50000  1.0000
  B   B11       1.0  0.32900  0.04020  0.50000  1.0000
  B   B12       1.0  0.17100  0.54000  0.50000  1.0000
  B   B13       1.0  0.09300  0.09270  0.50100  1.0000
  B   B14       1.0  0.40800  0.59300  0.50100  1.0000
  B   B15       1.0  0.04090  0.33000  0.50200  1.0000
  B   B16       1.0  0.46100  0.83000  0.50200  1.0000
  B   B17       1.0  0.08940  0.56100  0.68000  1.0000
  B   B18       1.0  0.59000  0.06140  0.68000  1.0000
  B   B19       1.0  0.71200  0.14900  0.91400  1.0000
  B   B20       1.0  0.20200  0.64900  0.91400  1.0000
  Pr  Pr1       1.0  0.05590  0.72200  0.23700  1.0000
  Pr  Pr2       1.0  0.18100  0.22200  0.23700  1.0000
  Pr  Pr3       1.0  0.68900  0.09620  0.23700  1.0000
  Pr  Pr4       1.0  0.54800  0.59600  0.23700  1.0000
  Pr  Pr5       1.0  0.31100  0.90400  0.76300  1.0000
  Pr  Pr6       1.0  0.45200  0.40400  0.76300  1.0000
  Pr  Pr7       1.0  0.81900  0.77800  0.76300  1.0000
  Pr  Pr8       1.0  0.94400  0.27800  0.76300  1.0000
