data_image0
_chemical_formula_structural       Ge4Li4Nd4O16
_chemical_formula_sum              "Ge4 Li4 Nd4 O16"
_cell_length_a       5.10516
_cell_length_b       11.8802
_cell_length_c       5.38856
_cell_angle_alpha    90
_cell_angle_beta     90
_cell_angle_gamma    90

_space_group_name_H-M_alt    "P 1"
_space_group_IT_number       1

loop_
  _space_group_symop_operation_xyz
  'x, y, z'

loop_
  _atom_site_type_symbol
  _atom_site_label
  _atom_site_symmetry_multiplicity
  _atom_site_fract_x
  _atom_site_fract_y
  _atom_site_fract_z
  _atom_site_occupancy
  Ge  Ge1       1.0  0.00000  0.39100  0.25000  1.0000
  Ge  Ge2       1.0  0.50000  0.89100  0.25000  1.0000
  Ge  Ge3       1.0  0.50000  0.10900  0.75000  1.0000
  Ge  Ge4       1.0  0.00000  0.60900  0.75000  1.0000
  Li  Li1       1.0  0.50000  0.26700  0.25000  1.0000
  Li  Li2       1.0  0.00000  0.76700  0.25000  1.0000
  Li  Li3       1.0  0.00000  0.23300  0.75000  1.0000
  Li  Li4       1.0  0.50000  0.73300  0.75000  1.0000
  Nd  Nd1       1.0  0.00000  0.11400  0.25000  1.0000
  Nd  Nd2       1.0  0.50000  0.61400  0.25000  1.0000
  Nd  Nd3       1.0  0.50000  0.38600  0.75000  1.0000
  Nd  Nd4       1.0  0.00000  0.88600  0.75000  1.0000
  O   O1        1.0  0.82300  0.29700  0.04640  1.0000
  O   O2        1.0  0.67700  0.79700  0.04640  1.0000
  O   O3        1.0  0.25000  0.45900  0.08220  1.0000
  O   O4        1.0  0.25000  0.95900  0.08220  1.0000
  O   O5        1.0  0.75000  0.45900  0.41800  1.0000
  O   O6        1.0  0.75000  0.95900  0.41800  1.0000
  O   O7        1.0  0.17700  0.29700  0.45400  1.0000
  O   O8        1.0  0.32300  0.79700  0.45400  1.0000
  O   O9        1.0  0.67700  0.20300  0.54600  1.0000
  O   O10       1.0  0.82300  0.70300  0.54600  1.0000
  O   O11       1.0  0.25000  0.04140  0.58200  1.0000
  O   O12       1.0  0.25000  0.54100  0.58200  1.0000
  O   O13       1.0  0.75000  0.04140  0.91800  1.0000
  O   O14       1.0  0.75000  0.54100  0.91800  1.0000
  O   O15       1.0  0.32300  0.20300  0.95400  1.0000
  O   O16       1.0  0.17700  0.70300  0.95400  1.0000
