data_image0
_chemical_formula_structural       Cu12Er4Te12
_chemical_formula_sum              "Cu12 Er4 Te12"
_cell_length_a       12.7676
_cell_length_b       7.62395
_cell_length_c       6.90548
_cell_angle_alpha    90
_cell_angle_beta     90
_cell_angle_gamma    90

_space_group_name_H-M_alt    "P 1"
_space_group_IT_number       1

loop_
  _space_group_symop_operation_xyz
  'x, y, z'

loop_
  _atom_site_type_symbol
  _atom_site_label
  _atom_site_symmetry_multiplicity
  _atom_site_fract_x
  _atom_site_fract_y
  _atom_site_fract_z
  _atom_site_occupancy
  Cu  Cu1       1.0  0.00000  0.12600  0.12600  1.0000
  Cu  Cu2       1.0  0.32600  0.11700  0.13400  1.0000
  Cu  Cu3       1.0  0.67400  0.11700  0.13400  1.0000
  Cu  Cu4       1.0  0.32500  0.38100  0.37900  1.0000
  Cu  Cu5       1.0  0.67500  0.38100  0.37900  1.0000
  Cu  Cu6       1.0  0.00000  0.37900  0.38300  1.0000
  Cu  Cu7       1.0  0.50000  0.87400  0.62600  1.0000
  Cu  Cu8       1.0  0.17400  0.88300  0.63400  1.0000
  Cu  Cu9       1.0  0.82600  0.88300  0.63400  1.0000
  Cu  Cu10      1.0  0.17500  0.61900  0.87900  1.0000
  Cu  Cu11      1.0  0.82500  0.61900  0.87900  1.0000
  Cu  Cu12      1.0  0.50000  0.62100  0.88300  1.0000
  Er  Er1       1.0  0.33900  0.74800  0.25500  1.0000
  Er  Er2       1.0  0.66100  0.74800  0.25500  1.0000
  Er  Er3       1.0  0.16100  0.25200  0.75500  1.0000
  Er  Er4       1.0  0.83900  0.25200  0.75500  1.0000
  Te  Te1       1.0  0.00000  0.45300  0.00328  1.0000
  Te  Te2       1.0  0.50000  0.94800  0.00683  1.0000
  Te  Te3       1.0  0.16200  0.93400  0.02190  1.0000
  Te  Te4       1.0  0.83800  0.93400  0.02190  1.0000
  Te  Te5       1.0  0.16300  0.56800  0.49000  1.0000
  Te  Te6       1.0  0.83700  0.56800  0.49000  1.0000
  Te  Te7       1.0  0.50000  0.54700  0.50300  1.0000
  Te  Te8       1.0  0.00000  0.05200  0.50700  1.0000
  Te  Te9       1.0  0.33800  0.06630  0.52200  1.0000
  Te  Te10      1.0  0.66200  0.06630  0.52200  1.0000
  Te  Te11      1.0  0.33700  0.43200  0.99000  1.0000
  Te  Te12      1.0  0.66300  0.43200  0.99000  1.0000
