data_image0
_chemical_formula_structural       Eu2K6O16V4
_chemical_formula_sum              "Eu2 K6 O16 V4"
_cell_length_a       9.94448
_cell_length_b       5.84684
_cell_length_c       7.49631
_cell_angle_alpha    90
_cell_angle_beta     90.2393
_cell_angle_gamma    90

_space_group_name_H-M_alt    "P 1"
_space_group_IT_number       1

loop_
  _space_group_symop_operation_xyz
  'x, y, z'

loop_
  _atom_site_type_symbol
  _atom_site_label
  _atom_site_symmetry_multiplicity
  _atom_site_fract_x
  _atom_site_fract_y
  _atom_site_fract_z
  _atom_site_occupancy
  Eu  Eu1       1.0  0.80000  0.75000  0.00836  1.0000
  Eu  Eu2       1.0  0.20000  0.25000  0.99200  1.0000
  K   K1        1.0  0.58200  0.25000  0.18000  1.0000
  K   K2        1.0  0.08130  0.75000  0.36500  1.0000
  K   K3        1.0  0.30400  0.25000  0.49400  1.0000
  K   K4        1.0  0.69600  0.75000  0.50600  1.0000
  K   K5        1.0  0.91900  0.25000  0.63500  1.0000
  K   K6        1.0  0.41800  0.75000  0.82000  1.0000
  O   O1        1.0  0.05070  0.75000  0.02580  1.0000
  O   O2        1.0  0.33400  0.50700  0.16600  1.0000
  O   O3        1.0  0.33400  0.99300  0.16600  1.0000
  O   O4        1.0  0.57800  0.75000  0.16800  1.0000
  O   O5        1.0  0.83200  0.00884  0.26300  1.0000
  O   O6        1.0  0.83200  0.49100  0.26300  1.0000
  O   O7        1.0  0.07840  0.25000  0.30100  1.0000
  O   O8        1.0  0.40800  0.75000  0.47400  1.0000
  O   O9        1.0  0.59200  0.25000  0.52600  1.0000
  O   O10       1.0  0.92200  0.75000  0.69900  1.0000
  O   O11       1.0  0.16800  0.50900  0.73700  1.0000
  O   O12       1.0  0.16800  0.99100  0.73700  1.0000
  O   O13       1.0  0.42200  0.25000  0.83200  1.0000
  O   O14       1.0  0.66600  0.00746  0.83400  1.0000
  O   O15       1.0  0.66600  0.49300  0.83400  1.0000
  O   O16       1.0  0.94900  0.25000  0.97400  1.0000
  V   V1        1.0  0.92200  0.25000  0.20100  1.0000
  V   V2        1.0  0.41300  0.75000  0.24600  1.0000
  V   V3        1.0  0.58700  0.25000  0.75400  1.0000
  V   V4        1.0  0.07840  0.75000  0.79900  1.0000
