data_image0
_chemical_formula_structural       Ba2O18V8
_chemical_formula_sum              "Ba2 O18 V8"
_cell_length_a       7.60918
_cell_length_b       5.01663
_cell_length_c       9.36495
_cell_angle_alpha    90
_cell_angle_beta     111.477
_cell_angle_gamma    90

_space_group_name_H-M_alt    "P 1"
_space_group_IT_number       1

loop_
  _space_group_symop_operation_xyz
  'x, y, z'

loop_
  _atom_site_type_symbol
  _atom_site_label
  _atom_site_symmetry_multiplicity
  _atom_site_fract_x
  _atom_site_fract_y
  _atom_site_fract_z
  _atom_site_occupancy
  Ba  Ba1       1.0  0.00000  0.33200  0.25000  1.0000
  Ba  Ba2       1.0  0.00000  0.66800  0.75000  1.0000
  O   O1        1.0  0.67300  0.09510  0.03660  1.0000
  O   O2        1.0  0.22600  0.40700  0.05590  1.0000
  O   O3        1.0  0.58200  0.57700  0.14400  1.0000
  O   O4        1.0  0.09980  0.86200  0.15200  1.0000
  O   O5        1.0  0.50000  0.04680  0.25000  1.0000
  O   O6        1.0  0.90000  0.86200  0.34800  1.0000
  O   O7        1.0  0.41800  0.57700  0.35600  1.0000
  O   O8        1.0  0.77400  0.40700  0.44400  1.0000
  O   O9        1.0  0.32700  0.09510  0.46300  1.0000
  O   O10       1.0  0.67300  0.90500  0.53700  1.0000
  O   O11       1.0  0.22600  0.59300  0.55600  1.0000
  O   O12       1.0  0.58200  0.42300  0.64400  1.0000
  O   O13       1.0  0.09980  0.13800  0.65200  1.0000
  O   O14       1.0  0.50000  0.95300  0.75000  1.0000
  O   O15       1.0  0.90000  0.13800  0.84800  1.0000
  O   O16       1.0  0.41800  0.42300  0.85600  1.0000
  O   O17       1.0  0.77400  0.59300  0.94400  1.0000
  O   O18       1.0  0.32700  0.90500  0.96300  1.0000
  V   V1        1.0  0.43200  0.24800  0.05030  1.0000
  V   V2        1.0  0.30500  0.75400  0.15200  1.0000
  V   V3        1.0  0.69500  0.75400  0.34800  1.0000
  V   V4        1.0  0.56800  0.24800  0.45000  1.0000
  V   V5        1.0  0.43200  0.75200  0.55000  1.0000
  V   V6        1.0  0.30500  0.24600  0.65200  1.0000
  V   V7        1.0  0.69500  0.24600  0.84800  1.0000
  V   V8        1.0  0.56800  0.75200  0.95000  1.0000
