data_image0
_chemical_formula_structural       Ag2I6O18Pd2
_chemical_formula_sum              "Ag2 I6 O18 Pd2"
_cell_length_a       7.18629
_cell_length_b       7.8619
_cell_length_c       8.47958
_cell_angle_alpha    63.4954
_cell_angle_beta     76.2315
_cell_angle_gamma    82.1198

_space_group_name_H-M_alt    "P 1"
_space_group_IT_number       1

loop_
  _space_group_symop_operation_xyz
  'x, y, z'

loop_
  _atom_site_type_symbol
  _atom_site_label
  _atom_site_symmetry_multiplicity
  _atom_site_fract_x
  _atom_site_fract_y
  _atom_site_fract_z
  _atom_site_occupancy
  Ag  Ag1       1.0  0.31100  0.17400  0.16000  1.0000
  Ag  Ag2       1.0  0.68900  0.82600  0.84000  1.0000
  I   I1        1.0  0.30300  0.70600  0.21900  1.0000
  I   I2        1.0  0.75200  0.36300  0.23000  1.0000
  I   I3        1.0  0.71400  0.79200  0.40200  1.0000
  I   I4        1.0  0.28600  0.20800  0.59800  1.0000
  I   I5        1.0  0.24800  0.63700  0.77000  1.0000
  I   I6        1.0  0.69700  0.29400  0.78100  1.0000
  O   O1        1.0  0.28500  0.93300  0.00937  1.0000
  O   O2        1.0  0.21300  0.55400  0.01210  1.0000
  O   O3        1.0  0.56100  0.66000  0.14400  1.0000
  O   O4        1.0  0.92100  0.76600  0.22800  1.0000
  O   O5        1.0  0.90600  0.13300  0.26400  1.0000
  O   O6        1.0  0.52400  0.23600  0.31900  1.0000
  O   O7        1.0  0.33400  0.83400  0.34700  1.0000
  O   O8        1.0  0.13200  0.23900  0.43600  1.0000
  O   O9        1.0  0.67800  0.53900  0.49300  1.0000
  O   O10       1.0  0.32200  0.46100  0.50700  1.0000
  O   O11       1.0  0.86800  0.76100  0.56400  1.0000
  O   O12       1.0  0.66600  0.16600  0.65300  1.0000
  O   O13       1.0  0.47600  0.76400  0.68100  1.0000
  O   O14       1.0  0.09380  0.86700  0.73600  1.0000
  O   O15       1.0  0.07860  0.23400  0.77200  1.0000
  O   O16       1.0  0.43900  0.34000  0.85600  1.0000
  O   O17       1.0  0.78700  0.44600  0.98800  1.0000
  O   O18       1.0  0.71500  0.06700  0.99100  1.0000
  Pd  Pd1       1.0  0.00000  0.00000  0.00000  1.0000
  Pd  Pd2       1.0  0.00000  0.00000  0.50000  1.0000
