data_image0
_chemical_formula_structural       Be4F16Tl8
_chemical_formula_sum              "Be4 F16 Tl8"
_cell_length_a       7.56401
_cell_length_b       5.70378
_cell_length_c       10.1198
_cell_angle_alpha    90
_cell_angle_beta     90
_cell_angle_gamma    90

_space_group_name_H-M_alt    "P 1"
_space_group_IT_number       1

loop_
  _space_group_symop_operation_xyz
  'x, y, z'

loop_
  _atom_site_type_symbol
  _atom_site_label
  _atom_site_symmetry_multiplicity
  _atom_site_fract_x
  _atom_site_fract_y
  _atom_site_fract_z
  _atom_site_occupancy
  Be  Be1       1.0  0.74000  0.25000  0.08160  1.0000
  Be  Be2       1.0  0.24000  0.25000  0.41800  1.0000
  Be  Be3       1.0  0.76000  0.75000  0.58200  1.0000
  Be  Be4       1.0  0.26000  0.75000  0.91800  1.0000
  F   F1        1.0  0.19600  0.75000  0.06580  1.0000
  F   F2        1.0  0.53500  0.25000  0.09220  1.0000
  F   F3        1.0  0.81800  0.02680  0.14800  1.0000
  F   F4        1.0  0.81800  0.47300  0.14800  1.0000
  F   F5        1.0  0.31800  0.02680  0.35200  1.0000
  F   F6        1.0  0.31800  0.47300  0.35200  1.0000
  F   F7        1.0  0.03480  0.25000  0.40800  1.0000
  F   F8        1.0  0.69600  0.75000  0.43400  1.0000
  F   F9        1.0  0.30400  0.25000  0.56600  1.0000
  F   F10       1.0  0.96500  0.75000  0.59200  1.0000
  F   F11       1.0  0.68200  0.52700  0.64800  1.0000
  F   F12       1.0  0.68200  0.97300  0.64800  1.0000
  F   F13       1.0  0.18200  0.52700  0.85200  1.0000
  F   F14       1.0  0.18200  0.97300  0.85200  1.0000
  F   F15       1.0  0.46500  0.75000  0.90800  1.0000
  F   F16       1.0  0.80400  0.25000  0.93400  1.0000
  Tl  Tl1       1.0  0.16400  0.25000  0.09500  1.0000
  Tl  Tl2       1.0  0.51700  0.75000  0.18900  1.0000
  Tl  Tl3       1.0  0.01720  0.75000  0.31100  1.0000
  Tl  Tl4       1.0  0.66400  0.25000  0.40500  1.0000
  Tl  Tl5       1.0  0.33600  0.75000  0.59500  1.0000
  Tl  Tl6       1.0  0.98300  0.25000  0.68900  1.0000
  Tl  Tl7       1.0  0.48300  0.25000  0.81100  1.0000
  Tl  Tl8       1.0  0.83600  0.75000  0.90500  1.0000
