data_image0
_chemical_formula_structural       Au2F22U4
_chemical_formula_sum              "Au2 F22 U4"
_cell_length_a       6.16441
_cell_length_b       8.31404
_cell_length_c       8.31404
_cell_angle_alpha    97.8995
_cell_angle_beta     68.2398
_cell_angle_gamma    111.76

_space_group_name_H-M_alt    "P 1"
_space_group_IT_number       1

loop_
  _space_group_symop_operation_xyz
  'x, y, z'

loop_
  _atom_site_type_symbol
  _atom_site_label
  _atom_site_symmetry_multiplicity
  _atom_site_fract_x
  _atom_site_fract_y
  _atom_site_fract_z
  _atom_site_occupancy
  Au  Au1       1.0  0.00000  0.00000  0.00000  1.0000
  Au  Au2       1.0  0.50000  0.00000  0.00000  1.0000
  F   F1        1.0  0.00000  0.50000  0.00000  1.0000
  F   F2        1.0  0.50000  0.50000  0.00000  1.0000
  F   F3        1.0  0.11000  0.26900  0.04840  1.0000
  F   F4        1.0  0.34200  0.73100  0.04840  1.0000
  F   F5        1.0  0.39000  0.04840  0.26900  1.0000
  F   F6        1.0  0.84200  0.95200  0.26900  1.0000
  F   F7        1.0  0.43700  0.68700  0.31300  1.0000
  F   F8        1.0  0.93700  0.68700  0.31300  1.0000
  F   F9        1.0  0.25000  0.31300  0.31300  1.0000
  F   F10       1.0  0.75000  0.31300  0.31300  1.0000
  F   F11       1.0  0.00000  0.00000  0.50000  1.0000
  F   F12       1.0  0.50000  0.00000  0.50000  1.0000
  F   F13       1.0  0.00000  0.50000  0.50000  1.0000
  F   F14       1.0  0.50000  0.50000  0.50000  1.0000
  F   F15       1.0  0.06340  0.31300  0.68700  1.0000
  F   F16       1.0  0.56300  0.31300  0.68700  1.0000
  F   F17       1.0  0.25000  0.68700  0.68700  1.0000
  F   F18       1.0  0.75000  0.68700  0.68700  1.0000
  F   F19       1.0  0.15800  0.04840  0.73100  1.0000
  F   F20       1.0  0.61000  0.95200  0.73100  1.0000
  F   F21       1.0  0.65800  0.26900  0.95200  1.0000
  F   F22       1.0  0.89000  0.73100  0.95200  1.0000
  U   U1        1.0  0.14600  0.50000  0.20700  1.0000
  U   U2        1.0  0.64600  0.79300  0.50000  1.0000
  U   U3        1.0  0.35400  0.20700  0.50000  1.0000
  U   U4        1.0  0.85400  0.50000  0.79300  1.0000
