data_image0
_chemical_formula_structural       Fe4Na12O12
_chemical_formula_sum              "Fe4 Na12 O12"
_cell_length_a       6.12006
_cell_length_b       8.46259
_cell_length_c       8.46259
_cell_angle_alpha    102.371
_cell_angle_beta     110.613
_cell_angle_gamma    69.3865

_space_group_name_H-M_alt    "P 1"
_space_group_IT_number       1

loop_
  _space_group_symop_operation_xyz
  'x, y, z'

loop_
  _atom_site_type_symbol
  _atom_site_label
  _atom_site_symmetry_multiplicity
  _atom_site_fract_x
  _atom_site_fract_y
  _atom_site_fract_z
  _atom_site_occupancy
  Fe  Fe1       1.0  0.45500  0.35400  0.12400  1.0000
  Fe  Fe2       1.0  0.03390  0.12200  0.40100  1.0000
  Fe  Fe3       1.0  0.95500  0.87600  0.64600  1.0000
  Fe  Fe4       1.0  0.53400  0.59900  0.87800  1.0000
  Na  Na1       1.0  0.72300  0.01910  0.03680  1.0000
  Na  Na2       1.0  0.01580  0.35300  0.17400  1.0000
  Na  Na3       1.0  0.46600  0.72200  0.22900  1.0000
  Na  Na4       1.0  0.96600  0.77100  0.27800  1.0000
  Na  Na5       1.0  0.50300  0.06030  0.36400  1.0000
  Na  Na6       1.0  0.44500  0.44000  0.47900  1.0000
  Na  Na7       1.0  0.94500  0.52100  0.56000  1.0000
  Na  Na8       1.0  0.51600  0.82600  0.64700  1.0000
  Na  Na9       1.0  0.38300  0.20800  0.74900  1.0000
  Na  Na10      1.0  0.88300  0.25100  0.79200  1.0000
  Na  Na11      1.0  0.00338  0.63600  0.94000  1.0000
  Na  Na12      1.0  0.22300  0.96300  0.98100  1.0000
  O   O1        1.0  0.63100  0.77400  0.03200  1.0000
  O   O2        1.0  0.25100  0.54400  0.21300  1.0000
  O   O3        1.0  0.13100  0.96800  0.22600  1.0000
  O   O4        1.0  0.68900  0.23100  0.31400  1.0000
  O   O5        1.0  0.75100  0.78700  0.45600  1.0000
  O   O6        1.0  0.20600  0.28200  0.46700  1.0000
  O   O7        1.0  0.12000  0.00904  0.60000  1.0000
  O   O8        1.0  0.70600  0.53300  0.71800  1.0000
  O   O9        1.0  0.18900  0.68600  0.76900  1.0000
  O   O10       1.0  0.76900  0.01300  0.78300  1.0000
  O   O11       1.0  0.26900  0.21700  0.98700  1.0000
  O   O12       1.0  0.62000  0.40000  0.99100  1.0000
