data_image0
_chemical_formula_structural       Au8Ce4In16
_chemical_formula_sum              "Au8 Ce4 In16"
_cell_length_a       18.7497
_cell_length_b       4.71631
_cell_length_c       7.4727
_cell_angle_alpha    90
_cell_angle_beta     90
_cell_angle_gamma    90

_space_group_name_H-M_alt    "P 1"
_space_group_IT_number       1

loop_
  _space_group_symop_operation_xyz
  'x, y, z'

loop_
  _atom_site_type_symbol
  _atom_site_label
  _atom_site_symmetry_multiplicity
  _atom_site_fract_x
  _atom_site_fract_y
  _atom_site_fract_z
  _atom_site_occupancy
  Au  Au1       1.0  0.28200  0.75000  0.03140  1.0000
  Au  Au2       1.0  0.03800  0.75000  0.24300  1.0000
  Au  Au3       1.0  0.53800  0.75000  0.25700  1.0000
  Au  Au4       1.0  0.78200  0.75000  0.46900  1.0000
  Au  Au5       1.0  0.21800  0.25000  0.53100  1.0000
  Au  Au6       1.0  0.46200  0.25000  0.74300  1.0000
  Au  Au7       1.0  0.96200  0.25000  0.75700  1.0000
  Au  Au8       1.0  0.71800  0.25000  0.96900  1.0000
  Ce  Ce1       1.0  0.14100  0.25000  0.02100  1.0000
  Ce  Ce2       1.0  0.64100  0.25000  0.47900  1.0000
  Ce  Ce3       1.0  0.35900  0.75000  0.52100  1.0000
  Ce  Ce4       1.0  0.85900  0.75000  0.97900  1.0000
  In  In1       1.0  0.56800  0.25000  0.01270  1.0000
  In  In2       1.0  0.96500  0.25000  0.14600  1.0000
  In  In3       1.0  0.68400  0.75000  0.17700  1.0000
  In  In4       1.0  0.31100  0.25000  0.23200  1.0000
  In  In5       1.0  0.81100  0.25000  0.26800  1.0000
  In  In6       1.0  0.18400  0.75000  0.32300  1.0000
  In  In7       1.0  0.46500  0.25000  0.35400  1.0000
  In  In8       1.0  0.06750  0.25000  0.48700  1.0000
  In  In9       1.0  0.93200  0.75000  0.51300  1.0000
  In  In10      1.0  0.53500  0.75000  0.64600  1.0000
  In  In11      1.0  0.81600  0.25000  0.67700  1.0000
  In  In12      1.0  0.18900  0.75000  0.73200  1.0000
  In  In13      1.0  0.68900  0.75000  0.76800  1.0000
  In  In14      1.0  0.31600  0.25000  0.82300  1.0000
  In  In15      1.0  0.03490  0.75000  0.85400  1.0000
  In  In16      1.0  0.43200  0.75000  0.98700  1.0000
