data_image0
_chemical_formula_structural       F20In6Rb2
_chemical_formula_sum              "F20 In6 Rb2"
_cell_length_a       7.76142
_cell_length_b       6.35065
_cell_length_c       7.84418
_cell_angle_alpha    90
_cell_angle_beta     90
_cell_angle_gamma    90

_space_group_name_H-M_alt    "P 1"
_space_group_IT_number       1

loop_
  _space_group_symop_operation_xyz
  'x, y, z'

loop_
  _atom_site_type_symbol
  _atom_site_label
  _atom_site_symmetry_multiplicity
  _atom_site_fract_x
  _atom_site_fract_y
  _atom_site_fract_z
  _atom_site_occupancy
  F   F1        1.0  0.99800  0.50000  0.00000  1.0000
  F   F2        1.0  0.49800  0.31000  0.03230  1.0000
  F   F3        1.0  0.79700  0.18900  0.07940  1.0000
  F   F4        1.0  0.19900  0.19000  0.08010  1.0000
  F   F5        1.0  0.71400  0.61200  0.25000  1.0000
  F   F6        1.0  0.00000  0.87400  0.25000  1.0000
  F   F7        1.0  0.28600  0.61200  0.25000  1.0000
  F   F8        1.0  0.80100  0.19000  0.42000  1.0000
  F   F9        1.0  0.20300  0.18900  0.42100  1.0000
  F   F10       1.0  0.50200  0.31000  0.46800  1.0000
  F   F11       1.0  0.00168  0.50000  0.50000  1.0000
  F   F12       1.0  0.50200  0.69000  0.53200  1.0000
  F   F13       1.0  0.20300  0.81100  0.57900  1.0000
  F   F14       1.0  0.80100  0.81000  0.58000  1.0000
  F   F15       1.0  0.28600  0.38800  0.75000  1.0000
  F   F16       1.0  0.00000  0.12600  0.75000  1.0000
  F   F17       1.0  0.71400  0.38800  0.75000  1.0000
  F   F18       1.0  0.19900  0.81000  0.92000  1.0000
  F   F19       1.0  0.79700  0.81100  0.92100  1.0000
  F   F20       1.0  0.49800  0.69000  0.96800  1.0000
  In  In1       1.0  0.99900  0.00000  0.00000  1.0000
  In  In2       1.0  0.27000  0.50000  0.00000  1.0000
  In  In3       1.0  0.72600  0.50000  0.00000  1.0000
  In  In4       1.0  0.00149  0.00000  0.50000  1.0000
  In  In5       1.0  0.27400  0.50000  0.50000  1.0000
  In  In6       1.0  0.73000  0.50000  0.50000  1.0000
  Rb  Rb1       1.0  0.50000  0.98000  0.25000  1.0000
  Rb  Rb2       1.0  0.50000  0.01990  0.75000  1.0000
