data_image0
_chemical_formula_structural       Fe6O12Rb10
_chemical_formula_sum              "Fe6 O12 Rb10"
_cell_length_a       8.6601
_cell_length_b       8.6601
_cell_length_c       9.60206
_cell_angle_alpha    116.805
_cell_angle_beta     116.805
_cell_angle_gamma    90

_space_group_name_H-M_alt    "P 1"
_space_group_IT_number       1

loop_
  _space_group_symop_operation_xyz
  'x, y, z'

loop_
  _atom_site_type_symbol
  _atom_site_label
  _atom_site_symmetry_multiplicity
  _atom_site_fract_x
  _atom_site_fract_y
  _atom_site_fract_z
  _atom_site_occupancy
  Fe  Fe1       1.0  0.50000  0.50000  0.00000  1.0000
  Fe  Fe2       1.0  0.36500  0.37500  0.25000  1.0000
  Fe  Fe3       1.0  0.88500  0.87500  0.25000  1.0000
  Fe  Fe4       1.0  0.75000  0.25000  0.50000  1.0000
  Fe  Fe5       1.0  0.62500  0.11500  0.75000  1.0000
  Fe  Fe6       1.0  0.12500  0.63500  0.75000  1.0000
  O   O1        1.0  0.41300  0.50500  0.15000  1.0000
  O   O2        1.0  0.73800  0.64600  0.15000  1.0000
  O   O3        1.0  0.15100  0.37500  0.25000  1.0000
  O   O4        1.0  0.09940  0.87500  0.25000  1.0000
  O   O5        1.0  0.83700  0.10400  0.35000  1.0000
  O   O6        1.0  0.51200  0.24500  0.35000  1.0000
  O   O7        1.0  0.75500  0.16300  0.65000  1.0000
  O   O8        1.0  0.89600  0.48800  0.65000  1.0000
  O   O9        1.0  0.12500  0.84900  0.75000  1.0000
  O   O10       1.0  0.62500  0.90100  0.75000  1.0000
  O   O11       1.0  0.49500  0.26200  0.85000  1.0000
  O   O12       1.0  0.35400  0.58700  0.85000  1.0000
  Rb  Rb1       1.0  0.00000  0.00000  0.00000  1.0000
  Rb  Rb2       1.0  0.00523  0.50500  0.01050  1.0000
  Rb  Rb3       1.0  0.83900  0.37500  0.25000  1.0000
  Rb  Rb4       1.0  0.41100  0.87500  0.25000  1.0000
  Rb  Rb5       1.0  0.24500  0.24500  0.49000  1.0000
  Rb  Rb6       1.0  0.25000  0.75000  0.50000  1.0000
  Rb  Rb7       1.0  0.75500  0.75500  0.51000  1.0000
  Rb  Rb8       1.0  0.12500  0.16100  0.75000  1.0000
  Rb  Rb9       1.0  0.62500  0.58900  0.75000  1.0000
  Rb  Rb10      1.0  0.49500  0.99500  0.99000  1.0000
