data_image0
_chemical_formula_structural       B8O16Sr4
_chemical_formula_sum              "B8 O16 Sr4"
_cell_length_a       12.0026
_cell_length_b       4.34506
_cell_length_c       6.47404
_cell_angle_alpha    90
_cell_angle_beta     90
_cell_angle_gamma    90

_space_group_name_H-M_alt    "P 1"
_space_group_IT_number       1

loop_
  _space_group_symop_operation_xyz
  'x, y, z'

loop_
  _atom_site_type_symbol
  _atom_site_label
  _atom_site_symmetry_multiplicity
  _atom_site_fract_x
  _atom_site_fract_y
  _atom_site_fract_z
  _atom_site_occupancy
  B   B1        1.0  0.30600  0.17000  0.12600  1.0000
  B   B2        1.0  0.19400  0.67000  0.12600  1.0000
  B   B3        1.0  0.69400  0.17000  0.37400  1.0000
  B   B4        1.0  0.80600  0.67000  0.37400  1.0000
  B   B5        1.0  0.19400  0.33000  0.62600  1.0000
  B   B6        1.0  0.30600  0.83000  0.62600  1.0000
  B   B7        1.0  0.80600  0.33000  0.87400  1.0000
  B   B8        1.0  0.69400  0.83000  0.87400  1.0000
  O   O1        1.0  0.41000  0.26600  0.09570  1.0000
  O   O2        1.0  0.09000  0.76600  0.09570  1.0000
  O   O3        1.0  0.21000  0.35000  0.14700  1.0000
  O   O4        1.0  0.29000  0.85000  0.14700  1.0000
  O   O5        1.0  0.79000  0.35000  0.35300  1.0000
  O   O6        1.0  0.71000  0.85000  0.35300  1.0000
  O   O7        1.0  0.59000  0.26600  0.40400  1.0000
  O   O8        1.0  0.91000  0.76600  0.40400  1.0000
  O   O9        1.0  0.09000  0.23400  0.59600  1.0000
  O   O10       1.0  0.41000  0.73400  0.59600  1.0000
  O   O11       1.0  0.29000  0.15000  0.64700  1.0000
  O   O12       1.0  0.21000  0.65000  0.64700  1.0000
  O   O13       1.0  0.71000  0.15000  0.85300  1.0000
  O   O14       1.0  0.79000  0.65000  0.85300  1.0000
  O   O15       1.0  0.91000  0.23400  0.90400  1.0000
  O   O16       1.0  0.59000  0.73400  0.90400  1.0000
  Sr  Sr1       1.0  0.00000  0.24000  0.25000  1.0000
  Sr  Sr2       1.0  0.50000  0.74000  0.25000  1.0000
  Sr  Sr3       1.0  0.50000  0.26000  0.75000  1.0000
  Sr  Sr4       1.0  0.00000  0.76000  0.75000  1.0000
