data_image0
_chemical_formula_structural       P4Pb4S16Tl4
_chemical_formula_sum              "P4 Pb4 S16 Tl4"
_cell_length_a       12.5101
_cell_length_b       6.61679
_cell_length_c       8.83284
_cell_angle_alpha    90
_cell_angle_beta     90
_cell_angle_gamma    90

_space_group_name_H-M_alt    "P 1"
_space_group_IT_number       1

loop_
  _space_group_symop_operation_xyz
  'x, y, z'

loop_
  _atom_site_type_symbol
  _atom_site_label
  _atom_site_symmetry_multiplicity
  _atom_site_fract_x
  _atom_site_fract_y
  _atom_site_fract_z
  _atom_site_occupancy
  P   P1        1.0  0.65200  0.75000  0.12800  1.0000
  P   P2        1.0  0.15200  0.75000  0.37200  1.0000
  P   P3        1.0  0.84800  0.25000  0.62800  1.0000
  P   P4        1.0  0.34800  0.25000  0.87200  1.0000
  Pb  Pb1       1.0  0.37100  0.75000  0.10600  1.0000
  Pb  Pb2       1.0  0.87100  0.75000  0.39400  1.0000
  Pb  Pb3       1.0  0.12900  0.25000  0.60600  1.0000
  Pb  Pb4       1.0  0.62900  0.25000  0.89400  1.0000
  S   S1        1.0  0.43100  0.25000  0.07330  1.0000
  S   S2        1.0  0.75100  0.50300  0.13800  1.0000
  S   S3        1.0  0.75100  0.99700  0.13800  1.0000
  S   S4        1.0  0.04920  0.75000  0.19000  1.0000
  S   S5        1.0  0.54900  0.75000  0.31000  1.0000
  S   S6        1.0  0.25100  0.50300  0.36200  1.0000
  S   S7        1.0  0.25100  0.99700  0.36200  1.0000
  S   S8        1.0  0.93100  0.25000  0.42700  1.0000
  S   S9        1.0  0.06870  0.75000  0.57300  1.0000
  S   S10       1.0  0.74900  0.00273  0.63800  1.0000
  S   S11       1.0  0.74900  0.49700  0.63800  1.0000
  S   S12       1.0  0.45100  0.25000  0.69000  1.0000
  S   S13       1.0  0.95100  0.25000  0.81000  1.0000
  S   S14       1.0  0.24900  0.00273  0.86200  1.0000
  S   S15       1.0  0.24900  0.49700  0.86200  1.0000
  S   S16       1.0  0.56900  0.75000  0.92700  1.0000
  Tl  Tl1       1.0  0.11000  0.25000  0.12700  1.0000
  Tl  Tl2       1.0  0.61000  0.25000  0.37300  1.0000
  Tl  Tl3       1.0  0.39000  0.75000  0.62700  1.0000
  Tl  Tl4       1.0  0.89000  0.75000  0.87300  1.0000
