data_image0
_chemical_formula_structural       Eu12In4P12
_chemical_formula_sum              "Eu12 In4 P12"
_cell_length_a       12.5882
_cell_length_b       4.25496
_cell_length_c       13.5163
_cell_angle_alpha    90
_cell_angle_beta     90
_cell_angle_gamma    90

_space_group_name_H-M_alt    "P 1"
_space_group_IT_number       1

loop_
  _space_group_symop_operation_xyz
  'x, y, z'

loop_
  _atom_site_type_symbol
  _atom_site_label
  _atom_site_symmetry_multiplicity
  _atom_site_fract_x
  _atom_site_fract_y
  _atom_site_fract_z
  _atom_site_occupancy
  Eu  Eu1       1.0  0.35500  0.25000  0.00484  1.0000
  Eu  Eu2       1.0  0.07290  0.25000  0.10600  1.0000
  Eu  Eu3       1.0  0.77500  0.25000  0.20600  1.0000
  Eu  Eu4       1.0  0.27500  0.25000  0.29400  1.0000
  Eu  Eu5       1.0  0.57300  0.25000  0.39400  1.0000
  Eu  Eu6       1.0  0.85500  0.25000  0.49500  1.0000
  Eu  Eu7       1.0  0.14500  0.75000  0.50500  1.0000
  Eu  Eu8       1.0  0.42700  0.75000  0.60600  1.0000
  Eu  Eu9       1.0  0.72500  0.75000  0.70600  1.0000
  Eu  Eu10      1.0  0.22500  0.75000  0.79400  1.0000
  Eu  Eu11      1.0  0.92700  0.75000  0.89400  1.0000
  Eu  Eu12      1.0  0.64500  0.75000  0.99500  1.0000
  In  In1       1.0  0.44800  0.75000  0.20100  1.0000
  In  In2       1.0  0.94800  0.75000  0.29900  1.0000
  In  In3       1.0  0.05160  0.25000  0.70100  1.0000
  In  In4       1.0  0.55200  0.25000  0.79900  1.0000
  P   P1        1.0  0.90400  0.75000  0.11200  1.0000
  P   P2        1.0  0.25500  0.75000  0.12700  1.0000
  P   P3        1.0  0.55000  0.25000  0.13900  1.0000
  P   P4        1.0  0.04980  0.25000  0.36100  1.0000
  P   P5        1.0  0.75500  0.75000  0.37300  1.0000
  P   P6        1.0  0.40400  0.75000  0.38800  1.0000
  P   P7        1.0  0.59600  0.25000  0.61200  1.0000
  P   P8        1.0  0.24500  0.25000  0.62700  1.0000
  P   P9        1.0  0.95000  0.75000  0.63900  1.0000
  P   P10       1.0  0.45000  0.75000  0.86100  1.0000
  P   P11       1.0  0.74500  0.25000  0.87300  1.0000
  P   P12       1.0  0.09600  0.25000  0.88800  1.0000
