data_image0
_chemical_formula_structural       Cl18Cs6W4
_chemical_formula_sum              "Cl18 Cs6 W4"
_cell_length_a       7.41141
_cell_length_b       7.41093
_cell_length_c       17.9583
_cell_angle_alpha    90
_cell_angle_beta     90
_cell_angle_gamma    120.002

_space_group_name_H-M_alt    "P 1"
_space_group_IT_number       1

loop_
  _space_group_symop_operation_xyz
  'x, y, z'

loop_
  _atom_site_type_symbol
  _atom_site_label
  _atom_site_symmetry_multiplicity
  _atom_site_fract_x
  _atom_site_fract_y
  _atom_site_fract_z
  _atom_site_occupancy
  Cl  Cl1       1.0  0.35900  0.17900  0.09580  1.0000
  Cl  Cl2       1.0  0.82100  0.17900  0.09580  1.0000
  Cl  Cl3       1.0  0.82100  0.64100  0.09580  1.0000
  Cl  Cl4       1.0  0.50500  0.01050  0.25000  1.0000
  Cl  Cl5       1.0  0.50500  0.49500  0.25000  1.0000
  Cl  Cl6       1.0  0.98900  0.49500  0.25000  1.0000
  Cl  Cl7       1.0  0.82100  0.64100  0.40400  1.0000
  Cl  Cl8       1.0  0.35900  0.17900  0.40400  1.0000
  Cl  Cl9       1.0  0.82100  0.17900  0.40400  1.0000
  Cl  Cl10      1.0  0.17900  0.82100  0.59600  1.0000
  Cl  Cl11      1.0  0.64100  0.82100  0.59600  1.0000
  Cl  Cl12      1.0  0.17900  0.35900  0.59600  1.0000
  Cl  Cl13      1.0  0.01050  0.50500  0.75000  1.0000
  Cl  Cl14      1.0  0.49500  0.50500  0.75000  1.0000
  Cl  Cl15      1.0  0.49500  0.98900  0.75000  1.0000
  Cl  Cl16      1.0  0.17900  0.35900  0.90400  1.0000
  Cl  Cl17      1.0  0.17900  0.82100  0.90400  1.0000
  Cl  Cl18      1.0  0.64100  0.82100  0.90400  1.0000
  Cs  Cs1       1.0  0.33300  0.66700  0.07210  1.0000
  Cs  Cs2       1.0  0.00000  0.00000  0.25000  1.0000
  Cs  Cs3       1.0  0.33300  0.66700  0.42800  1.0000
  Cs  Cs4       1.0  0.66700  0.33300  0.57200  1.0000
  Cs  Cs5       1.0  0.00000  0.00000  0.75000  1.0000
  Cs  Cs6       1.0  0.66700  0.33300  0.92800  1.0000
  W   W1        1.0  0.66700  0.33300  0.17300  1.0000
  W   W2        1.0  0.66700  0.33300  0.32700  1.0000
  W   W3        1.0  0.33300  0.66700  0.67300  1.0000
  W   W4        1.0  0.33300  0.66700  0.82700  1.0000
