data_image0
_chemical_formula_structural       Bi4O18Si6
_chemical_formula_sum              "Bi4 O18 Si6"
_cell_length_a       6.79861
_cell_length_b       6.79861
_cell_length_c       9.4208
_cell_angle_alpha    90
_cell_angle_beta     90
_cell_angle_gamma    120

_space_group_name_H-M_alt    "P 1"
_space_group_IT_number       1

loop_
  _space_group_symop_operation_xyz
  'x, y, z'

loop_
  _atom_site_type_symbol
  _atom_site_label
  _atom_site_symmetry_multiplicity
  _atom_site_fract_x
  _atom_site_fract_y
  _atom_site_fract_z
  _atom_site_occupancy
  Bi  Bi1       1.0  0.33300  0.66700  0.03420  1.0000
  Bi  Bi2       1.0  0.33300  0.66700  0.46600  1.0000
  Bi  Bi3       1.0  0.66700  0.33300  0.53400  1.0000
  Bi  Bi4       1.0  0.66700  0.33300  0.96600  1.0000
  O   O1        1.0  0.41600  0.07530  0.10600  1.0000
  O   O2        1.0  0.65900  0.58400  0.10600  1.0000
  O   O3        1.0  0.92500  0.34100  0.10600  1.0000
  O   O4        1.0  0.19400  0.25100  0.25000  1.0000
  O   O5        1.0  0.05730  0.80600  0.25000  1.0000
  O   O6        1.0  0.74900  0.94300  0.25000  1.0000
  O   O7        1.0  0.92500  0.34100  0.39400  1.0000
  O   O8        1.0  0.65900  0.58400  0.39400  1.0000
  O   O9        1.0  0.41600  0.07530  0.39400  1.0000
  O   O10       1.0  0.58400  0.92500  0.60600  1.0000
  O   O11       1.0  0.34100  0.41600  0.60600  1.0000
  O   O12       1.0  0.07530  0.65900  0.60600  1.0000
  O   O13       1.0  0.25100  0.05730  0.75000  1.0000
  O   O14       1.0  0.94300  0.19400  0.75000  1.0000
  O   O15       1.0  0.80600  0.74900  0.75000  1.0000
  O   O16       1.0  0.07530  0.65900  0.89400  1.0000
  O   O17       1.0  0.34100  0.41600  0.89400  1.0000
  O   O18       1.0  0.58400  0.92500  0.89400  1.0000
  Si  Si1       1.0  0.28200  0.06610  0.25000  1.0000
  Si  Si2       1.0  0.93400  0.21600  0.25000  1.0000
  Si  Si3       1.0  0.78400  0.71800  0.25000  1.0000
  Si  Si4       1.0  0.21600  0.28200  0.75000  1.0000
  Si  Si5       1.0  0.06610  0.78400  0.75000  1.0000
  Si  Si6       1.0  0.71800  0.93400  0.75000  1.0000
