data_image0
_chemical_formula_structural       C12Na4O12
_chemical_formula_sum              "C12 Na4 O12"
_cell_length_a       6.8137
_cell_length_b       6.8137
_cell_length_c       8.12036
_cell_angle_alpha    106.217
_cell_angle_beta     106.217
_cell_angle_gamma    109.533

_space_group_name_H-M_alt    "P 1"
_space_group_IT_number       1

loop_
  _space_group_symop_operation_xyz
  'x, y, z'

loop_
  _atom_site_type_symbol
  _atom_site_label
  _atom_site_symmetry_multiplicity
  _atom_site_fract_x
  _atom_site_fract_y
  _atom_site_fract_z
  _atom_site_occupancy
  C   C1        1.0  0.02140  0.77100  0.04280  1.0000
  C   C2        1.0  0.90500  0.66900  0.14700  1.0000
  C   C3        1.0  0.24200  0.97800  0.14700  1.0000
  C   C4        1.0  0.33100  0.09490  0.35300  1.0000
  C   C5        1.0  0.02230  0.75800  0.35300  1.0000
  C   C6        1.0  0.22900  0.97900  0.45700  1.0000
  C   C7        1.0  0.77100  0.02140  0.54300  1.0000
  C   C8        1.0  0.97800  0.24200  0.64700  1.0000
  C   C9        1.0  0.66900  0.90500  0.64700  1.0000
  C   C10       1.0  0.75800  0.02230  0.85300  1.0000
  C   C11       1.0  0.09490  0.33100  0.85300  1.0000
  C   C12       1.0  0.97900  0.22900  0.95700  1.0000
  Na  Na1       1.0  0.77300  0.22700  0.25000  1.0000
  Na  Na2       1.0  0.47700  0.52300  0.25000  1.0000
  Na  Na3       1.0  0.52300  0.47700  0.75000  1.0000
  Na  Na4       1.0  0.22700  0.77300  0.75000  1.0000
  O   O1        1.0  0.34900  0.06200  0.06130  1.0000
  O   O2        1.0  0.71200  0.49900  0.06130  1.0000
  O   O3        1.0  0.06700  0.31700  0.13400  1.0000
  O   O4        1.0  0.68300  0.93300  0.36600  1.0000
  O   O5        1.0  0.50100  0.28800  0.43900  1.0000
  O   O6        1.0  0.93800  0.65100  0.43900  1.0000
  O   O7        1.0  0.06200  0.34900  0.56100  1.0000
  O   O8        1.0  0.49900  0.71200  0.56100  1.0000
  O   O9        1.0  0.31700  0.06700  0.63400  1.0000
  O   O10       1.0  0.93300  0.68300  0.86600  1.0000
  O   O11       1.0  0.28800  0.50100  0.93900  1.0000
  O   O12       1.0  0.65100  0.93800  0.93900  1.0000
