data_image0
_chemical_formula_structural       Ag4Mn4O16V4
_chemical_formula_sum              "Ag4 Mn4 O16 V4"
_cell_length_a       9.57905
_cell_length_b       6.80564
_cell_length_c       5.36733
_cell_angle_alpha    90
_cell_angle_beta     90
_cell_angle_gamma    90

_space_group_name_H-M_alt    "P 1"
_space_group_IT_number       1

loop_
  _space_group_symop_operation_xyz
  'x, y, z'

loop_
  _atom_site_type_symbol
  _atom_site_label
  _atom_site_symmetry_multiplicity
  _atom_site_fract_x
  _atom_site_fract_y
  _atom_site_fract_z
  _atom_site_occupancy
  Ag  Ag1       1.0  0.34900  0.25000  0.00712  1.0000
  Ag  Ag2       1.0  0.84900  0.25000  0.49300  1.0000
  Ag  Ag3       1.0  0.15100  0.75000  0.50700  1.0000
  Ag  Ag4       1.0  0.65100  0.75000  0.99300  1.0000
  Mn  Mn1       1.0  0.00000  0.00000  0.00000  1.0000
  Mn  Mn2       1.0  0.00000  0.50000  0.00000  1.0000
  Mn  Mn3       1.0  0.50000  0.00000  0.50000  1.0000
  Mn  Mn4       1.0  0.50000  0.50000  0.50000  1.0000
  O   O1        1.0  0.86400  0.25000  0.05710  1.0000
  O   O2        1.0  0.61500  0.04930  0.17400  1.0000
  O   O3        1.0  0.61500  0.45100  0.17400  1.0000
  O   O4        1.0  0.88200  0.75000  0.20400  1.0000
  O   O5        1.0  0.38200  0.75000  0.29600  1.0000
  O   O6        1.0  0.11500  0.04930  0.32600  1.0000
  O   O7        1.0  0.11500  0.45100  0.32600  1.0000
  O   O8        1.0  0.36400  0.25000  0.44300  1.0000
  O   O9        1.0  0.63600  0.75000  0.55700  1.0000
  O   O10       1.0  0.88500  0.54900  0.67400  1.0000
  O   O11       1.0  0.88500  0.95100  0.67400  1.0000
  O   O12       1.0  0.61800  0.25000  0.70400  1.0000
  O   O13       1.0  0.11800  0.25000  0.79600  1.0000
  O   O14       1.0  0.38500  0.54900  0.82600  1.0000
  O   O15       1.0  0.38500  0.95100  0.82600  1.0000
  O   O16       1.0  0.13600  0.75000  0.94300  1.0000
  V   V1        1.0  0.67800  0.25000  0.01470  1.0000
  V   V2        1.0  0.17800  0.25000  0.48500  1.0000
  V   V3        1.0  0.82200  0.75000  0.51500  1.0000
  V   V4        1.0  0.32200  0.75000  0.98500  1.0000
