data_image0
_chemical_formula_structural       Ge4Mn4O16Zn4
_chemical_formula_sum              "Ge4 Mn4 O16 Zn4"
_cell_length_a       10.6939
_cell_length_b       6.2318
_cell_length_c       4.98132
_cell_angle_alpha    90
_cell_angle_beta     90
_cell_angle_gamma    90

_space_group_name_H-M_alt    "P 1"
_space_group_IT_number       1

loop_
  _space_group_symop_operation_xyz
  'x, y, z'

loop_
  _atom_site_type_symbol
  _atom_site_label
  _atom_site_symmetry_multiplicity
  _atom_site_fract_x
  _atom_site_fract_y
  _atom_site_fract_z
  _atom_site_occupancy
  Ge  Ge1       1.0  0.59500  0.25000  0.06260  1.0000
  Ge  Ge2       1.0  0.09500  0.25000  0.43700  1.0000
  Ge  Ge3       1.0  0.90500  0.75000  0.56300  1.0000
  Ge  Ge4       1.0  0.40500  0.75000  0.93700  1.0000
  Mn  Mn1       1.0  0.72100  0.75000  0.01120  1.0000
  Mn  Mn2       1.0  0.22100  0.75000  0.48900  1.0000
  Mn  Mn3       1.0  0.77900  0.25000  0.51100  1.0000
  Mn  Mn4       1.0  0.27900  0.25000  0.98900  1.0000
  O   O1        1.0  0.90900  0.75000  0.21200  1.0000
  O   O2        1.0  0.44400  0.25000  0.22700  1.0000
  O   O3        1.0  0.66500  0.02400  0.23000  1.0000
  O   O4        1.0  0.66500  0.47600  0.23000  1.0000
  O   O5        1.0  0.16500  0.02400  0.27000  1.0000
  O   O6        1.0  0.16500  0.47600  0.27000  1.0000
  O   O7        1.0  0.94400  0.25000  0.27300  1.0000
  O   O8        1.0  0.40900  0.75000  0.28800  1.0000
  O   O9        1.0  0.59100  0.25000  0.71200  1.0000
  O   O10       1.0  0.05630  0.75000  0.72700  1.0000
  O   O11       1.0  0.83500  0.52400  0.73000  1.0000
  O   O12       1.0  0.83500  0.97600  0.73000  1.0000
  O   O13       1.0  0.33500  0.52400  0.77000  1.0000
  O   O14       1.0  0.33500  0.97600  0.77000  1.0000
  O   O15       1.0  0.55600  0.75000  0.77300  1.0000
  O   O16       1.0  0.09080  0.25000  0.78800  1.0000
  Zn  Zn1       1.0  0.00000  0.00000  0.00000  1.0000
  Zn  Zn2       1.0  0.00000  0.50000  0.00000  1.0000
  Zn  Zn3       1.0  0.50000  0.00000  0.50000  1.0000
  Zn  Zn4       1.0  0.50000  0.50000  0.50000  1.0000
