data_image0
_chemical_formula_structural       As4Cl2I2Pb8S12
_chemical_formula_sum              "As4 Cl2 I2 Pb8 S12"
_cell_length_a       11.7097
_cell_length_b       6.77045
_cell_length_c       9.65697
_cell_angle_alpha    90
_cell_angle_beta     90
_cell_angle_gamma    90

_space_group_name_H-M_alt    "P 1"
_space_group_IT_number       1

loop_
  _space_group_symop_operation_xyz
  'x, y, z'

loop_
  _atom_site_type_symbol
  _atom_site_label
  _atom_site_symmetry_multiplicity
  _atom_site_fract_x
  _atom_site_fract_y
  _atom_site_fract_z
  _atom_site_occupancy
  As  As1       1.0  0.83000  0.50000  0.05050  1.0000
  As  As2       1.0  0.33000  0.50000  0.47600  1.0000
  As  As3       1.0  0.17000  0.00000  0.55100  1.0000
  As  As4       1.0  0.67000  0.00000  0.97600  1.0000
  Cl  Cl1       1.0  0.28600  0.50000  0.12800  1.0000
  Cl  Cl2       1.0  0.71400  0.00000  0.62800  1.0000
  I   I1        1.0  0.79200  0.50000  0.41500  1.0000
  I   I2        1.0  0.20800  0.00000  0.91500  1.0000
  Pb  Pb1       1.0  0.37300  0.00000  0.21500  1.0000
  Pb  Pb2       1.0  0.57000  0.50000  0.23100  1.0000
  Pb  Pb3       1.0  0.08290  0.50000  0.28100  1.0000
  Pb  Pb4       1.0  0.87300  0.00000  0.31400  1.0000
  Pb  Pb5       1.0  0.62700  0.50000  0.71500  1.0000
  Pb  Pb6       1.0  0.43000  0.00000  0.73100  1.0000
  Pb  Pb7       1.0  0.91700  0.00000  0.78100  1.0000
  Pb  Pb8       1.0  0.12700  0.50000  0.81400  1.0000
  S   S1        1.0  0.95500  0.25000  0.09600  1.0000
  S   S2        1.0  0.95500  0.75000  0.09600  1.0000
  S   S3        1.0  0.64800  0.00000  0.20900  1.0000
  S   S4        1.0  0.14900  0.00000  0.31600  1.0000
  S   S5        1.0  0.45700  0.25200  0.42700  1.0000
  S   S6        1.0  0.45700  0.74800  0.42700  1.0000
  S   S7        1.0  0.04490  0.25000  0.59600  1.0000
  S   S8        1.0  0.04490  0.75000  0.59600  1.0000
  S   S9        1.0  0.35200  0.50000  0.70900  1.0000
  S   S10       1.0  0.85100  0.50000  0.81600  1.0000
  S   S11       1.0  0.54300  0.24800  0.92700  1.0000
  S   S12       1.0  0.54300  0.75200  0.92700  1.0000
