data_image0
_chemical_formula_structural       Br18K6Mo4
_chemical_formula_sum              "Br18 K6 Mo4"
_cell_length_a       7.60292
_cell_length_b       7.60309
_cell_length_c       18.3369
_cell_angle_alpha    90
_cell_angle_beta     90
_cell_angle_gamma    120

_space_group_name_H-M_alt    "P 1"
_space_group_IT_number       1

loop_
  _space_group_symop_operation_xyz
  'x, y, z'

loop_
  _atom_site_type_symbol
  _atom_site_label
  _atom_site_symmetry_multiplicity
  _atom_site_fract_x
  _atom_site_fract_y
  _atom_site_fract_z
  _atom_site_occupancy
  Br  Br1       1.0  0.12500  0.35000  0.09160  1.0000
  Br  Br2       1.0  0.22600  0.87500  0.09160  1.0000
  Br  Br3       1.0  0.65000  0.77400  0.09160  1.0000
  Br  Br4       1.0  0.44900  0.45200  0.25000  1.0000
  Br  Br5       1.0  0.00214  0.55100  0.25000  1.0000
  Br  Br6       1.0  0.54800  0.99800  0.25000  1.0000
  Br  Br7       1.0  0.65000  0.77400  0.40800  1.0000
  Br  Br8       1.0  0.12500  0.35000  0.40800  1.0000
  Br  Br9       1.0  0.22600  0.87500  0.40800  1.0000
  Br  Br10      1.0  0.87500  0.65000  0.59200  1.0000
  Br  Br11      1.0  0.77400  0.12500  0.59200  1.0000
  Br  Br12      1.0  0.35000  0.22600  0.59200  1.0000
  Br  Br13      1.0  0.45200  0.00214  0.75000  1.0000
  Br  Br14      1.0  0.99800  0.44900  0.75000  1.0000
  Br  Br15      1.0  0.55100  0.54800  0.75000  1.0000
  Br  Br16      1.0  0.35000  0.22600  0.90800  1.0000
  Br  Br17      1.0  0.77400  0.12500  0.90800  1.0000
  Br  Br18      1.0  0.87500  0.65000  0.90800  1.0000
  K   K1        1.0  0.66700  0.33300  0.05840  1.0000
  K   K2        1.0  0.00000  0.00000  0.25000  1.0000
  K   K3        1.0  0.66700  0.33300  0.44200  1.0000
  K   K4        1.0  0.33300  0.66700  0.55800  1.0000
  K   K5        1.0  0.00000  0.00000  0.75000  1.0000
  K   K6        1.0  0.33300  0.66700  0.94200  1.0000
  Mo  Mo1       1.0  0.33300  0.66700  0.17300  1.0000
  Mo  Mo2       1.0  0.33300  0.66700  0.32700  1.0000
  Mo  Mo3       1.0  0.66700  0.33300  0.67300  1.0000
  Mo  Mo4       1.0  0.66700  0.33300  0.82700  1.0000
