data_image0
_chemical_formula_structural       Ce2Co18Ge8
_chemical_formula_sum              "Ce2 Co18 Ge8"
_cell_length_a       7.91143
_cell_length_b       7.91143
_cell_length_c       8.14573
_cell_angle_alpha    119.053
_cell_angle_beta     119.053
_cell_angle_gamma    90

_space_group_name_H-M_alt    "P 1"
_space_group_IT_number       1

loop_
  _space_group_symop_operation_xyz
  'x, y, z'

loop_
  _atom_site_type_symbol
  _atom_site_label
  _atom_site_symmetry_multiplicity
  _atom_site_fract_x
  _atom_site_fract_y
  _atom_site_fract_z
  _atom_site_occupancy
  Ce  Ce1       1.0  0.25000  0.25000  0.50000  1.0000
  Ce  Ce2       1.0  0.75000  0.75000  0.50000  1.0000
  Co  Co1       1.0  0.50000  0.00000  0.00000  1.0000
  Co  Co2       1.0  0.80000  0.06590  0.00000  1.0000
  Co  Co3       1.0  0.06590  0.20000  0.00000  1.0000
  Co  Co4       1.0  0.56600  0.30000  0.00000  1.0000
  Co  Co5       1.0  0.30000  0.43400  0.00000  1.0000
  Co  Co6       1.0  0.00000  0.50000  0.00000  1.0000
  Co  Co7       1.0  0.70000  0.56600  0.00000  1.0000
  Co  Co8       1.0  0.43400  0.70000  0.00000  1.0000
  Co  Co9       1.0  0.93400  0.80000  0.00000  1.0000
  Co  Co10      1.0  0.20000  0.93400  0.00000  1.0000
  Co  Co11      1.0  0.55500  0.05500  0.35400  1.0000
  Co  Co12      1.0  0.79900  0.29900  0.35400  1.0000
  Co  Co13      1.0  0.29900  0.55500  0.35400  1.0000
  Co  Co14      1.0  0.05500  0.79900  0.35400  1.0000
  Co  Co15      1.0  0.94500  0.20100  0.64600  1.0000
  Co  Co16      1.0  0.70100  0.44500  0.64600  1.0000
  Co  Co17      1.0  0.20100  0.70100  0.64600  1.0000
  Co  Co18      1.0  0.44500  0.94500  0.64600  1.0000
  Ge  Ge1       1.0  0.45200  0.29900  0.25100  1.0000
  Ge  Ge2       1.0  0.95200  0.45200  0.25100  1.0000
  Ge  Ge3       1.0  0.29900  0.79900  0.25100  1.0000
  Ge  Ge4       1.0  0.79900  0.95200  0.25100  1.0000
  Ge  Ge5       1.0  0.20100  0.04770  0.74900  1.0000
  Ge  Ge6       1.0  0.70100  0.20100  0.74900  1.0000
  Ge  Ge7       1.0  0.04770  0.54800  0.74900  1.0000
  Ge  Ge8       1.0  0.54800  0.70100  0.74900  1.0000
