data_image0
_chemical_formula_structural       Cl8N8S8Te4
_chemical_formula_sum              "Cl8 N8 S8 Te4"
_cell_length_a       7.39703
_cell_length_b       9.03619
_cell_length_c       11.0285
_cell_angle_alpha    114.184
_cell_angle_beta     95.9074
_cell_angle_gamma    90

_space_group_name_H-M_alt    "P 1"
_space_group_IT_number       1

loop_
  _space_group_symop_operation_xyz
  'x, y, z'

loop_
  _atom_site_type_symbol
  _atom_site_label
  _atom_site_symmetry_multiplicity
  _atom_site_fract_x
  _atom_site_fract_y
  _atom_site_fract_z
  _atom_site_occupancy
  Cl  Cl1       1.0  0.49800  0.34500  0.07200  1.0000
  Cl  Cl2       1.0  0.99800  0.72700  0.07200  1.0000
  Cl  Cl3       1.0  0.91400  0.53000  0.31600  1.0000
  Cl  Cl4       1.0  0.41400  0.78500  0.31600  1.0000
  Cl  Cl5       1.0  0.08560  0.47000  0.68400  1.0000
  Cl  Cl6       1.0  0.58600  0.21500  0.68400  1.0000
  Cl  Cl7       1.0  0.50200  0.65500  0.92800  1.0000
  Cl  Cl8       1.0  0.00244  0.27300  0.92800  1.0000
  N   N1        1.0  0.21700  0.15000  0.30300  1.0000
  N   N2        1.0  0.71700  0.15200  0.30300  1.0000
  N   N3        1.0  0.33500  0.45200  0.37600  1.0000
  N   N4        1.0  0.83500  0.92400  0.37600  1.0000
  N   N5        1.0  0.16500  0.07640  0.62400  1.0000
  N   N6        1.0  0.66500  0.54800  0.62400  1.0000
  N   N7        1.0  0.28300  0.84800  0.69700  1.0000
  N   N8        1.0  0.78300  0.85000  0.69700  1.0000
  S   S1        1.0  0.62800  0.01110  0.16100  1.0000
  S   S2        1.0  0.12800  0.15000  0.16100  1.0000
  S   S3        1.0  0.32600  0.30400  0.41400  1.0000
  S   S4        1.0  0.82600  0.11000  0.41400  1.0000
  S   S5        1.0  0.17400  0.89000  0.58600  1.0000
  S   S6        1.0  0.67400  0.69600  0.58600  1.0000
  S   S7        1.0  0.37200  0.98900  0.83900  1.0000
  S   S8        1.0  0.87200  0.85000  0.83900  1.0000
  Te  Te1       1.0  0.20300  0.43800  0.20300  1.0000
  Te  Te2       1.0  0.70300  0.76500  0.20300  1.0000
  Te  Te3       1.0  0.29700  0.23500  0.79700  1.0000
  Te  Te4       1.0  0.79700  0.56200  0.79700  1.0000
