data_image0
_chemical_formula_structural       B2C8K2O16
_chemical_formula_sum              "B2 C8 K2 O16"
_cell_length_a       6.73955
_cell_length_b       6.73955
_cell_length_c       7.88063
_cell_angle_alpha    90
_cell_angle_beta     90
_cell_angle_gamma    108.643

_space_group_name_H-M_alt    "P 1"
_space_group_IT_number       1

loop_
  _space_group_symop_operation_xyz
  'x, y, z'

loop_
  _atom_site_type_symbol
  _atom_site_label
  _atom_site_symmetry_multiplicity
  _atom_site_fract_x
  _atom_site_fract_y
  _atom_site_fract_z
  _atom_site_occupancy
  B   B1        1.0  0.42900  0.57100  0.25000  1.0000
  B   B2        1.0  0.57100  0.42900  0.75000  1.0000
  C   C1        1.0  0.23200  0.76800  0.15300  1.0000
  C   C2        1.0  0.53000  0.27600  0.25000  1.0000
  C   C3        1.0  0.72400  0.47000  0.25000  1.0000
  C   C4        1.0  0.23200  0.76800  0.34700  1.0000
  C   C5        1.0  0.76800  0.23200  0.65300  1.0000
  C   C6        1.0  0.27600  0.53000  0.75000  1.0000
  C   C7        1.0  0.47000  0.72400  0.75000  1.0000
  C   C8        1.0  0.76800  0.23200  0.84700  1.0000
  K   K1        1.0  0.93300  0.06720  0.25000  1.0000
  K   K2        1.0  0.06720  0.93300  0.75000  1.0000
  O   O1        1.0  0.14200  0.85800  0.06280  1.0000
  O   O2        1.0  0.34800  0.65200  0.10000  1.0000
  O   O3        1.0  0.53500  0.09710  0.25000  1.0000
  O   O4        1.0  0.36100  0.33800  0.25000  1.0000
  O   O5        1.0  0.90300  0.46500  0.25000  1.0000
  O   O6        1.0  0.66200  0.63900  0.25000  1.0000
  O   O7        1.0  0.34800  0.65200  0.40000  1.0000
  O   O8        1.0  0.14200  0.85800  0.43700  1.0000
  O   O9        1.0  0.85800  0.14200  0.56300  1.0000
  O   O10       1.0  0.65200  0.34800  0.60000  1.0000
  O   O11       1.0  0.33800  0.36100  0.75000  1.0000
  O   O12       1.0  0.09710  0.53500  0.75000  1.0000
  O   O13       1.0  0.63900  0.66200  0.75000  1.0000
  O   O14       1.0  0.46500  0.90300  0.75000  1.0000
  O   O15       1.0  0.65200  0.34800  0.90000  1.0000
  O   O16       1.0  0.85800  0.14200  0.93700  1.0000
