data_image0
_chemical_formula_structural       Ba8Fe4O16
_chemical_formula_sum              "Ba8 Fe4 O16"
_cell_length_a       6.07191
_cell_length_b       7.67124
_cell_length_c       10.1221
_cell_angle_alpha    90
_cell_angle_beta     93.2128
_cell_angle_gamma    90

_space_group_name_H-M_alt    "P 1"
_space_group_IT_number       1

loop_
  _space_group_symop_operation_xyz
  'x, y, z'

loop_
  _atom_site_type_symbol
  _atom_site_label
  _atom_site_symmetry_multiplicity
  _atom_site_fract_x
  _atom_site_fract_y
  _atom_site_fract_z
  _atom_site_occupancy
  Ba  Ba1       1.0  0.75500  0.85100  0.08130  1.0000
  Ba  Ba2       1.0  0.22700  0.50500  0.19300  1.0000
  Ba  Ba3       1.0  0.27300  0.00471  0.30700  1.0000
  Ba  Ba4       1.0  0.74500  0.35100  0.41900  1.0000
  Ba  Ba5       1.0  0.25500  0.64900  0.58100  1.0000
  Ba  Ba6       1.0  0.72700  0.99500  0.69300  1.0000
  Ba  Ba7       1.0  0.77300  0.49500  0.80700  1.0000
  Ba  Ba8       1.0  0.24500  0.14900  0.91900  1.0000
  Fe  Fe1       1.0  0.74500  0.27800  0.08270  1.0000
  Fe  Fe2       1.0  0.75500  0.77800  0.41700  1.0000
  Fe  Fe3       1.0  0.24500  0.22200  0.58300  1.0000
  Fe  Fe4       1.0  0.25500  0.72200  0.91700  1.0000
  O   O1        1.0  0.30200  0.83400  0.07410  1.0000
  O   O2        1.0  0.78300  0.50800  0.10300  1.0000
  O   O3        1.0  0.00682  0.18800  0.13500  1.0000
  O   O4        1.0  0.49300  0.23300  0.15900  1.0000
  O   O5        1.0  0.00701  0.73300  0.34100  1.0000
  O   O6        1.0  0.49300  0.68800  0.36500  1.0000
  O   O7        1.0  0.71700  0.00778  0.39700  1.0000
  O   O8        1.0  0.19800  0.33400  0.42600  1.0000
  O   O9        1.0  0.80200  0.66600  0.57400  1.0000
  O   O10       1.0  0.28300  0.99200  0.60300  1.0000
  O   O11       1.0  0.50700  0.31200  0.63500  1.0000
  O   O12       1.0  0.99300  0.26700  0.65900  1.0000
  O   O13       1.0  0.50700  0.76700  0.84100  1.0000
  O   O14       1.0  0.99300  0.81200  0.86500  1.0000
  O   O15       1.0  0.21700  0.49200  0.89700  1.0000
  O   O16       1.0  0.69800  0.16600  0.92600  1.0000
