data_image0
_chemical_formula_structural       Eu4K4P4S16
_chemical_formula_sum              "Eu4 K4 P4 S16"
_cell_length_a       16.8927
_cell_length_b       6.58951
_cell_length_c       6.44996
_cell_angle_alpha    90
_cell_angle_beta     90
_cell_angle_gamma    90

_space_group_name_H-M_alt    "P 1"
_space_group_IT_number       1

loop_
  _space_group_symop_operation_xyz
  'x, y, z'

loop_
  _atom_site_type_symbol
  _atom_site_label
  _atom_site_symmetry_multiplicity
  _atom_site_fract_x
  _atom_site_fract_y
  _atom_site_fract_z
  _atom_site_occupancy
  Eu  Eu1       1.0  0.97800  0.25000  0.20700  1.0000
  Eu  Eu2       1.0  0.47800  0.25000  0.29300  1.0000
  Eu  Eu3       1.0  0.52200  0.75000  0.70700  1.0000
  Eu  Eu4       1.0  0.02210  0.75000  0.79300  1.0000
  K   K1        1.0  0.71200  0.25000  0.01990  1.0000
  K   K2        1.0  0.21200  0.25000  0.48000  1.0000
  K   K3        1.0  0.78800  0.75000  0.52000  1.0000
  K   K4        1.0  0.28800  0.75000  0.98000  1.0000
  P   P1        1.0  0.59600  0.75000  0.22000  1.0000
  P   P2        1.0  0.09550  0.75000  0.28000  1.0000
  P   P3        1.0  0.90400  0.25000  0.72000  1.0000
  P   P4        1.0  0.40400  0.25000  0.78000  1.0000
  S   S1        1.0  0.33500  0.25000  0.03700  1.0000
  S   S2        1.0  0.11800  0.50200  0.09710  1.0000
  S   S3        1.0  0.11800  0.99800  0.09710  1.0000
  S   S4        1.0  0.47700  0.75000  0.15100  1.0000
  S   S5        1.0  0.97700  0.75000  0.34900  1.0000
  S   S6        1.0  0.61800  0.50200  0.40300  1.0000
  S   S7        1.0  0.61800  0.99800  0.40300  1.0000
  S   S8        1.0  0.83500  0.25000  0.46300  1.0000
  S   S9        1.0  0.16500  0.75000  0.53700  1.0000
  S   S10       1.0  0.38200  0.00159  0.59700  1.0000
  S   S11       1.0  0.38200  0.49800  0.59700  1.0000
  S   S12       1.0  0.02340  0.25000  0.65100  1.0000
  S   S13       1.0  0.52300  0.25000  0.84900  1.0000
  S   S14       1.0  0.88200  0.00159  0.90300  1.0000
  S   S15       1.0  0.88200  0.49800  0.90300  1.0000
  S   S16       1.0  0.66500  0.75000  0.96300  1.0000
