data_image0
_chemical_formula_structural       Bi4Ga8S16
_chemical_formula_sum              "Bi4 Ga8 S16"
_cell_length_a       7.57702
_cell_length_b       7.57702
_cell_length_c       12.1812
_cell_angle_alpha    90
_cell_angle_beta     90
_cell_angle_gamma    90

_space_group_name_H-M_alt    "P 1"
_space_group_IT_number       1

loop_
  _space_group_symop_operation_xyz
  'x, y, z'

loop_
  _atom_site_type_symbol
  _atom_site_label
  _atom_site_symmetry_multiplicity
  _atom_site_fract_x
  _atom_site_fract_y
  _atom_site_fract_z
  _atom_site_occupancy
  Bi  Bi1       1.0  0.25000  0.25000  0.12000  1.0000
  Bi  Bi2       1.0  0.25000  0.25000  0.38000  1.0000
  Bi  Bi3       1.0  0.75000  0.75000  0.62000  1.0000
  Bi  Bi4       1.0  0.75000  0.75000  0.88000  1.0000
  Ga  Ga1       1.0  0.75000  0.25000  0.00000  1.0000
  Ga  Ga2       1.0  0.25000  0.75000  0.00000  1.0000
  Ga  Ga3       1.0  0.75000  0.25000  0.25000  1.0000
  Ga  Ga4       1.0  0.25000  0.75000  0.25000  1.0000
  Ga  Ga5       1.0  0.75000  0.25000  0.50000  1.0000
  Ga  Ga6       1.0  0.25000  0.75000  0.50000  1.0000
  Ga  Ga7       1.0  0.75000  0.25000  0.75000  1.0000
  Ga  Ga8       1.0  0.25000  0.75000  0.75000  1.0000
  S   S1        1.0  0.91100  0.08620  0.12500  1.0000
  S   S2        1.0  0.58900  0.41400  0.12500  1.0000
  S   S3        1.0  0.08620  0.58900  0.12500  1.0000
  S   S4        1.0  0.41400  0.91100  0.12500  1.0000
  S   S5        1.0  0.58900  0.08620  0.37500  1.0000
  S   S6        1.0  0.91100  0.41400  0.37500  1.0000
  S   S7        1.0  0.41400  0.58900  0.37500  1.0000
  S   S8        1.0  0.08620  0.91100  0.37500  1.0000
  S   S9        1.0  0.91400  0.08920  0.62500  1.0000
  S   S10       1.0  0.58600  0.41100  0.62500  1.0000
  S   S11       1.0  0.08920  0.58600  0.62500  1.0000
  S   S12       1.0  0.41100  0.91400  0.62500  1.0000
  S   S13       1.0  0.58600  0.08920  0.87500  1.0000
  S   S14       1.0  0.91400  0.41100  0.87500  1.0000
  S   S15       1.0  0.41100  0.58600  0.87500  1.0000
  S   S16       1.0  0.08920  0.91400  0.87500  1.0000
