data_image0
_chemical_formula_structural       Cs12Sn4Te12
_chemical_formula_sum              "Cs12 Sn4 Te12"
_cell_length_a       10.5172
_cell_length_b       11.5663
_cell_length_c       11.5663
_cell_angle_alpha    79.2108
_cell_angle_beta     95.1535
_cell_angle_gamma    95.1535

_space_group_name_H-M_alt    "P 1"
_space_group_IT_number       1

loop_
  _space_group_symop_operation_xyz
  'x, y, z'

loop_
  _atom_site_type_symbol
  _atom_site_label
  _atom_site_symmetry_multiplicity
  _atom_site_fract_x
  _atom_site_fract_y
  _atom_site_fract_z
  _atom_site_occupancy
  Cs  Cs1       1.0  0.25000  0.91200  0.08770  1.0000
  Cs  Cs2       1.0  0.18700  0.24500  0.19400  1.0000
  Cs  Cs3       1.0  0.86400  0.60000  0.21300  1.0000
  Cs  Cs4       1.0  0.68700  0.19400  0.24500  1.0000
  Cs  Cs5       1.0  0.25000  0.60300  0.39700  1.0000
  Cs  Cs6       1.0  0.63600  0.78700  0.40000  1.0000
  Cs  Cs7       1.0  0.36400  0.21300  0.60000  1.0000
  Cs  Cs8       1.0  0.75000  0.39700  0.60300  1.0000
  Cs  Cs9       1.0  0.31300  0.80600  0.75500  1.0000
  Cs  Cs10      1.0  0.13600  0.40000  0.78700  1.0000
  Cs  Cs11      1.0  0.81300  0.75500  0.80600  1.0000
  Cs  Cs12      1.0  0.75000  0.08770  0.91200  1.0000
  Sn  Sn1       1.0  0.45500  0.56600  0.08260  1.0000
  Sn  Sn2       1.0  0.04540  0.91700  0.43400  1.0000
  Sn  Sn3       1.0  0.95500  0.08260  0.56600  1.0000
  Sn  Sn4       1.0  0.54500  0.43400  0.91700  1.0000
  Te  Te1       1.0  0.18900  0.58000  0.04740  1.0000
  Te  Te2       1.0  0.57700  0.79200  0.04960  1.0000
  Te  Te3       1.0  0.92300  0.95000  0.20800  1.0000
  Te  Te4       1.0  0.52300  0.45200  0.31300  1.0000
  Te  Te5       1.0  0.31100  0.95300  0.42000  1.0000
  Te  Te6       1.0  0.02260  0.31300  0.45200  1.0000
  Te  Te7       1.0  0.97700  0.68700  0.54800  1.0000
  Te  Te8       1.0  0.68900  0.04740  0.58000  1.0000
  Te  Te9       1.0  0.47700  0.54800  0.68700  1.0000
  Te  Te10      1.0  0.07700  0.04960  0.79200  1.0000
  Te  Te11      1.0  0.42300  0.20800  0.95000  1.0000
  Te  Te12      1.0  0.81100  0.42000  0.95300  1.0000
