data_image0
_chemical_formula_structural       Bi4Cs4S16Si4
_chemical_formula_sum              "Bi4 Cs4 S16 Si4"
_cell_length_a       9.43446
_cell_length_b       7.00308
_cell_length_c       13.0534
_cell_angle_alpha    90
_cell_angle_beta     108.322
_cell_angle_gamma    90

_space_group_name_H-M_alt    "P 1"
_space_group_IT_number       1

loop_
  _space_group_symop_operation_xyz
  'x, y, z'

loop_
  _atom_site_type_symbol
  _atom_site_label
  _atom_site_symmetry_multiplicity
  _atom_site_fract_x
  _atom_site_fract_y
  _atom_site_fract_z
  _atom_site_occupancy
  Bi  Bi1       1.0  0.94600  0.65700  0.13000  1.0000
  Bi  Bi2       1.0  0.05390  0.15700  0.37000  1.0000
  Bi  Bi3       1.0  0.94600  0.84300  0.63000  1.0000
  Bi  Bi4       1.0  0.05390  0.34300  0.87000  1.0000
  Cs  Cs1       1.0  0.43200  0.75800  0.11000  1.0000
  Cs  Cs2       1.0  0.56800  0.25800  0.39000  1.0000
  Cs  Cs3       1.0  0.43200  0.74200  0.61000  1.0000
  Cs  Cs4       1.0  0.56800  0.24200  0.89000  1.0000
  S   S1        1.0  0.30800  0.26500  0.04770  1.0000
  S   S2        1.0  0.94000  0.28900  0.05480  1.0000
  S   S3        1.0  0.78700  0.98400  0.23500  1.0000
  S   S4        1.0  0.20600  0.99700  0.24000  1.0000
  S   S5        1.0  0.79400  0.49700  0.26000  1.0000
  S   S6        1.0  0.21300  0.48400  0.26500  1.0000
  S   S7        1.0  0.05950  0.78900  0.44500  1.0000
  S   S8        1.0  0.69200  0.76500  0.45200  1.0000
  S   S9        1.0  0.30800  0.23500  0.54800  1.0000
  S   S10       1.0  0.94000  0.21100  0.55500  1.0000
  S   S11       1.0  0.78700  0.51600  0.73500  1.0000
  S   S12       1.0  0.20600  0.50300  0.74000  1.0000
  S   S13       1.0  0.79400  0.00253  0.76000  1.0000
  S   S14       1.0  0.21300  0.01650  0.76500  1.0000
  S   S15       1.0  0.05950  0.71100  0.94500  1.0000
  S   S16       1.0  0.69200  0.73500  0.95200  1.0000
  Si  Si1       1.0  0.17400  0.25700  0.15100  1.0000
  Si  Si2       1.0  0.82600  0.75700  0.34900  1.0000
  Si  Si3       1.0  0.17400  0.24300  0.65100  1.0000
  Si  Si4       1.0  0.82600  0.74300  0.84900  1.0000
