data_image0
_chemical_formula_structural       Ga4Na12S12
_chemical_formula_sum              "Ga4 Na12 S12"
_cell_length_a       7.19521
_cell_length_b       6.94366
_cell_length_c       12.7462
_cell_angle_alpha    90
_cell_angle_beta     90.742
_cell_angle_gamma    90

_space_group_name_H-M_alt    "P 1"
_space_group_IT_number       1

loop_
  _space_group_symop_operation_xyz
  'x, y, z'

loop_
  _atom_site_type_symbol
  _atom_site_label
  _atom_site_symmetry_multiplicity
  _atom_site_fract_x
  _atom_site_fract_y
  _atom_site_fract_z
  _atom_site_occupancy
  Ga  Ga1       1.0  0.41500  0.14200  0.08270  1.0000
  Ga  Ga2       1.0  0.08540  0.64200  0.41700  1.0000
  Ga  Ga3       1.0  0.91500  0.35800  0.58300  1.0000
  Ga  Ga4       1.0  0.58500  0.85800  0.91700  1.0000
  Na  Na1       1.0  0.79300  0.49700  0.10200  1.0000
  Na  Na2       1.0  0.84200  0.99600  0.11100  1.0000
  Na  Na3       1.0  0.27600  0.53700  0.20800  1.0000
  Na  Na4       1.0  0.22400  0.03700  0.29200  1.0000
  Na  Na5       1.0  0.65800  0.49600  0.38900  1.0000
  Na  Na6       1.0  0.70700  0.99700  0.39800  1.0000
  Na  Na7       1.0  0.29300  0.00342  0.60200  1.0000
  Na  Na8       1.0  0.34200  0.50400  0.61100  1.0000
  Na  Na9       1.0  0.77600  0.96300  0.70800  1.0000
  Na  Na10      1.0  0.72400  0.46300  0.79200  1.0000
  Na  Na11      1.0  0.15800  0.00422  0.88900  1.0000
  Na  Na12      1.0  0.20700  0.50300  0.89800  1.0000
  S   S1        1.0  0.42500  0.80300  0.07060  1.0000
  S   S2        1.0  0.12200  0.25700  0.07270  1.0000
  S   S3        1.0  0.57100  0.24200  0.22700  1.0000
  S   S4        1.0  0.92900  0.74200  0.27300  1.0000
  S   S5        1.0  0.37800  0.75700  0.42700  1.0000
  S   S6        1.0  0.07540  0.30300  0.42900  1.0000
  S   S7        1.0  0.92500  0.69700  0.57100  1.0000
  S   S8        1.0  0.62200  0.24300  0.57300  1.0000
  S   S9        1.0  0.07140  0.25800  0.72700  1.0000
  S   S10       1.0  0.42900  0.75800  0.77300  1.0000
  S   S11       1.0  0.87800  0.74300  0.92700  1.0000
  S   S12       1.0  0.57500  0.19700  0.92900  1.0000
