data_image0
_chemical_formula_structural       F24Ir4
_chemical_formula_sum              "F24 Ir4"
_cell_length_a       8.68962
_cell_length_b       7.92572
_cell_length_c       4.59299
_cell_angle_alpha    90
_cell_angle_beta     90
_cell_angle_gamma    90

_space_group_name_H-M_alt    "P 1"
_space_group_IT_number       1

loop_
  _space_group_symop_operation_xyz
  'x, y, z'

loop_
  _atom_site_type_symbol
  _atom_site_label
  _atom_site_symmetry_multiplicity
  _atom_site_fract_x
  _atom_site_fract_y
  _atom_site_fract_z
  _atom_site_occupancy
  F   F1        1.0  0.74800  0.08400  0.07850  1.0000
  F   F2        1.0  0.74800  0.41600  0.07850  1.0000
  F   F3        1.0  0.74600  0.75000  0.08080  1.0000
  F   F4        1.0  0.49800  0.25000  0.23300  1.0000
  F   F5        1.0  0.99500  0.58400  0.23600  1.0000
  F   F6        1.0  0.99500  0.91600  0.23600  1.0000
  F   F7        1.0  0.49500  0.58400  0.26400  1.0000
  F   F8        1.0  0.49500  0.91600  0.26400  1.0000
  F   F9        1.0  0.99800  0.25000  0.26700  1.0000
  F   F10       1.0  0.24600  0.75000  0.41900  1.0000
  F   F11       1.0  0.24800  0.08400  0.42100  1.0000
  F   F12       1.0  0.24800  0.41600  0.42100  1.0000
  F   F13       1.0  0.75200  0.58400  0.57900  1.0000
  F   F14       1.0  0.75200  0.91600  0.57900  1.0000
  F   F15       1.0  0.75400  0.25000  0.58100  1.0000
  F   F16       1.0  0.00160  0.75000  0.73300  1.0000
  F   F17       1.0  0.50500  0.08390  0.73600  1.0000
  F   F18       1.0  0.50500  0.41600  0.73600  1.0000
  F   F19       1.0  0.00472  0.08390  0.76400  1.0000
  F   F20       1.0  0.00472  0.41600  0.76400  1.0000
  F   F21       1.0  0.50200  0.75000  0.76700  1.0000
  F   F22       1.0  0.25400  0.25000  0.91900  1.0000
  F   F23       1.0  0.25200  0.58400  0.92100  1.0000
  F   F24       1.0  0.25200  0.91600  0.92100  1.0000
  Ir  Ir1       1.0  0.37300  0.75000  0.09220  1.0000
  Ir  Ir2       1.0  0.87300  0.75000  0.40800  1.0000
  Ir  Ir3       1.0  0.12700  0.25000  0.59200  1.0000
  Ir  Ir4       1.0  0.62700  0.25000  0.90800  1.0000
