data_image0
_chemical_formula_structural       Mn4O12Rb12
_chemical_formula_sum              "Mn4 O12 Rb12"
_cell_length_a       6.91492
_cell_length_b       11.8102
_cell_length_c       7.05128
_cell_angle_alpha    90
_cell_angle_beta     98.3641
_cell_angle_gamma    90

_space_group_name_H-M_alt    "P 1"
_space_group_IT_number       1

loop_
  _space_group_symop_operation_xyz
  'x, y, z'

loop_
  _atom_site_type_symbol
  _atom_site_label
  _atom_site_symmetry_multiplicity
  _atom_site_fract_x
  _atom_site_fract_y
  _atom_site_fract_z
  _atom_site_occupancy
  Mn  Mn1       1.0  0.15800  0.99600  0.15800  1.0000
  Mn  Mn2       1.0  0.84200  0.49600  0.34200  1.0000
  Mn  Mn3       1.0  0.15800  0.50400  0.65800  1.0000
  Mn  Mn4       1.0  0.84200  0.00428  0.84200  1.0000
  O   O1        1.0  0.89400  0.92900  0.09470  1.0000
  O   O2        1.0  0.72900  0.61700  0.19400  1.0000
  O   O3        1.0  0.69900  0.37200  0.22600  1.0000
  O   O4        1.0  0.30100  0.87200  0.27400  1.0000
  O   O5        1.0  0.27100  0.11700  0.30600  1.0000
  O   O6        1.0  0.10600  0.42900  0.40500  1.0000
  O   O7        1.0  0.89400  0.57100  0.59500  1.0000
  O   O8        1.0  0.72900  0.88300  0.69400  1.0000
  O   O9        1.0  0.69900  0.12800  0.72600  1.0000
  O   O10       1.0  0.30100  0.62800  0.77400  1.0000
  O   O11       1.0  0.27100  0.38300  0.80600  1.0000
  O   O12       1.0  0.10600  0.07100  0.90500  1.0000
  Rb  Rb1       1.0  0.53000  0.79200  0.00308  1.0000
  Rb  Rb2       1.0  0.00758  0.27400  0.06770  1.0000
  Rb  Rb3       1.0  0.34200  0.51300  0.14400  1.0000
  Rb  Rb4       1.0  0.65800  0.01320  0.35600  1.0000
  Rb  Rb5       1.0  0.99200  0.77400  0.43200  1.0000
  Rb  Rb6       1.0  0.47000  0.29200  0.49700  1.0000
  Rb  Rb7       1.0  0.53000  0.70800  0.50300  1.0000
  Rb  Rb8       1.0  0.00758  0.22600  0.56800  1.0000
  Rb  Rb9       1.0  0.34200  0.98700  0.64400  1.0000
  Rb  Rb10      1.0  0.65800  0.48700  0.85600  1.0000
  Rb  Rb11      1.0  0.99200  0.72600  0.93200  1.0000
  Rb  Rb12      1.0  0.47000  0.20800  0.99700  1.0000
