data_image0
_chemical_formula_structural       Cs12Ge4Se12
_chemical_formula_sum              "Cs12 Ge4 Se12"
_cell_length_a       9.8373
_cell_length_b       10.8029
_cell_length_c       10.8029
_cell_angle_alpha    79.825
_cell_angle_beta     94.9844
_cell_angle_gamma    94.9844

_space_group_name_H-M_alt    "P 1"
_space_group_IT_number       1

loop_
  _space_group_symop_operation_xyz
  'x, y, z'

loop_
  _atom_site_type_symbol
  _atom_site_label
  _atom_site_symmetry_multiplicity
  _atom_site_fract_x
  _atom_site_fract_y
  _atom_site_fract_z
  _atom_site_occupancy
  Cs  Cs1       1.0  0.25000  0.92000  0.07990  1.0000
  Cs  Cs2       1.0  0.87300  0.60900  0.20100  1.0000
  Cs  Cs3       1.0  0.19400  0.24700  0.20100  1.0000
  Cs  Cs4       1.0  0.69400  0.20100  0.24700  1.0000
  Cs  Cs5       1.0  0.62700  0.79900  0.39100  1.0000
  Cs  Cs6       1.0  0.25000  0.59100  0.40900  1.0000
  Cs  Cs7       1.0  0.75000  0.40900  0.59100  1.0000
  Cs  Cs8       1.0  0.37300  0.20100  0.60900  1.0000
  Cs  Cs9       1.0  0.30600  0.79900  0.75300  1.0000
  Cs  Cs10      1.0  0.80600  0.75300  0.79900  1.0000
  Cs  Cs11      1.0  0.12700  0.39100  0.79900  1.0000
  Cs  Cs12      1.0  0.75000  0.07990  0.92000  1.0000
  Ge  Ge1       1.0  0.46100  0.56700  0.07900  1.0000
  Ge  Ge2       1.0  0.03910  0.92100  0.43300  1.0000
  Ge  Ge3       1.0  0.96100  0.07900  0.56700  1.0000
  Ge  Ge4       1.0  0.53900  0.43300  0.92100  1.0000
  Se  Se1       1.0  0.57100  0.77600  0.04240  1.0000
  Se  Se2       1.0  0.21500  0.58000  0.05380  1.0000
  Se  Se3       1.0  0.92900  0.95800  0.22400  1.0000
  Se  Se4       1.0  0.52800  0.46700  0.29200  1.0000
  Se  Se5       1.0  0.28500  0.94600  0.42000  1.0000
  Se  Se6       1.0  0.02750  0.29200  0.46700  1.0000
  Se  Se7       1.0  0.97200  0.70800  0.53300  1.0000
  Se  Se8       1.0  0.71500  0.05380  0.58000  1.0000
  Se  Se9       1.0  0.47200  0.53300  0.70800  1.0000
  Se  Se10      1.0  0.07100  0.04240  0.77600  1.0000
  Se  Se11      1.0  0.78500  0.42000  0.94600  1.0000
  Se  Se12      1.0  0.42900  0.22400  0.95800  1.0000
