data_image0
_chemical_formula_structural       Na4O6Zn4
_chemical_formula_sum              "Na4 O6 Zn4"
_cell_length_a       5.81318
_cell_length_b       5.9016
_cell_length_c       5.90589
_cell_angle_alpha    90
_cell_angle_beta     117.812
_cell_angle_gamma    90

_space_group_name_H-M_alt    "P 1"
_space_group_IT_number       1

loop_
  _space_group_symop_operation_xyz
  'x, y, z'

loop_
  _atom_site_type_symbol
  _atom_site_label
  _atom_site_symmetry_multiplicity
  _atom_site_fract_x
  _atom_site_fract_y
  _atom_site_fract_z
  _atom_site_occupancy
  Na  Na1       1.0  0.85500  0.34000  0.09730  1.0000
  Na  Na2       1.0  0.14500  0.84000  0.40300  1.0000
  Na  Na3       1.0  0.85500  0.16000  0.59700  1.0000
  Na  Na4       1.0  0.14500  0.66000  0.90300  1.0000
  O   O1        1.0  0.00000  0.00000  0.00000  1.0000
  O   O2        1.0  0.35800  0.41600  0.24100  1.0000
  O   O3        1.0  0.64200  0.91600  0.25900  1.0000
  O   O4        1.0  0.00000  0.50000  0.50000  1.0000
  O   O5        1.0  0.35800  0.08370  0.74100  1.0000
  O   O6        1.0  0.64200  0.58400  0.75900  1.0000
  Zn  Zn1       1.0  0.33900  0.12600  0.07530  1.0000
  Zn  Zn2       1.0  0.66100  0.62600  0.42500  1.0000
  Zn  Zn3       1.0  0.33900  0.37400  0.57500  1.0000
  Zn  Zn4       1.0  0.66100  0.87400  0.92500  1.0000
