data_image0
_chemical_formula_structural       Ba2Mo4O18Te2
_chemical_formula_sum              "Ba2 Mo4 O18 Te2"
_cell_length_a       5.49341
_cell_length_b       7.44325
_cell_length_c       8.80163
_cell_angle_alpha    90
_cell_angle_beta     90.6203
_cell_angle_gamma    90

_space_group_name_H-M_alt    "P 1"
_space_group_IT_number       1

loop_
  _space_group_symop_operation_xyz
  'x, y, z'

loop_
  _atom_site_type_symbol
  _atom_site_label
  _atom_site_symmetry_multiplicity
  _atom_site_fract_x
  _atom_site_fract_y
  _atom_site_fract_z
  _atom_site_occupancy
  Ba  Ba1       1.0  0.27600  0.74800  0.06640  1.0000
  Ba  Ba2       1.0  0.72400  0.24800  0.93400  1.0000
  Mo  Mo1       1.0  0.22200  0.27300  0.22800  1.0000
  Mo  Mo2       1.0  0.78700  0.94900  0.32400  1.0000
  Mo  Mo3       1.0  0.21300  0.44900  0.67600  1.0000
  Mo  Mo4       1.0  0.77800  0.77300  0.77200  1.0000
  O   O1        1.0  0.22900  0.12100  0.07470  1.0000
  O   O2        1.0  0.71800  0.96600  0.12800  1.0000
  O   O3        1.0  0.01310  0.43700  0.16500  1.0000
  O   O4        1.0  0.51300  0.39600  0.19500  1.0000
  O   O5        1.0  0.54100  0.73000  0.33000  1.0000
  O   O6        1.0  0.02580  0.79300  0.33400  1.0000
  O   O7        1.0  0.96700  0.15900  0.35900  1.0000
  O   O8        1.0  0.44700  0.08950  0.36900  1.0000
  O   O9        1.0  0.29100  0.43100  0.44100  1.0000
  O   O10       1.0  0.70900  0.93100  0.55900  1.0000
  O   O11       1.0  0.55300  0.59000  0.63100  1.0000
  O   O12       1.0  0.03320  0.65900  0.64100  1.0000
  O   O13       1.0  0.97400  0.29300  0.66600  1.0000
  O   O14       1.0  0.45900  0.23000  0.67000  1.0000
  O   O15       1.0  0.48700  0.89600  0.80500  1.0000
  O   O16       1.0  0.98700  0.93700  0.83500  1.0000
  O   O17       1.0  0.28200  0.46600  0.87200  1.0000
  O   O18       1.0  0.77100  0.62100  0.92500  1.0000
  Te  Te1       1.0  0.62800  0.50800  0.42000  1.0000
  Te  Te2       1.0  0.37200  0.00771  0.58000  1.0000
