data_image0
_chemical_formula_structural       Eu4Sc8Se16
_chemical_formula_sum              "Eu4 Sc8 Se16"
_cell_length_a       12.0862
_cell_length_b       3.9201
_cell_length_c       14.2054
_cell_angle_alpha    90
_cell_angle_beta     90
_cell_angle_gamma    90

_space_group_name_H-M_alt    "P 1"
_space_group_IT_number       1

loop_
  _space_group_symop_operation_xyz
  'x, y, z'

loop_
  _atom_site_type_symbol
  _atom_site_label
  _atom_site_symmetry_multiplicity
  _atom_site_fract_x
  _atom_site_fract_y
  _atom_site_fract_z
  _atom_site_occupancy
  Eu  Eu1       1.0  0.26200  0.75000  0.16900  1.0000
  Eu  Eu2       1.0  0.76200  0.75000  0.33100  1.0000
  Eu  Eu3       1.0  0.23800  0.25000  0.66900  1.0000
  Eu  Eu4       1.0  0.73800  0.25000  0.83100  1.0000
  Sc  Sc1       1.0  0.58200  0.25000  0.09620  1.0000
  Sc  Sc2       1.0  0.94200  0.75000  0.11000  1.0000
  Sc  Sc3       1.0  0.44200  0.75000  0.39000  1.0000
  Sc  Sc4       1.0  0.08220  0.25000  0.40400  1.0000
  Sc  Sc5       1.0  0.91800  0.75000  0.59600  1.0000
  Sc  Sc6       1.0  0.55800  0.25000  0.61000  1.0000
  Sc  Sc7       1.0  0.05780  0.25000  0.89000  1.0000
  Sc  Sc8       1.0  0.41800  0.75000  0.90400  1.0000
  Se  Se1       1.0  0.37300  0.25000  0.03100  1.0000
  Se  Se2       1.0  0.09250  0.25000  0.07600  1.0000
  Se  Se3       1.0  0.79600  0.25000  0.16400  1.0000
  Se  Se4       1.0  0.52900  0.75000  0.21500  1.0000
  Se  Se5       1.0  0.02910  0.75000  0.28500  1.0000
  Se  Se6       1.0  0.29600  0.25000  0.33600  1.0000
  Se  Se7       1.0  0.59200  0.25000  0.42400  1.0000
  Se  Se8       1.0  0.87300  0.25000  0.46900  1.0000
  Se  Se9       1.0  0.12700  0.75000  0.53100  1.0000
  Se  Se10      1.0  0.40800  0.75000  0.57600  1.0000
  Se  Se11      1.0  0.70400  0.75000  0.66400  1.0000
  Se  Se12      1.0  0.97100  0.25000  0.71500  1.0000
  Se  Se13      1.0  0.47100  0.25000  0.78500  1.0000
  Se  Se14      1.0  0.20400  0.75000  0.83600  1.0000
  Se  Se15      1.0  0.90800  0.75000  0.92400  1.0000
  Se  Se16      1.0  0.62700  0.75000  0.96900  1.0000
