data_image0
_chemical_formula_structural       B2O18Tb6W2
_chemical_formula_sum              "B2 O18 Tb6 W2"
_cell_length_a       8.48067
_cell_length_b       8.48065
_cell_length_c       5.33836
_cell_angle_alpha    90
_cell_angle_beta     90
_cell_angle_gamma    120

_space_group_name_H-M_alt    "P 1"
_space_group_IT_number       1

loop_
  _space_group_symop_operation_xyz
  'x, y, z'

loop_
  _atom_site_type_symbol
  _atom_site_label
  _atom_site_symmetry_multiplicity
  _atom_site_fract_x
  _atom_site_fract_y
  _atom_site_fract_z
  _atom_site_occupancy
  B   B1        1.0  0.00000  0.00000  0.36400  1.0000
  B   B2        1.0  0.00000  0.00000  0.86400  1.0000
  O   O1        1.0  0.19600  0.46600  0.03560  1.0000
  O   O2        1.0  0.53400  0.73000  0.03560  1.0000
  O   O3        1.0  0.27000  0.80400  0.03560  1.0000
  O   O4        1.0  0.12900  0.18200  0.35400  1.0000
  O   O5        1.0  0.05230  0.87100  0.35400  1.0000
  O   O6        1.0  0.81800  0.94800  0.35400  1.0000
  O   O7        1.0  0.13300  0.51300  0.48200  1.0000
  O   O8        1.0  0.38000  0.86700  0.48200  1.0000
  O   O9        1.0  0.48700  0.62000  0.48200  1.0000
  O   O10       1.0  0.80400  0.53400  0.53600  1.0000
  O   O11       1.0  0.46600  0.27000  0.53600  1.0000
  O   O12       1.0  0.73000  0.19600  0.53600  1.0000
  O   O13       1.0  0.18200  0.05230  0.85400  1.0000
  O   O14       1.0  0.94800  0.12900  0.85400  1.0000
  O   O15       1.0  0.87100  0.81800  0.85400  1.0000
  O   O16       1.0  0.62000  0.13300  0.98200  1.0000
  O   O17       1.0  0.86700  0.48700  0.98200  1.0000
  O   O18       1.0  0.51300  0.38000  0.98200  1.0000
  Tb  Tb1       1.0  0.91600  0.27400  0.20300  1.0000
  Tb  Tb2       1.0  0.35800  0.08400  0.20300  1.0000
  Tb  Tb3       1.0  0.72600  0.64200  0.20300  1.0000
  Tb  Tb4       1.0  0.08400  0.72600  0.70300  1.0000
  Tb  Tb5       1.0  0.27400  0.35800  0.70300  1.0000
  Tb  Tb6       1.0  0.64200  0.91600  0.70300  1.0000
  W   W1        1.0  0.33300  0.66700  0.24600  1.0000
  W   W2        1.0  0.66700  0.33300  0.74600  1.0000
