data_image0
_chemical_formula_structural       Br18Nb4Rb6
_chemical_formula_sum              "Br18 Nb4 Rb6"
_cell_length_a       7.68337
_cell_length_b       7.68336
_cell_length_c       17.9368
_cell_angle_alpha    90
_cell_angle_beta     90
_cell_angle_gamma    120

_space_group_name_H-M_alt    "P 1"
_space_group_IT_number       1

loop_
  _space_group_symop_operation_xyz
  'x, y, z'

loop_
  _atom_site_type_symbol
  _atom_site_label
  _atom_site_symmetry_multiplicity
  _atom_site_fract_x
  _atom_site_fract_y
  _atom_site_fract_z
  _atom_site_occupancy
  Br  Br1       1.0  0.82900  0.65800  0.09200  1.0000
  Br  Br2       1.0  0.34200  0.17100  0.09200  1.0000
  Br  Br3       1.0  0.82900  0.17100  0.09200  1.0000
  Br  Br4       1.0  0.01670  0.50800  0.25000  1.0000
  Br  Br5       1.0  0.49200  0.50800  0.25000  1.0000
  Br  Br6       1.0  0.49200  0.98300  0.25000  1.0000
  Br  Br7       1.0  0.34200  0.17100  0.40800  1.0000
  Br  Br8       1.0  0.82900  0.17100  0.40800  1.0000
  Br  Br9       1.0  0.82900  0.65800  0.40800  1.0000
  Br  Br10      1.0  0.17100  0.34200  0.59200  1.0000
  Br  Br11      1.0  0.17100  0.82900  0.59200  1.0000
  Br  Br12      1.0  0.65800  0.82900  0.59200  1.0000
  Br  Br13      1.0  0.50800  0.01670  0.75000  1.0000
  Br  Br14      1.0  0.50800  0.49200  0.75000  1.0000
  Br  Br15      1.0  0.98300  0.49200  0.75000  1.0000
  Br  Br16      1.0  0.17100  0.82900  0.90800  1.0000
  Br  Br17      1.0  0.65800  0.82900  0.90800  1.0000
  Br  Br18      1.0  0.17100  0.34200  0.90800  1.0000
  Nb  Nb1       1.0  0.66700  0.33300  0.17500  1.0000
  Nb  Nb2       1.0  0.66700  0.33300  0.32500  1.0000
  Nb  Nb3       1.0  0.33300  0.66700  0.67500  1.0000
  Nb  Nb4       1.0  0.33300  0.66700  0.82500  1.0000
  Rb  Rb1       1.0  0.33300  0.66700  0.06860  1.0000
  Rb  Rb2       1.0  0.00000  0.00000  0.25000  1.0000
  Rb  Rb3       1.0  0.33300  0.66700  0.43100  1.0000
  Rb  Rb4       1.0  0.66700  0.33300  0.56900  1.0000
  Rb  Rb5       1.0  0.00000  0.00000  0.75000  1.0000
  Rb  Rb6       1.0  0.66700  0.33300  0.93100  1.0000
