data_image0
_chemical_formula_structural       Cl4La4O16S4
_chemical_formula_sum              "Cl4 La4 O16 S4"
_cell_length_a       6.7545
_cell_length_b       8.11599
_cell_length_c       8.48977
_cell_angle_alpha    90
_cell_angle_beta     112.837
_cell_angle_gamma    90

_space_group_name_H-M_alt    "P 1"
_space_group_IT_number       1

loop_
  _space_group_symop_operation_xyz
  'x, y, z'

loop_
  _atom_site_type_symbol
  _atom_site_label
  _atom_site_symmetry_multiplicity
  _atom_site_fract_x
  _atom_site_fract_y
  _atom_site_fract_z
  _atom_site_occupancy
  Cl  Cl1       1.0  0.76100  0.03290  0.02850  1.0000
  Cl  Cl2       1.0  0.73900  0.53300  0.47200  1.0000
  Cl  Cl3       1.0  0.26100  0.46700  0.52800  1.0000
  Cl  Cl4       1.0  0.23900  0.96700  0.97200  1.0000
  La  La1       1.0  0.61100  0.80800  0.23100  1.0000
  La  La2       1.0  0.88900  0.30800  0.26900  1.0000
  La  La3       1.0  0.11100  0.69200  0.73100  1.0000
  La  La4       1.0  0.38900  0.19200  0.76900  1.0000
  O   O1        1.0  0.33000  0.59300  0.11400  1.0000
  O   O2        1.0  0.48700  0.31800  0.11900  1.0000
  O   O3        1.0  0.80500  0.58900  0.12800  1.0000
  O   O4        1.0  0.13600  0.34600  0.13000  1.0000
  O   O5        1.0  0.36400  0.84600  0.37000  1.0000
  O   O6        1.0  0.69500  0.08930  0.37200  1.0000
  O   O7        1.0  0.01270  0.81800  0.38100  1.0000
  O   O8        1.0  0.17000  0.09280  0.38600  1.0000
  O   O9        1.0  0.83000  0.90700  0.61400  1.0000
  O   O10       1.0  0.98700  0.18200  0.61900  1.0000
  O   O11       1.0  0.30500  0.91100  0.62800  1.0000
  O   O12       1.0  0.63600  0.15400  0.63000  1.0000
  O   O13       1.0  0.86400  0.65400  0.87000  1.0000
  O   O14       1.0  0.19500  0.41100  0.87200  1.0000
  O   O15       1.0  0.51300  0.68200  0.88100  1.0000
  O   O16       1.0  0.67000  0.40700  0.88600  1.0000
  S   S1        1.0  0.28800  0.41700  0.06510  1.0000
  S   S2        1.0  0.21200  0.91700  0.43500  1.0000
  S   S3        1.0  0.78800  0.08250  0.56500  1.0000
  S   S4        1.0  0.71200  0.58300  0.93500  1.0000
