data_image0
_chemical_formula_structural       Eu12Pd8Sn8
_chemical_formula_sum              "Eu12 Pd8 Sn8"
_cell_length_a       5.94415
_cell_length_b       8.72069
_cell_length_c       14.0912
_cell_angle_alpha    90
_cell_angle_beta     90
_cell_angle_gamma    90

_space_group_name_H-M_alt    "P 1"
_space_group_IT_number       1

loop_
  _space_group_symop_operation_xyz
  'x, y, z'

loop_
  _atom_site_type_symbol
  _atom_site_label
  _atom_site_symmetry_multiplicity
  _atom_site_fract_x
  _atom_site_fract_y
  _atom_site_fract_z
  _atom_site_occupancy
  Eu  Eu1       1.0  0.15400  0.10500  0.09660  1.0000
  Eu  Eu2       1.0  0.84600  0.60500  0.09660  1.0000
  Eu  Eu3       1.0  0.64700  0.24600  0.25000  1.0000
  Eu  Eu4       1.0  0.35300  0.74600  0.25000  1.0000
  Eu  Eu5       1.0  0.15400  0.10500  0.40300  1.0000
  Eu  Eu6       1.0  0.84600  0.60500  0.40300  1.0000
  Eu  Eu7       1.0  0.15400  0.39500  0.59700  1.0000
  Eu  Eu8       1.0  0.84600  0.89500  0.59700  1.0000
  Eu  Eu9       1.0  0.64700  0.25400  0.75000  1.0000
  Eu  Eu10      1.0  0.35300  0.75400  0.75000  1.0000
  Eu  Eu11      1.0  0.15400  0.39500  0.90300  1.0000
  Eu  Eu12      1.0  0.84600  0.89500  0.90300  1.0000
  Pd  Pd1       1.0  0.38000  0.46600  0.08900  1.0000
  Pd  Pd2       1.0  0.62000  0.96600  0.08900  1.0000
  Pd  Pd3       1.0  0.38000  0.46600  0.41100  1.0000
  Pd  Pd4       1.0  0.62000  0.96600  0.41100  1.0000
  Pd  Pd5       1.0  0.38000  0.03360  0.58900  1.0000
  Pd  Pd6       1.0  0.62000  0.53400  0.58900  1.0000
  Pd  Pd7       1.0  0.38000  0.03360  0.91100  1.0000
  Pd  Pd8       1.0  0.62000  0.53400  0.91100  1.0000
  Sn  Sn1       1.0  0.65100  0.25000  0.00000  1.0000
  Sn  Sn2       1.0  0.34900  0.75000  0.00000  1.0000
  Sn  Sn3       1.0  0.14800  0.39800  0.25000  1.0000
  Sn  Sn4       1.0  0.85200  0.89800  0.25000  1.0000
  Sn  Sn5       1.0  0.65100  0.25000  0.50000  1.0000
  Sn  Sn6       1.0  0.34900  0.75000  0.50000  1.0000
  Sn  Sn7       1.0  0.14800  0.10200  0.75000  1.0000
  Sn  Sn8       1.0  0.85200  0.60200  0.75000  1.0000
