data_image0
_chemical_formula_structural       C4Ni12W12
_chemical_formula_sum              "C4 Ni12 W12"
_cell_length_a       7.85037
_cell_length_b       7.85037
_cell_length_c       7.85037
_cell_angle_alpha    120
_cell_angle_beta     90
_cell_angle_gamma    120

_space_group_name_H-M_alt    "P 1"
_space_group_IT_number       1

loop_
  _space_group_symop_operation_xyz
  'x, y, z'

loop_
  _atom_site_type_symbol
  _atom_site_label
  _atom_site_symmetry_multiplicity
  _atom_site_fract_x
  _atom_site_fract_y
  _atom_site_fract_z
  _atom_site_occupancy
  C   C1        1.0  0.00000  0.00000  0.00000  1.0000
  C   C2        1.0  0.50000  0.00000  0.00000  1.0000
  C   C3        1.0  0.50000  0.50000  0.00000  1.0000
  C   C4        1.0  0.50000  0.50000  0.50000  1.0000
  Ni  Ni1       1.0  0.00000  0.50000  0.00000  1.0000
  Ni  Ni2       1.0  0.21000  0.58100  0.29000  1.0000
  Ni  Ni3       1.0  0.87100  0.58100  0.29000  1.0000
  Ni  Ni4       1.0  0.21000  0.91900  0.29000  1.0000
  Ni  Ni5       1.0  0.79000  0.08100  0.37100  1.0000
  Ni  Ni6       1.0  0.00000  0.00000  0.50000  1.0000
  Ni  Ni7       1.0  0.00000  0.50000  0.50000  1.0000
  Ni  Ni8       1.0  0.50000  0.00000  0.50000  1.0000
  Ni  Ni9       1.0  0.21000  0.91900  0.62900  1.0000
  Ni  Ni10      1.0  0.79000  0.08100  0.71000  1.0000
  Ni  Ni11      1.0  0.79000  0.41900  0.71000  1.0000
  Ni  Ni12      1.0  0.12900  0.41900  0.71000  1.0000
  W   W1        1.0  0.83100  0.16300  0.08140  1.0000
  W   W2        1.0  0.83100  0.75000  0.08140  1.0000
  W   W3        1.0  0.41900  0.75000  0.08140  1.0000
  W   W4        1.0  0.16900  0.25000  0.33100  1.0000
  W   W5        1.0  0.58100  0.25000  0.33100  1.0000
  W   W6        1.0  0.58100  0.66300  0.33100  1.0000
  W   W7        1.0  0.41900  0.33700  0.66900  1.0000
  W   W8        1.0  0.41900  0.75000  0.66900  1.0000
  W   W9        1.0  0.83100  0.75000  0.66900  1.0000
  W   W10       1.0  0.58100  0.25000  0.91900  1.0000
  W   W11       1.0  0.16900  0.25000  0.91900  1.0000
  W   W12       1.0  0.16900  0.83700  0.91900  1.0000
