data_image0
_chemical_formula_structural       B2Gd6O18W2
_chemical_formula_sum              "B2 Gd6 O18 W2"
_cell_length_a       8.51017
_cell_length_b       8.51017
_cell_length_c       5.3718
_cell_angle_alpha    90
_cell_angle_beta     90
_cell_angle_gamma    120

_space_group_name_H-M_alt    "P 1"
_space_group_IT_number       1

loop_
  _space_group_symop_operation_xyz
  'x, y, z'

loop_
  _atom_site_type_symbol
  _atom_site_label
  _atom_site_symmetry_multiplicity
  _atom_site_fract_x
  _atom_site_fract_y
  _atom_site_fract_z
  _atom_site_occupancy
  B   B1        1.0  0.00000  0.00000  0.35900  1.0000
  B   B2        1.0  0.00000  0.00000  0.85900  1.0000
  Gd  Gd1       1.0  0.35800  0.08390  0.20100  1.0000
  Gd  Gd2       1.0  0.91600  0.27400  0.20100  1.0000
  Gd  Gd3       1.0  0.72600  0.64200  0.20100  1.0000
  Gd  Gd4       1.0  0.08390  0.72600  0.70100  1.0000
  Gd  Gd5       1.0  0.27400  0.35800  0.70100  1.0000
  Gd  Gd6       1.0  0.64200  0.91600  0.70100  1.0000
  O   O1        1.0  0.19700  0.46600  0.03530  1.0000
  O   O2        1.0  0.26900  0.80300  0.03530  1.0000
  O   O3        1.0  0.53400  0.73100  0.03530  1.0000
  O   O4        1.0  0.13100  0.18100  0.35000  1.0000
  O   O5        1.0  0.05010  0.86900  0.35000  1.0000
  O   O6        1.0  0.81900  0.95000  0.35000  1.0000
  O   O7        1.0  0.13300  0.51300  0.47900  1.0000
  O   O8        1.0  0.48700  0.62000  0.47900  1.0000
  O   O9        1.0  0.38000  0.86700  0.47900  1.0000
  O   O10       1.0  0.73100  0.19700  0.53500  1.0000
  O   O11       1.0  0.46600  0.26900  0.53500  1.0000
  O   O12       1.0  0.80300  0.53400  0.53500  1.0000
  O   O13       1.0  0.18100  0.05010  0.85000  1.0000
  O   O14       1.0  0.95000  0.13100  0.85000  1.0000
  O   O15       1.0  0.86900  0.81900  0.85000  1.0000
  O   O16       1.0  0.62000  0.13300  0.97900  1.0000
  O   O17       1.0  0.51300  0.38000  0.97900  1.0000
  O   O18       1.0  0.86700  0.48700  0.97900  1.0000
  W   W1        1.0  0.33300  0.66700  0.24500  1.0000
  W   W2        1.0  0.66700  0.33300  0.74500  1.0000
