data_image0
_chemical_formula_structural       Ba8In4S16
_chemical_formula_sum              "Ba8 In4 S16"
_cell_length_a       6.32325
_cell_length_b       10.1559
_cell_length_c       13.1747
_cell_angle_alpha    104.184
_cell_angle_beta     90.4272
_cell_angle_gamma    91.0268

_space_group_name_H-M_alt    "P 1"
_space_group_IT_number       1

loop_
  _space_group_symop_operation_xyz
  'x, y, z'

loop_
  _atom_site_type_symbol
  _atom_site_label
  _atom_site_symmetry_multiplicity
  _atom_site_fract_x
  _atom_site_fract_y
  _atom_site_fract_z
  _atom_site_occupancy
  Ba  Ba1       1.0  0.25500  0.42600  0.10800  1.0000
  Ba  Ba2       1.0  0.74100  0.10600  0.15000  1.0000
  Ba  Ba3       1.0  0.23800  0.07920  0.38100  1.0000
  Ba  Ba4       1.0  0.25400  0.62100  0.47700  1.0000
  Ba  Ba5       1.0  0.74600  0.37900  0.52300  1.0000
  Ba  Ba6       1.0  0.76200  0.92100  0.61900  1.0000
  Ba  Ba7       1.0  0.25900  0.89400  0.85000  1.0000
  Ba  Ba8       1.0  0.74500  0.57400  0.89200  1.0000
  In  In1       1.0  0.16800  0.80300  0.11100  1.0000
  In  In2       1.0  0.67800  0.79300  0.30300  1.0000
  In  In3       1.0  0.32200  0.20700  0.69700  1.0000
  In  In4       1.0  0.83200  0.19700  0.88900  1.0000
  S   S1        1.0  0.75200  0.36900  0.04880  1.0000
  S   S2        1.0  0.24400  0.04040  0.11400  1.0000
  S   S3        1.0  0.77000  0.78100  0.11900  1.0000
  S   S4        1.0  0.28100  0.74400  0.27700  1.0000
  S   S5        1.0  0.08100  0.34900  0.31300  1.0000
  S   S6        1.0  0.41500  0.34800  0.31300  1.0000
  S   S7        1.0  0.73600  0.04120  0.39200  1.0000
  S   S8        1.0  0.76100  0.66400  0.43000  1.0000
  S   S9        1.0  0.23900  0.33600  0.57000  1.0000
  S   S10       1.0  0.26400  0.95900  0.60800  1.0000
  S   S11       1.0  0.58500  0.65200  0.68700  1.0000
  S   S12       1.0  0.91900  0.65100  0.68700  1.0000
  S   S13       1.0  0.71900  0.25600  0.72300  1.0000
  S   S14       1.0  0.23000  0.21900  0.88100  1.0000
  S   S15       1.0  0.75600  0.96000  0.88600  1.0000
  S   S16       1.0  0.24800  0.63100  0.95100  1.0000
