data_image0
_chemical_formula_structural       Re16Si8Th4
_chemical_formula_sum              "Re16 Si8 Th4"
_cell_length_a       7.26267
_cell_length_b       15.6337
_cell_length_c       4.16452
_cell_angle_alpha    90
_cell_angle_beta     90
_cell_angle_gamma    90

_space_group_name_H-M_alt    "P 1"
_space_group_IT_number       1

loop_
  _space_group_symop_operation_xyz
  'x, y, z'

loop_
  _atom_site_type_symbol
  _atom_site_label
  _atom_site_symmetry_multiplicity
  _atom_site_fract_x
  _atom_site_fract_y
  _atom_site_fract_z
  _atom_site_occupancy
  Re  Re1       1.0  0.14100  0.05120  0.00000  1.0000
  Re  Re2       1.0  0.99700  0.20600  0.00000  1.0000
  Re  Re3       1.0  0.73800  0.32100  0.00000  1.0000
  Re  Re4       1.0  0.43100  0.41900  0.00000  1.0000
  Re  Re5       1.0  0.56900  0.58100  0.00000  1.0000
  Re  Re6       1.0  0.26200  0.67900  0.00000  1.0000
  Re  Re7       1.0  0.00341  0.79400  0.00000  1.0000
  Re  Re8       1.0  0.85900  0.94900  0.00000  1.0000
  Re  Re9       1.0  0.93100  0.08060  0.50000  1.0000
  Re  Re10      1.0  0.23800  0.17900  0.50000  1.0000
  Re  Re11      1.0  0.49700  0.29400  0.50000  1.0000
  Re  Re12      1.0  0.64100  0.44900  0.50000  1.0000
  Re  Re13      1.0  0.35900  0.55100  0.50000  1.0000
  Re  Re14      1.0  0.50300  0.70600  0.50000  1.0000
  Re  Re15      1.0  0.76200  0.82100  0.50000  1.0000
  Re  Re16      1.0  0.06930  0.91900  0.50000  1.0000
  Si  Si1       1.0  0.30200  0.27300  0.00000  1.0000
  Si  Si2       1.0  0.82900  0.47500  0.00000  1.0000
  Si  Si3       1.0  0.17100  0.52500  0.00000  1.0000
  Si  Si4       1.0  0.69800  0.72700  0.00000  1.0000
  Si  Si5       1.0  0.32900  0.02470  0.50000  1.0000
  Si  Si6       1.0  0.80200  0.22700  0.50000  1.0000
  Si  Si7       1.0  0.19800  0.77300  0.50000  1.0000
  Si  Si8       1.0  0.67100  0.97500  0.50000  1.0000
  Th  Th1       1.0  0.58500  0.11800  0.00000  1.0000
  Th  Th2       1.0  0.41500  0.88200  0.00000  1.0000
  Th  Th3       1.0  0.08510  0.38200  0.50000  1.0000
  Th  Th4       1.0  0.91500  0.61800  0.50000  1.0000
