data_image0
_chemical_formula_structural       Bi4Cs4Ge4S16
_chemical_formula_sum              "Bi4 Cs4 Ge4 S16"
_cell_length_a       6.67636
_cell_length_b       6.96699
_cell_length_c       19.3786
_cell_angle_alpha    90
_cell_angle_beta     111.431
_cell_angle_gamma    90

_space_group_name_H-M_alt    "P 1"
_space_group_IT_number       1

loop_
  _space_group_symop_operation_xyz
  'x, y, z'

loop_
  _atom_site_type_symbol
  _atom_site_label
  _atom_site_symmetry_multiplicity
  _atom_site_fract_x
  _atom_site_fract_y
  _atom_site_fract_z
  _atom_site_occupancy
  Bi  Bi1       1.0  0.68700  0.20000  0.22500  1.0000
  Bi  Bi2       1.0  0.31300  0.70000  0.27500  1.0000
  Bi  Bi3       1.0  0.68700  0.30000  0.72500  1.0000
  Bi  Bi4       1.0  0.31300  0.80000  0.77500  1.0000
  Cs  Cs1       1.0  0.77800  0.74600  0.03470  1.0000
  Cs  Cs2       1.0  0.22200  0.24600  0.46500  1.0000
  Cs  Cs3       1.0  0.77800  0.75400  0.53500  1.0000
  Cs  Cs4       1.0  0.22200  0.25400  0.96500  1.0000
  Ge  Ge1       1.0  0.12400  0.27600  0.16300  1.0000
  Ge  Ge2       1.0  0.87600  0.77600  0.33700  1.0000
  Ge  Ge3       1.0  0.12400  0.22400  0.66300  1.0000
  Ge  Ge4       1.0  0.87600  0.72400  0.83700  1.0000
  S   S1        1.0  0.77700  0.24700  0.09290  1.0000
  S   S2        1.0  0.30100  0.52100  0.13900  1.0000
  S   S3        1.0  0.30600  0.01440  0.15200  1.0000
  S   S4        1.0  0.85300  0.83800  0.22000  1.0000
  S   S5        1.0  0.14700  0.33800  0.28000  1.0000
  S   S6        1.0  0.69400  0.51400  0.34800  1.0000
  S   S7        1.0  0.69900  0.02140  0.36100  1.0000
  S   S8        1.0  0.22300  0.74700  0.40700  1.0000
  S   S9        1.0  0.77700  0.25300  0.59300  1.0000
  S   S10       1.0  0.30100  0.97900  0.63900  1.0000
  S   S11       1.0  0.30600  0.48600  0.65200  1.0000
  S   S12       1.0  0.85300  0.66200  0.72000  1.0000
  S   S13       1.0  0.14700  0.16200  0.78000  1.0000
  S   S14       1.0  0.69400  0.98600  0.84800  1.0000
  S   S15       1.0  0.69900  0.47900  0.86100  1.0000
  S   S16       1.0  0.22300  0.75300  0.90700  1.0000
