data_image0
_chemical_formula_structural       B4Cs12S12
_chemical_formula_sum              "B4 Cs12 S12"
_cell_length_a       10.8216
_cell_length_b       6.73519
_cell_length_c       13.811
_cell_angle_alpha    90
_cell_angle_beta     102.666
_cell_angle_gamma    90

_space_group_name_H-M_alt    "P 1"
_space_group_IT_number       1

loop_
  _space_group_symop_operation_xyz
  'x, y, z'

loop_
  _atom_site_type_symbol
  _atom_site_label
  _atom_site_symmetry_multiplicity
  _atom_site_fract_x
  _atom_site_fract_y
  _atom_site_fract_z
  _atom_site_occupancy
  B   B1        1.0  0.23500  0.62900  0.12600  1.0000
  B   B2        1.0  0.76500  0.12900  0.37400  1.0000
  B   B3        1.0  0.23500  0.87100  0.62600  1.0000
  B   B4        1.0  0.76500  0.37100  0.87400  1.0000
  Cs  Cs1       1.0  0.74300  0.84900  0.00831  1.0000
  Cs  Cs2       1.0  0.96800  0.28500  0.14300  1.0000
  Cs  Cs3       1.0  0.59600  0.44800  0.19800  1.0000
  Cs  Cs4       1.0  0.40400  0.94800  0.30200  1.0000
  Cs  Cs5       1.0  0.03160  0.78500  0.35700  1.0000
  Cs  Cs6       1.0  0.25700  0.34900  0.49200  1.0000
  Cs  Cs7       1.0  0.74300  0.65100  0.50800  1.0000
  Cs  Cs8       1.0  0.96800  0.21500  0.64300  1.0000
  Cs  Cs9       1.0  0.59600  0.05160  0.69800  1.0000
  Cs  Cs10      1.0  0.40400  0.55200  0.80200  1.0000
  Cs  Cs11      1.0  0.03160  0.71500  0.85700  1.0000
  Cs  Cs12      1.0  0.25700  0.15100  0.99200  1.0000
  S   S1        1.0  0.33600  0.65800  0.03480  1.0000
  S   S2        1.0  0.09480  0.78800  0.11800  1.0000
  S   S3        1.0  0.27900  0.44400  0.22700  1.0000
  S   S4        1.0  0.72100  0.94400  0.27300  1.0000
  S   S5        1.0  0.90500  0.28800  0.38200  1.0000
  S   S6        1.0  0.66400  0.15800  0.46500  1.0000
  S   S7        1.0  0.33600  0.84200  0.53500  1.0000
  S   S8        1.0  0.09480  0.71200  0.61800  1.0000
  S   S9        1.0  0.27900  0.05590  0.72700  1.0000
  S   S10       1.0  0.72100  0.55600  0.77300  1.0000
  S   S11       1.0  0.90500  0.21200  0.88200  1.0000
  S   S12       1.0  0.66400  0.34200  0.96500  1.0000
