data_image0
_chemical_formula_structural       Ce4P8Pt16
_chemical_formula_sum              "Ce4 P8 Pt16"
_cell_length_a       7.39453
_cell_length_b       4.22694
_cell_length_c       15.7174
_cell_angle_alpha    90
_cell_angle_beta     90
_cell_angle_gamma    90

_space_group_name_H-M_alt    "P 1"
_space_group_IT_number       1

loop_
  _space_group_symop_operation_xyz
  'x, y, z'

loop_
  _atom_site_type_symbol
  _atom_site_label
  _atom_site_symmetry_multiplicity
  _atom_site_fract_x
  _atom_site_fract_y
  _atom_site_fract_z
  _atom_site_occupancy
  Ce  Ce1       1.0  0.64900  0.25000  0.18200  1.0000
  Ce  Ce2       1.0  0.14900  0.25000  0.31800  1.0000
  Ce  Ce3       1.0  0.85100  0.75000  0.68200  1.0000
  Ce  Ce4       1.0  0.35100  0.75000  0.81800  1.0000
  P   P1        1.0  0.78900  0.75000  0.05560  1.0000
  P   P2        1.0  0.31200  0.75000  0.19100  1.0000
  P   P3        1.0  0.81200  0.75000  0.30900  1.0000
  P   P4        1.0  0.28900  0.75000  0.44400  1.0000
  P   P5        1.0  0.71100  0.25000  0.55600  1.0000
  P   P6        1.0  0.18800  0.25000  0.69100  1.0000
  P   P7        1.0  0.68800  0.25000  0.80900  1.0000
  P   P8        1.0  0.21100  0.25000  0.94400  1.0000
  Pt  Pt1       1.0  0.87400  0.25000  0.00079  1.0000
  Pt  Pt2       1.0  0.47000  0.75000  0.05620  1.0000
  Pt  Pt3       1.0  0.24000  0.25000  0.12200  1.0000
  Pt  Pt4       1.0  0.98100  0.75000  0.18200  1.0000
  Pt  Pt5       1.0  0.48100  0.75000  0.31800  1.0000
  Pt  Pt6       1.0  0.74000  0.25000  0.37800  1.0000
  Pt  Pt7       1.0  0.97000  0.75000  0.44400  1.0000
  Pt  Pt8       1.0  0.37400  0.25000  0.49900  1.0000
  Pt  Pt9       1.0  0.62600  0.75000  0.50100  1.0000
  Pt  Pt10      1.0  0.02970  0.25000  0.55600  1.0000
  Pt  Pt11      1.0  0.26000  0.75000  0.62200  1.0000
  Pt  Pt12      1.0  0.51900  0.25000  0.68200  1.0000
  Pt  Pt13      1.0  0.01880  0.25000  0.81800  1.0000
  Pt  Pt14      1.0  0.76000  0.75000  0.87800  1.0000
  Pt  Pt15      1.0  0.53000  0.25000  0.94400  1.0000
  Pt  Pt16      1.0  0.12600  0.75000  0.99900  1.0000
