data_image0
_chemical_formula_structural       B4Ga4O16Pb4
_chemical_formula_sum              "B4 Ga4 O16 Pb4"
_cell_length_a       6.87961
_cell_length_b       5.92008
_cell_length_c       8.32284
_cell_angle_alpha    90
_cell_angle_beta     90
_cell_angle_gamma    90

_space_group_name_H-M_alt    "P 1"
_space_group_IT_number       1

loop_
  _space_group_symop_operation_xyz
  'x, y, z'

loop_
  _atom_site_type_symbol
  _atom_site_label
  _atom_site_symmetry_multiplicity
  _atom_site_fract_x
  _atom_site_fract_y
  _atom_site_fract_z
  _atom_site_occupancy
  B   B1        1.0  0.72200  0.75000  0.23500  1.0000
  B   B2        1.0  0.22200  0.75000  0.26500  1.0000
  B   B3        1.0  0.77800  0.25000  0.73500  1.0000
  B   B4        1.0  0.27800  0.25000  0.76500  1.0000
  Ga  Ga1       1.0  0.00000  0.00000  0.00000  1.0000
  Ga  Ga2       1.0  0.00000  0.50000  0.00000  1.0000
  Ga  Ga3       1.0  0.50000  0.00000  0.50000  1.0000
  Ga  Ga4       1.0  0.50000  0.50000  0.50000  1.0000
  O   O1        1.0  0.81600  0.75000  0.08820  1.0000
  O   O2        1.0  0.89200  0.25000  0.11300  1.0000
  O   O3        1.0  0.17400  0.54600  0.19300  1.0000
  O   O4        1.0  0.17400  0.95400  0.19300  1.0000
  O   O5        1.0  0.67400  0.54600  0.30700  1.0000
  O   O6        1.0  0.67400  0.95400  0.30700  1.0000
  O   O7        1.0  0.39200  0.25000  0.38700  1.0000
  O   O8        1.0  0.31600  0.75000  0.41200  1.0000
  O   O9        1.0  0.68400  0.25000  0.58800  1.0000
  O   O10       1.0  0.60800  0.75000  0.61300  1.0000
  O   O11       1.0  0.32600  0.04640  0.69300  1.0000
  O   O12       1.0  0.32600  0.45400  0.69300  1.0000
  O   O13       1.0  0.82600  0.04640  0.80700  1.0000
  O   O14       1.0  0.82600  0.45400  0.80700  1.0000
  O   O15       1.0  0.10800  0.75000  0.88700  1.0000
  O   O16       1.0  0.18400  0.25000  0.91200  1.0000
  Pb  Pb1       1.0  0.54700  0.25000  0.13900  1.0000
  Pb  Pb2       1.0  0.04730  0.25000  0.36100  1.0000
  Pb  Pb3       1.0  0.95300  0.75000  0.63900  1.0000
  Pb  Pb4       1.0  0.45300  0.75000  0.86100  1.0000
