data_image0
_chemical_formula_structural       Br12Si4Tb12
_chemical_formula_sum              "Br12 Si4 Tb12"
_cell_length_a       10.0725
_cell_length_b       10.0725
_cell_length_c       10.0725
_cell_angle_alpha    109.471
_cell_angle_beta     109.471
_cell_angle_gamma    109.471

_space_group_name_H-M_alt    "P 1"
_space_group_IT_number       1

loop_
  _space_group_symop_operation_xyz
  'x, y, z'

loop_
  _atom_site_type_symbol
  _atom_site_label
  _atom_site_symmetry_multiplicity
  _atom_site_fract_x
  _atom_site_fract_y
  _atom_site_fract_z
  _atom_site_occupancy
  Br  Br1       1.0  0.25500  0.24500  0.25000  1.0000
  Br  Br2       1.0  0.49500  0.00549  0.25000  1.0000
  Br  Br3       1.0  0.75000  0.49500  0.50500  1.0000
  Br  Br4       1.0  0.25500  0.01100  0.50500  1.0000
  Br  Br5       1.0  0.00549  0.25500  0.51100  1.0000
  Br  Br6       1.0  0.75000  0.25500  0.74500  1.0000
  Br  Br7       1.0  0.49500  0.48900  0.74500  1.0000
  Br  Br8       1.0  0.01100  0.00549  0.75500  1.0000
  Br  Br9       1.0  0.24500  0.75000  0.75500  1.0000
  Br  Br10      1.0  0.24500  0.49500  0.98900  1.0000
  Br  Br11      1.0  0.00549  0.75000  0.99500  1.0000
  Br  Br12      1.0  0.48900  0.24500  0.99500  1.0000
  Si  Si1       1.0  0.75000  0.00000  0.00000  1.0000
  Si  Si2       1.0  0.75000  0.75000  0.25000  1.0000
  Si  Si3       1.0  0.00000  0.50000  0.25000  1.0000
  Si  Si4       1.0  0.50000  0.75000  0.50000  1.0000
  Tb  Tb1       1.0  0.52400  0.76200  0.01210  1.0000
  Tb  Tb2       1.0  0.98800  0.25000  0.01210  1.0000
  Tb  Tb3       1.0  0.76200  0.51200  0.02420  1.0000
  Tb  Tb4       1.0  0.97600  0.98800  0.23800  1.0000
  Tb  Tb5       1.0  0.76200  0.25000  0.23800  1.0000
  Tb  Tb6       1.0  0.51200  0.52400  0.26200  1.0000
  Tb  Tb7       1.0  0.25000  0.73800  0.26200  1.0000
  Tb  Tb8       1.0  0.98800  0.73800  0.47600  1.0000
  Tb  Tb9       1.0  0.73800  0.97600  0.48800  1.0000
  Tb  Tb10      1.0  0.25000  0.51200  0.48800  1.0000
  Tb  Tb11      1.0  0.51200  0.98800  0.75000  1.0000
  Tb  Tb12      1.0  0.73800  0.76200  0.75000  1.0000
