data_image0
_chemical_formula_structural       Ba4C8O16
_chemical_formula_sum              "Ba4 C8 O16"
_cell_length_a       5.06286
_cell_length_b       8.86531
_cell_length_c       8.55528
_cell_angle_alpha    91.3112
_cell_angle_beta     93.1028
_cell_angle_gamma    98.4628

_space_group_name_H-M_alt    "P 1"
_space_group_IT_number       1

loop_
  _space_group_symop_operation_xyz
  'x, y, z'

loop_
  _atom_site_type_symbol
  _atom_site_label
  _atom_site_symmetry_multiplicity
  _atom_site_fract_x
  _atom_site_fract_y
  _atom_site_fract_z
  _atom_site_occupancy
  Ba  Ba1       1.0  0.95800  0.26300  0.08460  1.0000
  Ba  Ba2       1.0  0.01620  0.73700  0.40600  1.0000
  Ba  Ba3       1.0  0.98400  0.26300  0.59400  1.0000
  Ba  Ba4       1.0  0.04170  0.73700  0.91500  1.0000
  C   C1        1.0  0.37200  0.02390  0.17900  1.0000
  C   C2        1.0  0.46500  0.55000  0.19200  1.0000
  C   C3        1.0  0.58500  0.99300  0.30800  1.0000
  C   C4        1.0  0.49600  0.43100  0.32200  1.0000
  C   C5        1.0  0.50400  0.56900  0.67800  1.0000
  C   C6        1.0  0.41500  0.00706  0.69200  1.0000
  C   C7        1.0  0.53500  0.45000  0.80800  1.0000
  C   C8        1.0  0.62800  0.97600  0.82100  1.0000
  O   O1        1.0  0.43100  0.13600  0.09240  1.0000
  O   O2        1.0  0.67500  0.62100  0.14100  1.0000
  O   O3        1.0  0.22500  0.56500  0.14900  1.0000
  O   O4        1.0  0.15000  0.93500  0.17000  1.0000
  O   O5        1.0  0.78700  0.09470  0.33300  1.0000
  O   O6        1.0  0.29200  0.33600  0.34500  1.0000
  O   O7        1.0  0.54500  0.86700  0.37600  1.0000
  O   O8        1.0  0.72500  0.44000  0.39200  1.0000
  O   O9        1.0  0.27500  0.56000  0.60800  1.0000
  O   O10       1.0  0.45500  0.13300  0.62400  1.0000
  O   O11       1.0  0.70800  0.66400  0.65500  1.0000
  O   O12       1.0  0.21300  0.90500  0.66700  1.0000
  O   O13       1.0  0.85000  0.06450  0.83000  1.0000
  O   O14       1.0  0.77500  0.43500  0.85100  1.0000
  O   O15       1.0  0.32500  0.37900  0.85900  1.0000
  O   O16       1.0  0.56900  0.86400  0.90800  1.0000
