data_image0
_chemical_formula_structural       Al4Na12Te12
_chemical_formula_sum              "Al4 Na12 Te12"
_cell_length_a       8.02252
_cell_length_b       7.72026
_cell_length_c       14.0518
_cell_angle_alpha    90
_cell_angle_beta     90.492
_cell_angle_gamma    90

_space_group_name_H-M_alt    "P 1"
_space_group_IT_number       1

loop_
  _space_group_symop_operation_xyz
  'x, y, z'

loop_
  _atom_site_type_symbol
  _atom_site_label
  _atom_site_symmetry_multiplicity
  _atom_site_fract_x
  _atom_site_fract_y
  _atom_site_fract_z
  _atom_site_occupancy
  Al  Al1       1.0  0.41700  0.14100  0.08230  1.0000
  Al  Al2       1.0  0.08350  0.64100  0.41800  1.0000
  Al  Al3       1.0  0.91700  0.35900  0.58200  1.0000
  Al  Al4       1.0  0.58300  0.85900  0.91800  1.0000
  Na  Na1       1.0  0.78000  0.50000  0.09990  1.0000
  Na  Na2       1.0  0.82500  0.00101  0.10400  1.0000
  Na  Na3       1.0  0.27500  0.51900  0.22300  1.0000
  Na  Na4       1.0  0.22500  0.01930  0.27700  1.0000
  Na  Na5       1.0  0.67500  0.50100  0.39600  1.0000
  Na  Na6       1.0  0.72000  0.00000  0.40000  1.0000
  Na  Na7       1.0  0.28000  0.00026  0.60000  1.0000
  Na  Na8       1.0  0.32500  0.49900  0.60400  1.0000
  Na  Na9       1.0  0.77500  0.98100  0.72300  1.0000
  Na  Na10      1.0  0.72500  0.48100  0.77700  1.0000
  Na  Na11      1.0  0.17500  0.99900  0.89600  1.0000
  Na  Na12      1.0  0.22000  0.50000  0.90000  1.0000
  Te  Te1       1.0  0.11500  0.26000  0.07440  1.0000
  Te  Te2       1.0  0.41700  0.79300  0.07500  1.0000
  Te  Te3       1.0  0.57700  0.24200  0.23300  1.0000
  Te  Te4       1.0  0.92300  0.74200  0.26700  1.0000
  Te  Te5       1.0  0.08280  0.29300  0.42500  1.0000
  Te  Te6       1.0  0.38500  0.76000  0.42600  1.0000
  Te  Te7       1.0  0.61500  0.24000  0.57400  1.0000
  Te  Te8       1.0  0.91700  0.70700  0.57500  1.0000
  Te  Te9       1.0  0.07710  0.25800  0.73300  1.0000
  Te  Te10      1.0  0.42300  0.75800  0.76700  1.0000
  Te  Te11      1.0  0.58300  0.20700  0.92500  1.0000
  Te  Te12      1.0  0.88500  0.74000  0.92600  1.0000
