data_image0
_chemical_formula_structural       C4Cl4F16I4
_chemical_formula_sum              "C4 Cl4 F16 I4"
_cell_length_a       4.80871
_cell_length_b       4.80871
_cell_length_c       19.0934
_cell_angle_alpha    90
_cell_angle_beta     90
_cell_angle_gamma    95.7932

_space_group_name_H-M_alt    "P 1"
_space_group_IT_number       1

loop_
  _space_group_symop_operation_xyz
  'x, y, z'

loop_
  _atom_site_type_symbol
  _atom_site_label
  _atom_site_symmetry_multiplicity
  _atom_site_fract_x
  _atom_site_fract_y
  _atom_site_fract_z
  _atom_site_occupancy
  C   C1        1.0  0.21600  0.78400  0.07580  1.0000
  C   C2        1.0  0.71600  0.28400  0.42400  1.0000
  C   C3        1.0  0.28400  0.71600  0.57600  1.0000
  C   C4        1.0  0.78400  0.21600  0.92400  1.0000
  Cl  Cl1       1.0  0.83200  0.16800  0.14700  1.0000
  Cl  Cl2       1.0  0.33200  0.66800  0.35300  1.0000
  Cl  Cl3       1.0  0.66800  0.33200  0.64700  1.0000
  Cl  Cl4       1.0  0.16800  0.83200  0.85300  1.0000
  F   F1        1.0  0.30800  0.03040  0.04730  1.0000
  F   F2        1.0  0.97000  0.69200  0.04730  1.0000
  F   F3        1.0  0.40100  0.59900  0.06440  1.0000
  F   F4        1.0  0.44200  0.55800  0.19800  1.0000
  F   F5        1.0  0.94200  0.05760  0.30200  1.0000
  F   F6        1.0  0.90100  0.09880  0.43600  1.0000
  F   F7        1.0  0.47000  0.19200  0.45300  1.0000
  F   F8        1.0  0.80800  0.53000  0.45300  1.0000
  F   F9        1.0  0.19200  0.47000  0.54700  1.0000
  F   F10       1.0  0.53000  0.80800  0.54700  1.0000
  F   F11       1.0  0.09880  0.90100  0.56400  1.0000
  F   F12       1.0  0.05760  0.94200  0.69800  1.0000
  F   F13       1.0  0.55800  0.44200  0.80200  1.0000
  F   F14       1.0  0.59900  0.40100  0.93600  1.0000
  F   F15       1.0  0.03040  0.30800  0.95300  1.0000
  F   F16       1.0  0.69200  0.97000  0.95300  1.0000
  I   I1        1.0  0.15400  0.84600  0.18900  1.0000
  I   I2        1.0  0.65400  0.34600  0.31100  1.0000
  I   I3        1.0  0.34600  0.65400  0.68900  1.0000
  I   I4        1.0  0.84600  0.15400  0.81100  1.0000
