data_image0
_chemical_formula_structural       Mn8Sn4Te16
_chemical_formula_sum              "Mn8 Sn4 Te16"
_cell_length_a       13.7502
_cell_length_b       8.14541
_cell_length_c       7.34187
_cell_angle_alpha    90
_cell_angle_beta     90
_cell_angle_gamma    90

_space_group_name_H-M_alt    "P 1"
_space_group_IT_number       1

loop_
  _space_group_symop_operation_xyz
  'x, y, z'

loop_
  _atom_site_type_symbol
  _atom_site_label
  _atom_site_symmetry_multiplicity
  _atom_site_fract_x
  _atom_site_fract_y
  _atom_site_fract_z
  _atom_site_occupancy
  Mn  Mn1       1.0  0.00000  0.00000  0.00000  1.0000
  Mn  Mn2       1.0  0.00000  0.50000  0.00000  1.0000
  Mn  Mn3       1.0  0.73500  0.25000  0.01190  1.0000
  Mn  Mn4       1.0  0.23500  0.25000  0.48800  1.0000
  Mn  Mn5       1.0  0.50000  0.00000  0.50000  1.0000
  Mn  Mn6       1.0  0.50000  0.50000  0.50000  1.0000
  Mn  Mn7       1.0  0.76500  0.75000  0.51200  1.0000
  Mn  Mn8       1.0  0.26500  0.75000  0.98800  1.0000
  Sn  Sn1       1.0  0.40600  0.25000  0.07670  1.0000
  Sn  Sn2       1.0  0.90600  0.25000  0.42300  1.0000
  Sn  Sn3       1.0  0.09390  0.75000  0.57700  1.0000
  Sn  Sn4       1.0  0.59400  0.75000  0.92300  1.0000
  Te  Te1       1.0  0.08990  0.75000  0.16300  1.0000
  Te  Te2       1.0  0.82800  0.52100  0.21200  1.0000
  Te  Te3       1.0  0.82800  0.97900  0.21200  1.0000
  Te  Te4       1.0  0.08960  0.25000  0.23000  1.0000
  Te  Te5       1.0  0.59000  0.25000  0.27000  1.0000
  Te  Te6       1.0  0.32800  0.52100  0.28800  1.0000
  Te  Te7       1.0  0.32800  0.97900  0.28800  1.0000
  Te  Te8       1.0  0.59000  0.75000  0.33700  1.0000
  Te  Te9       1.0  0.41000  0.25000  0.66300  1.0000
  Te  Te10      1.0  0.67200  0.02120  0.71200  1.0000
  Te  Te11      1.0  0.67200  0.47900  0.71200  1.0000
  Te  Te12      1.0  0.41000  0.75000  0.73000  1.0000
  Te  Te13      1.0  0.91000  0.75000  0.77000  1.0000
  Te  Te14      1.0  0.17200  0.02120  0.78800  1.0000
  Te  Te15      1.0  0.17200  0.47900  0.78800  1.0000
  Te  Te16      1.0  0.91000  0.25000  0.83700  1.0000
