data_image0
_chemical_formula_structural       Al2Cs12K6Sb8
_chemical_formula_sum              "Al2 Cs12 K6 Sb8"
_cell_length_a       11.1589
_cell_length_b       11.1589
_cell_length_c       11.6685
_cell_angle_alpha    90
_cell_angle_beta     90
_cell_angle_gamma    120

_space_group_name_H-M_alt    "P 1"
_space_group_IT_number       1

loop_
  _space_group_symop_operation_xyz
  'x, y, z'

loop_
  _atom_site_type_symbol
  _atom_site_label
  _atom_site_symmetry_multiplicity
  _atom_site_fract_x
  _atom_site_fract_y
  _atom_site_fract_z
  _atom_site_occupancy
  Al  Al1       1.0  0.33300  0.66700  0.25000  1.0000
  Al  Al2       1.0  0.66700  0.33300  0.75000  1.0000
  Cs  Cs1       1.0  0.41800  0.20900  0.04320  1.0000
  Cs  Cs2       1.0  0.79100  0.20900  0.04320  1.0000
  Cs  Cs3       1.0  0.79100  0.58200  0.04320  1.0000
  Cs  Cs4       1.0  0.79100  0.58200  0.45700  1.0000
  Cs  Cs5       1.0  0.41800  0.20900  0.45700  1.0000
  Cs  Cs6       1.0  0.79100  0.20900  0.45700  1.0000
  Cs  Cs7       1.0  0.20900  0.79100  0.54300  1.0000
  Cs  Cs8       1.0  0.58200  0.79100  0.54300  1.0000
  Cs  Cs9       1.0  0.20900  0.41800  0.54300  1.0000
  Cs  Cs10      1.0  0.20900  0.41800  0.95700  1.0000
  Cs  Cs11      1.0  0.20900  0.79100  0.95700  1.0000
  Cs  Cs12      1.0  0.58200  0.79100  0.95700  1.0000
  K   K1        1.0  0.11900  0.23800  0.25000  1.0000
  K   K2        1.0  0.11900  0.88100  0.25000  1.0000
  K   K3        1.0  0.76200  0.88100  0.25000  1.0000
  K   K4        1.0  0.23800  0.11900  0.75000  1.0000
  K   K5        1.0  0.88100  0.11900  0.75000  1.0000
  K   K6        1.0  0.88100  0.76200  0.75000  1.0000
  Sb  Sb1       1.0  0.00000  0.00000  0.00000  1.0000
  Sb  Sb2       1.0  0.05560  0.52800  0.25000  1.0000
  Sb  Sb3       1.0  0.47200  0.52800  0.25000  1.0000
  Sb  Sb4       1.0  0.47200  0.94400  0.25000  1.0000
  Sb  Sb5       1.0  0.00000  0.00000  0.50000  1.0000
  Sb  Sb6       1.0  0.52800  0.05560  0.75000  1.0000
  Sb  Sb7       1.0  0.52800  0.47200  0.75000  1.0000
  Sb  Sb8       1.0  0.94400  0.47200  0.75000  1.0000
