data_image0
_chemical_formula_structural       O20Ta4V4
_chemical_formula_sum              "O20 Ta4 V4"
_cell_length_a       11.9252
_cell_length_b       5.56036
_cell_length_c       6.94865
_cell_angle_alpha    90
_cell_angle_beta     90
_cell_angle_gamma    90

_space_group_name_H-M_alt    "P 1"
_space_group_IT_number       1

loop_
  _space_group_symop_operation_xyz
  'x, y, z'

loop_
  _atom_site_type_symbol
  _atom_site_label
  _atom_site_symmetry_multiplicity
  _atom_site_fract_x
  _atom_site_fract_y
  _atom_site_fract_z
  _atom_site_occupancy
  O   O1        1.0  0.50000  0.00000  0.00000  1.0000
  O   O2        1.0  0.50000  0.50000  0.00000  1.0000
  O   O3        1.0  0.70200  0.25000  0.01990  1.0000
  O   O4        1.0  0.12400  0.00399  0.15600  1.0000
  O   O5        1.0  0.12400  0.49600  0.15600  1.0000
  O   O6        1.0  0.91800  0.25000  0.18500  1.0000
  O   O7        1.0  0.41800  0.25000  0.31500  1.0000
  O   O8        1.0  0.62400  0.00399  0.34400  1.0000
  O   O9        1.0  0.62400  0.49600  0.34400  1.0000
  O   O10       1.0  0.20200  0.25000  0.48000  1.0000
  O   O11       1.0  0.00000  0.00000  0.50000  1.0000
  O   O12       1.0  0.00000  0.50000  0.50000  1.0000
  O   O13       1.0  0.79800  0.75000  0.52000  1.0000
  O   O14       1.0  0.37600  0.50400  0.65600  1.0000
  O   O15       1.0  0.37600  0.99600  0.65600  1.0000
  O   O16       1.0  0.58200  0.75000  0.68500  1.0000
  O   O17       1.0  0.08180  0.75000  0.81500  1.0000
  O   O18       1.0  0.87600  0.50400  0.84400  1.0000
  O   O19       1.0  0.87600  0.99600  0.84400  1.0000
  O   O20       1.0  0.29800  0.75000  0.98000  1.0000
  Ta  Ta1       1.0  0.55800  0.25000  0.15900  1.0000
  Ta  Ta2       1.0  0.05780  0.25000  0.34100  1.0000
  Ta  Ta3       1.0  0.94200  0.75000  0.65900  1.0000
  Ta  Ta4       1.0  0.44200  0.75000  0.84100  1.0000
  V   V1        1.0  0.15600  0.75000  0.02890  1.0000
  V   V2        1.0  0.65600  0.75000  0.47100  1.0000
  V   V3        1.0  0.34400  0.25000  0.52900  1.0000
  V   V4        1.0  0.84400  0.25000  0.97100  1.0000
