data_image0
_chemical_formula_structural       C4K4N12O8
_chemical_formula_sum              "C4 K4 N12 O8"
_cell_length_a       6.82341
_cell_length_b       7.27317
_cell_length_c       8.12656
_cell_angle_alpha    90
_cell_angle_beta     107.949
_cell_angle_gamma    90

_space_group_name_H-M_alt    "P 1"
_space_group_IT_number       1

loop_
  _space_group_symop_operation_xyz
  'x, y, z'

loop_
  _atom_site_type_symbol
  _atom_site_label
  _atom_site_symmetry_multiplicity
  _atom_site_fract_x
  _atom_site_fract_y
  _atom_site_fract_z
  _atom_site_occupancy
  C   C1        1.0  0.57100  0.94000  0.20900  1.0000
  C   C2        1.0  0.42900  0.44000  0.29100  1.0000
  C   C3        1.0  0.57100  0.56000  0.70900  1.0000
  C   C4        1.0  0.42900  0.05960  0.79100  1.0000
  K   K1        1.0  0.85400  0.60300  0.14800  1.0000
  K   K2        1.0  0.14600  0.10300  0.35200  1.0000
  K   K3        1.0  0.85400  0.89700  0.64800  1.0000
  K   K4        1.0  0.14600  0.39700  0.85200  1.0000
  N   N1        1.0  0.29600  0.80000  0.03940  1.0000
  N   N2        1.0  0.36800  0.94200  0.14700  1.0000
  N   N3        1.0  0.24900  0.45100  0.22800  1.0000
  N   N4        1.0  0.75100  0.95100  0.27200  1.0000
  N   N5        1.0  0.63200  0.44200  0.35300  1.0000
  N   N6        1.0  0.70400  0.30000  0.46100  1.0000
  N   N7        1.0  0.29600  0.70000  0.53900  1.0000
  N   N8        1.0  0.36800  0.55800  0.64700  1.0000
  N   N9        1.0  0.24900  0.04940  0.72800  1.0000
  N   N10       1.0  0.75100  0.54900  0.77200  1.0000
  N   N11       1.0  0.63200  0.05760  0.85300  1.0000
  N   N12       1.0  0.70400  0.20000  0.96100  1.0000
  O   O1        1.0  0.58200  0.30900  0.00000  1.0000
  O   O2        1.0  0.41800  0.69100  0.00000  1.0000
  O   O3        1.0  0.89600  0.21800  0.01860  1.0000
  O   O4        1.0  0.10400  0.71800  0.48100  1.0000
  O   O5        1.0  0.41800  0.80900  0.50000  1.0000
  O   O6        1.0  0.58200  0.19100  0.50000  1.0000
  O   O7        1.0  0.89600  0.28200  0.51900  1.0000
  O   O8        1.0  0.10400  0.78200  0.98100  1.0000
