data_image0
_chemical_formula_structural       Ga4Na12Se12
_chemical_formula_sum              "Ga4 Na12 Se12"
_cell_length_a       7.52866
_cell_length_b       7.29151
_cell_length_c       13.2867
_cell_angle_alpha    90
_cell_angle_beta     90.6367
_cell_angle_gamma    90

_space_group_name_H-M_alt    "P 1"
_space_group_IT_number       1

loop_
  _space_group_symop_operation_xyz
  'x, y, z'

loop_
  _atom_site_type_symbol
  _atom_site_label
  _atom_site_symmetry_multiplicity
  _atom_site_fract_x
  _atom_site_fract_y
  _atom_site_fract_z
  _atom_site_occupancy
  Ga  Ga1       1.0  0.41500  0.14200  0.08280  1.0000
  Ga  Ga2       1.0  0.08490  0.64200  0.41700  1.0000
  Ga  Ga3       1.0  0.91500  0.35800  0.58300  1.0000
  Ga  Ga4       1.0  0.58500  0.85800  0.91700  1.0000
  Na  Na1       1.0  0.79000  0.50000  0.10200  1.0000
  Na  Na2       1.0  0.83700  0.99900  0.10800  1.0000
  Na  Na3       1.0  0.27400  0.53100  0.21300  1.0000
  Na  Na4       1.0  0.22600  0.03150  0.28700  1.0000
  Na  Na5       1.0  0.66300  0.49900  0.39200  1.0000
  Na  Na6       1.0  0.71000  0.00000  0.39800  1.0000
  Na  Na7       1.0  0.29000  0.00042  0.60200  1.0000
  Na  Na8       1.0  0.33700  0.50100  0.60800  1.0000
  Na  Na9       1.0  0.77400  0.96900  0.71300  1.0000
  Na  Na10      1.0  0.72600  0.46900  0.78700  1.0000
  Na  Na11      1.0  0.16300  0.00086  0.89200  1.0000
  Na  Na12      1.0  0.21000  0.50000  0.89800  1.0000
  Se  Se1       1.0  0.11900  0.26000  0.07240  1.0000
  Se  Se2       1.0  0.42100  0.80100  0.07270  1.0000
  Se  Se3       1.0  0.57500  0.24500  0.22900  1.0000
  Se  Se4       1.0  0.92500  0.74500  0.27100  1.0000
  Se  Se5       1.0  0.07880  0.30100  0.42700  1.0000
  Se  Se6       1.0  0.38100  0.76000  0.42800  1.0000
  Se  Se7       1.0  0.61900  0.24000  0.57200  1.0000
  Se  Se8       1.0  0.92100  0.69900  0.57300  1.0000
  Se  Se9       1.0  0.07460  0.25500  0.72900  1.0000
  Se  Se10      1.0  0.42500  0.75500  0.77100  1.0000
  Se  Se11      1.0  0.57900  0.19900  0.92700  1.0000
  Se  Se12      1.0  0.88100  0.74000  0.92800  1.0000
