data_image0
_chemical_formula_structural       La6Ni2O12S6W2
_chemical_formula_sum              "La6 Ni2 O12 S6 W2"
_cell_length_a       9.40724
_cell_length_b       9.40728
_cell_length_c       5.48653
_cell_angle_alpha    90
_cell_angle_beta     90
_cell_angle_gamma    120

_space_group_name_H-M_alt    "P 1"
_space_group_IT_number       1

loop_
  _space_group_symop_operation_xyz
  'x, y, z'

loop_
  _atom_site_type_symbol
  _atom_site_label
  _atom_site_symmetry_multiplicity
  _atom_site_fract_x
  _atom_site_fract_y
  _atom_site_fract_z
  _atom_site_occupancy
  La  La1       1.0  0.40500  0.09030  0.25000  1.0000
  La  La2       1.0  0.91000  0.31500  0.25000  1.0000
  La  La3       1.0  0.68500  0.59500  0.25000  1.0000
  La  La4       1.0  0.31500  0.40500  0.75000  1.0000
  La  La5       1.0  0.09030  0.68500  0.75000  1.0000
  La  La6       1.0  0.59500  0.91000  0.75000  1.0000
  Ni  Ni1       1.0  0.00000  0.00000  0.00000  1.0000
  Ni  Ni2       1.0  0.00000  0.00000  0.50000  1.0000
  O   O1        1.0  0.47500  0.63600  0.02220  1.0000
  O   O2        1.0  0.36400  0.83900  0.02220  1.0000
  O   O3        1.0  0.16100  0.52600  0.02220  1.0000
  O   O4        1.0  0.16100  0.52600  0.47800  1.0000
  O   O5        1.0  0.47500  0.63600  0.47800  1.0000
  O   O6        1.0  0.36400  0.83900  0.47800  1.0000
  O   O7        1.0  0.63600  0.16100  0.52200  1.0000
  O   O8        1.0  0.52500  0.36400  0.52200  1.0000
  O   O9        1.0  0.83900  0.47400  0.52200  1.0000
  O   O10       1.0  0.83900  0.47400  0.97800  1.0000
  O   O11       1.0  0.63600  0.16100  0.97800  1.0000
  O   O12       1.0  0.52500  0.36400  0.97800  1.0000
  S   S1        1.0  0.17800  0.22500  0.25000  1.0000
  S   S2        1.0  0.04710  0.82200  0.25000  1.0000
  S   S3        1.0  0.77500  0.95300  0.25000  1.0000
  S   S4        1.0  0.22500  0.04710  0.75000  1.0000
  S   S5        1.0  0.95300  0.17800  0.75000  1.0000
  S   S6        1.0  0.82200  0.77500  0.75000  1.0000
  W   W1        1.0  0.33300  0.66700  0.25000  1.0000
  W   W2        1.0  0.66700  0.33300  0.75000  1.0000
