data_image0
_chemical_formula_structural       Cl18Nb6Rb4
_chemical_formula_sum              "Cl18 Nb6 Rb4"
_cell_length_a       9.69702
_cell_length_b       9.87273
_cell_length_c       9.87273
_cell_angle_alpha    115.693
_cell_angle_beta     103.705
_cell_angle_gamma    103.705

_space_group_name_H-M_alt    "P 1"
_space_group_IT_number       1

loop_
  _space_group_symop_operation_xyz
  'x, y, z'

loop_
  _atom_site_type_symbol
  _atom_site_label
  _atom_site_symmetry_multiplicity
  _atom_site_fract_x
  _atom_site_fract_y
  _atom_site_fract_z
  _atom_site_occupancy
  Cl  Cl1       1.0  0.81900  0.60800  0.00523  1.0000
  Cl  Cl2       1.0  0.49300  0.31600  0.10700  1.0000
  Cl  Cl3       1.0  0.16800  0.17700  0.17700  1.0000
  Cl  Cl4       1.0  0.79900  0.25400  0.25400  1.0000
  Cl  Cl5       1.0  0.50000  0.70800  0.29200  1.0000
  Cl  Cl6       1.0  0.49300  0.10700  0.31600  1.0000
  Cl  Cl7       1.0  0.17800  0.57400  0.36500  1.0000
  Cl  Cl8       1.0  0.18100  0.99500  0.39200  1.0000
  Cl  Cl9       1.0  0.82200  0.63500  0.42600  1.0000
  Cl  Cl10      1.0  0.17800  0.36500  0.57400  1.0000
  Cl  Cl11      1.0  0.81900  0.00523  0.60800  1.0000
  Cl  Cl12      1.0  0.82200  0.42600  0.63500  1.0000
  Cl  Cl13      1.0  0.50700  0.89300  0.68400  1.0000
  Cl  Cl14      1.0  0.50000  0.29200  0.70800  1.0000
  Cl  Cl15      1.0  0.20100  0.74600  0.74600  1.0000
  Cl  Cl16      1.0  0.83200  0.82300  0.82300  1.0000
  Cl  Cl17      1.0  0.50700  0.68400  0.89300  1.0000
  Cl  Cl18      1.0  0.18100  0.39200  0.99500  1.0000
  Nb  Nb1       1.0  0.35900  0.45200  0.27600  1.0000
  Nb  Nb2       1.0  0.63500  0.39100  0.39100  1.0000
  Nb  Nb3       1.0  0.35900  0.27600  0.45200  1.0000
  Nb  Nb4       1.0  0.64100  0.72400  0.54800  1.0000
  Nb  Nb5       1.0  0.36500  0.60900  0.60900  1.0000
  Nb  Nb6       1.0  0.64100  0.54800  0.72400  1.0000
  Rb  Rb1       1.0  0.18100  0.73600  0.05300  1.0000
  Rb  Rb2       1.0  0.81900  0.94700  0.26400  1.0000
  Rb  Rb3       1.0  0.18100  0.05300  0.73600  1.0000
  Rb  Rb4       1.0  0.81900  0.26400  0.94700  1.0000
