data_image0
_chemical_formula_structural       Al4K12Se12
_chemical_formula_sum              "Al4 K12 Se12"
_cell_length_a       8.13641
_cell_length_b       13.1434
_cell_length_c       10.596
_cell_angle_alpha    90
_cell_angle_beta     127.704
_cell_angle_gamma    90

_space_group_name_H-M_alt    "P 1"
_space_group_IT_number       1

loop_
  _space_group_symop_operation_xyz
  'x, y, z'

loop_
  _atom_site_type_symbol
  _atom_site_label
  _atom_site_symmetry_multiplicity
  _atom_site_fract_x
  _atom_site_fract_y
  _atom_site_fract_z
  _atom_site_occupancy
  Al  Al1       1.0  0.06430  0.05910  0.16100  1.0000
  Al  Al2       1.0  0.93600  0.55900  0.33900  1.0000
  Al  Al3       1.0  0.06430  0.44100  0.66100  1.0000
  Al  Al4       1.0  0.93600  0.94100  0.83900  1.0000
  K   K1        1.0  0.38300  0.12700  0.02490  1.0000
  K   K2        1.0  0.86800  0.31200  0.08020  1.0000
  K   K3        1.0  0.34300  0.41300  0.10600  1.0000
  K   K4        1.0  0.65700  0.91300  0.39400  1.0000
  K   K5        1.0  0.13200  0.81200  0.42000  1.0000
  K   K6        1.0  0.61700  0.62700  0.47500  1.0000
  K   K7        1.0  0.38300  0.37300  0.52500  1.0000
  K   K8        1.0  0.86800  0.18800  0.58000  1.0000
  K   K9        1.0  0.34300  0.08690  0.60600  1.0000
  K   K10       1.0  0.65700  0.58700  0.89400  1.0000
  K   K11       1.0  0.13200  0.68800  0.92000  1.0000
  K   K12       1.0  0.61700  0.87300  0.97500  1.0000
  Se  Se1       1.0  0.15700  0.89000  0.12400  1.0000
  Se  Se2       1.0  0.65000  0.67500  0.18900  1.0000
  Se  Se3       1.0  0.12600  0.54700  0.23700  1.0000
  Se  Se4       1.0  0.87400  0.04670  0.26300  1.0000
  Se  Se5       1.0  0.35000  0.17500  0.31100  1.0000
  Se  Se6       1.0  0.84300  0.39000  0.37600  1.0000
  Se  Se7       1.0  0.15700  0.61000  0.62400  1.0000
  Se  Se8       1.0  0.65000  0.82500  0.68900  1.0000
  Se  Se9       1.0  0.12600  0.95300  0.73700  1.0000
  Se  Se10      1.0  0.87400  0.45300  0.76300  1.0000
  Se  Se11      1.0  0.35000  0.32500  0.81100  1.0000
  Se  Se12      1.0  0.84300  0.11000  0.87600  1.0000
