data_image0
_chemical_formula_structural       Bi4O12Rb12
_chemical_formula_sum              "Bi4 O12 Rb12"
_cell_length_a       8.73646
_cell_length_b       8.73646
_cell_length_c       8.73646
_cell_angle_alpha    90
_cell_angle_beta     90
_cell_angle_gamma    90

_space_group_name_H-M_alt    "P 1"
_space_group_IT_number       1

loop_
  _space_group_symop_operation_xyz
  'x, y, z'

loop_
  _atom_site_type_symbol
  _atom_site_label
  _atom_site_symmetry_multiplicity
  _atom_site_fract_x
  _atom_site_fract_y
  _atom_site_fract_z
  _atom_site_occupancy
  Bi  Bi1       1.0  0.98200  0.48200  0.01800  1.0000
  Bi  Bi2       1.0  0.01800  0.98200  0.48200  1.0000
  Bi  Bi3       1.0  0.51800  0.51800  0.51800  1.0000
  Bi  Bi4       1.0  0.48200  0.01800  0.98200  1.0000
  O   O1        1.0  0.21500  0.43500  0.00473  1.0000
  O   O2        1.0  0.99500  0.71500  0.06550  1.0000
  O   O3        1.0  0.43500  0.00473  0.21500  1.0000
  O   O4        1.0  0.56500  0.50500  0.28500  1.0000
  O   O5        1.0  0.00473  0.21500  0.43500  1.0000
  O   O6        1.0  0.78500  0.93500  0.49500  1.0000
  O   O7        1.0  0.28500  0.56500  0.50500  1.0000
  O   O8        1.0  0.50500  0.28500  0.56500  1.0000
  O   O9        1.0  0.06550  0.99500  0.71500  1.0000
  O   O10       1.0  0.93500  0.49500  0.78500  1.0000
  O   O11       1.0  0.49500  0.78500  0.93500  1.0000
  O   O12       1.0  0.71500  0.06550  0.99500  1.0000
  Rb  Rb1       1.0  0.02730  0.02730  0.02730  1.0000
  Rb  Rb2       1.0  0.29100  0.70900  0.20900  1.0000
  Rb  Rb3       1.0  0.71400  0.78600  0.21400  1.0000
  Rb  Rb4       1.0  0.28600  0.28600  0.28600  1.0000
  Rb  Rb5       1.0  0.70900  0.20900  0.29100  1.0000
  Rb  Rb6       1.0  0.97300  0.52700  0.47300  1.0000
  Rb  Rb7       1.0  0.47300  0.97300  0.52700  1.0000
  Rb  Rb8       1.0  0.20900  0.29100  0.70900  1.0000
  Rb  Rb9       1.0  0.78600  0.21400  0.71400  1.0000
  Rb  Rb10      1.0  0.21400  0.71400  0.78600  1.0000
  Rb  Rb11      1.0  0.79100  0.79100  0.79100  1.0000
  Rb  Rb12      1.0  0.52700  0.47300  0.97300  1.0000
