data_image0
_chemical_formula_structural       Bi4K12O12
_chemical_formula_sum              "Bi4 K12 O12"
_cell_length_a       9.23002
_cell_length_b       9.23002
_cell_length_c       9.23002
_cell_angle_alpha    109.471
_cell_angle_beta     109.471
_cell_angle_gamma    109.471

_space_group_name_H-M_alt    "P 1"
_space_group_IT_number       1

loop_
  _space_group_symop_operation_xyz
  'x, y, z'

loop_
  _atom_site_type_symbol
  _atom_site_label
  _atom_site_symmetry_multiplicity
  _atom_site_fract_x
  _atom_site_fract_y
  _atom_site_fract_z
  _atom_site_occupancy
  Bi  Bi1       1.0  0.71000  0.00000  0.00000  1.0000
  Bi  Bi2       1.0  0.00000  0.71000  0.00000  1.0000
  Bi  Bi3       1.0  0.29000  0.29000  0.29000  1.0000
  Bi  Bi4       1.0  0.00000  0.00000  0.71000  1.0000
  K   K1        1.0  0.51700  0.27200  0.00000  1.0000
  K   K2        1.0  0.27200  0.51700  0.00000  1.0000
  K   K3        1.0  0.72800  0.72800  0.24600  1.0000
  K   K4        1.0  0.51700  0.00000  0.27200  1.0000
  K   K5        1.0  0.00000  0.51700  0.27200  1.0000
  K   K6        1.0  0.75400  0.48300  0.48300  1.0000
  K   K7        1.0  0.48300  0.75400  0.48300  1.0000
  K   K8        1.0  0.27200  0.00000  0.51700  1.0000
  K   K9        1.0  0.00000  0.27200  0.51700  1.0000
  K   K10       1.0  0.72800  0.24600  0.72800  1.0000
  K   K11       1.0  0.24600  0.72800  0.72800  1.0000
  K   K12       1.0  0.48300  0.48300  0.75400  1.0000
  O   O1        1.0  0.78900  0.53100  0.00000  1.0000
  O   O2        1.0  0.53100  0.78900  0.00000  1.0000
  O   O3        1.0  0.74200  0.21100  0.21100  1.0000
  O   O4        1.0  0.21100  0.74200  0.21100  1.0000
  O   O5        1.0  0.46900  0.46900  0.25800  1.0000
  O   O6        1.0  0.46900  0.25800  0.46900  1.0000
  O   O7        1.0  0.25800  0.46900  0.46900  1.0000
  O   O8        1.0  0.78900  0.00000  0.53100  1.0000
  O   O9        1.0  0.00000  0.78900  0.53100  1.0000
  O   O10       1.0  0.21100  0.21100  0.74200  1.0000
  O   O11       1.0  0.53100  0.00000  0.78900  1.0000
  O   O12       1.0  0.00000  0.53100  0.78900  1.0000
