data_image0
_chemical_formula_structural       K8Mo4S16
_chemical_formula_sum              "K8 Mo4 S16"
_cell_length_a       9.45606
_cell_length_b       6.90166
_cell_length_c       12.2622
_cell_angle_alpha    90
_cell_angle_beta     90
_cell_angle_gamma    90

_space_group_name_H-M_alt    "P 1"
_space_group_IT_number       1

loop_
  _space_group_symop_operation_xyz
  'x, y, z'

loop_
  _atom_site_type_symbol
  _atom_site_label
  _atom_site_symmetry_multiplicity
  _atom_site_fract_x
  _atom_site_fract_y
  _atom_site_fract_z
  _atom_site_occupancy
  K   K1        1.0  0.65900  0.25000  0.11300  1.0000
  K   K2        1.0  0.04410  0.75000  0.16200  1.0000
  K   K3        1.0  0.54400  0.75000  0.33800  1.0000
  K   K4        1.0  0.15900  0.25000  0.38700  1.0000
  K   K5        1.0  0.84100  0.75000  0.61300  1.0000
  K   K6        1.0  0.45600  0.25000  0.66200  1.0000
  K   K7        1.0  0.95600  0.25000  0.83800  1.0000
  K   K8        1.0  0.34100  0.75000  0.88700  1.0000
  Mo  Mo1       1.0  0.24700  0.25000  0.06840  1.0000
  Mo  Mo2       1.0  0.74700  0.25000  0.43200  1.0000
  Mo  Mo3       1.0  0.25300  0.75000  0.56800  1.0000
  Mo  Mo4       1.0  0.75300  0.75000  0.93200  1.0000
  S   S1        1.0  0.01920  0.25000  0.10800  1.0000
  S   S2        1.0  0.71700  0.75000  0.10900  1.0000
  S   S3        1.0  0.34900  0.50600  0.14000  1.0000
  S   S4        1.0  0.34900  0.99400  0.14000  1.0000
  S   S5        1.0  0.84900  0.50600  0.36000  1.0000
  S   S6        1.0  0.84900  0.99400  0.36000  1.0000
  S   S7        1.0  0.21700  0.75000  0.39100  1.0000
  S   S8        1.0  0.51900  0.25000  0.39200  1.0000
  S   S9        1.0  0.48100  0.75000  0.60800  1.0000
  S   S10       1.0  0.78300  0.25000  0.60900  1.0000
  S   S11       1.0  0.15100  0.00551  0.64000  1.0000
  S   S12       1.0  0.15100  0.49400  0.64000  1.0000
  S   S13       1.0  0.65100  0.00551  0.86000  1.0000
  S   S14       1.0  0.65100  0.49400  0.86000  1.0000
  S   S15       1.0  0.28300  0.25000  0.89100  1.0000
  S   S16       1.0  0.98100  0.75000  0.89200  1.0000
