data_image0
_chemical_formula_structural       Bi4Cs12O12
_chemical_formula_sum              "Bi4 Cs12 O12"
_cell_length_a       9.19412
_cell_length_b       9.19412
_cell_length_c       9.19412
_cell_angle_alpha    90
_cell_angle_beta     90
_cell_angle_gamma    90

_space_group_name_H-M_alt    "P 1"
_space_group_IT_number       1

loop_
  _space_group_symop_operation_xyz
  'x, y, z'

loop_
  _atom_site_type_symbol
  _atom_site_label
  _atom_site_symmetry_multiplicity
  _atom_site_fract_x
  _atom_site_fract_y
  _atom_site_fract_z
  _atom_site_occupancy
  Bi  Bi1       1.0  0.74000  0.76000  0.24000  1.0000
  Bi  Bi2       1.0  0.26000  0.26000  0.26000  1.0000
  Bi  Bi3       1.0  0.76000  0.24000  0.74000  1.0000
  Bi  Bi4       1.0  0.24000  0.74000  0.76000  1.0000
  Cs  Cs1       1.0  0.02840  0.02840  0.02840  1.0000
  Cs  Cs2       1.0  0.97000  0.47000  0.02980  1.0000
  Cs  Cs3       1.0  0.27000  0.73000  0.23000  1.0000
  Cs  Cs4       1.0  0.73000  0.23000  0.27000  1.0000
  Cs  Cs5       1.0  0.02980  0.97000  0.47000  1.0000
  Cs  Cs6       1.0  0.97200  0.52800  0.47200  1.0000
  Cs  Cs7       1.0  0.47200  0.97200  0.52800  1.0000
  Cs  Cs8       1.0  0.53000  0.53000  0.53000  1.0000
  Cs  Cs9       1.0  0.23000  0.27000  0.73000  1.0000
  Cs  Cs10      1.0  0.77000  0.77000  0.77000  1.0000
  Cs  Cs11      1.0  0.47000  0.02980  0.97000  1.0000
  Cs  Cs12      1.0  0.52800  0.47200  0.97200  1.0000
  O   O1        1.0  0.25600  0.29900  0.03690  1.0000
  O   O2        1.0  0.96300  0.75600  0.20100  1.0000
  O   O3        1.0  0.70100  0.53700  0.24400  1.0000
  O   O4        1.0  0.29900  0.03690  0.25600  1.0000
  O   O5        1.0  0.03690  0.25600  0.29900  1.0000
  O   O6        1.0  0.74400  0.79900  0.46300  1.0000
  O   O7        1.0  0.24400  0.70100  0.53700  1.0000
  O   O8        1.0  0.53700  0.24400  0.70100  1.0000
  O   O9        1.0  0.79900  0.46300  0.74400  1.0000
  O   O10       1.0  0.20100  0.96300  0.75600  1.0000
  O   O11       1.0  0.46300  0.74400  0.79900  1.0000
  O   O12       1.0  0.75600  0.20100  0.96300  1.0000
