data_image0
_chemical_formula_structural       Al18Gd4Ir6
_chemical_formula_sum              "Al18 Gd4 Ir6"
_cell_length_a       7.56655
_cell_length_b       7.56655
_cell_length_c       9.51509
_cell_angle_alpha    90
_cell_angle_beta     90
_cell_angle_gamma    119.48

_space_group_name_H-M_alt    "P 1"
_space_group_IT_number       1

loop_
  _space_group_symop_operation_xyz
  'x, y, z'

loop_
  _atom_site_type_symbol
  _atom_site_label
  _atom_site_symmetry_multiplicity
  _atom_site_fract_x
  _atom_site_fract_y
  _atom_site_fract_z
  _atom_site_occupancy
  Al  Al1       1.0  0.66700  0.66700  0.04980  1.0000
  Al  Al2       1.0  0.33500  0.00116  0.07440  1.0000
  Al  Al3       1.0  0.00116  0.33500  0.07440  1.0000
  Al  Al4       1.0  0.12900  0.12900  0.25000  1.0000
  Al  Al5       1.0  0.54800  0.34000  0.25000  1.0000
  Al  Al6       1.0  0.34000  0.54800  0.25000  1.0000
  Al  Al7       1.0  0.33500  0.00116  0.42600  1.0000
  Al  Al8       1.0  0.00116  0.33500  0.42600  1.0000
  Al  Al9       1.0  0.66700  0.66700  0.45000  1.0000
  Al  Al10      1.0  0.33300  0.33300  0.55000  1.0000
  Al  Al11      1.0  0.99900  0.66500  0.57400  1.0000
  Al  Al12      1.0  0.66500  0.99900  0.57400  1.0000
  Al  Al13      1.0  0.66000  0.45200  0.75000  1.0000
  Al  Al14      1.0  0.45200  0.66000  0.75000  1.0000
  Al  Al15      1.0  0.87100  0.87100  0.75000  1.0000
  Al  Al16      1.0  0.99900  0.66500  0.92600  1.0000
  Al  Al17      1.0  0.66500  0.99900  0.92600  1.0000
  Al  Al18      1.0  0.33300  0.33300  0.95000  1.0000
  Gd  Gd1       1.0  0.99500  0.67100  0.25000  1.0000
  Gd  Gd2       1.0  0.67100  0.99500  0.25000  1.0000
  Gd  Gd3       1.0  0.32900  0.00541  0.75000  1.0000
  Gd  Gd4       1.0  0.00541  0.32900  0.75000  1.0000
  Ir  Ir1       1.0  0.00000  0.00000  0.00000  1.0000
  Ir  Ir2       1.0  0.67200  0.32800  0.00000  1.0000
  Ir  Ir3       1.0  0.32800  0.67200  0.00000  1.0000
  Ir  Ir4       1.0  0.00000  0.00000  0.50000  1.0000
  Ir  Ir5       1.0  0.67200  0.32800  0.50000  1.0000
  Ir  Ir6       1.0  0.32800  0.67200  0.50000  1.0000
