data_image0
_chemical_formula_structural       Ga4I12La12
_chemical_formula_sum              "Ga4 I12 La12"
_cell_length_a       11.0894
_cell_length_b       11.0894
_cell_length_c       11.0894
_cell_angle_alpha    109.471
_cell_angle_beta     109.471
_cell_angle_gamma    109.471

_space_group_name_H-M_alt    "P 1"
_space_group_IT_number       1

loop_
  _space_group_symop_operation_xyz
  'x, y, z'

loop_
  _atom_site_type_symbol
  _atom_site_label
  _atom_site_symmetry_multiplicity
  _atom_site_fract_x
  _atom_site_fract_y
  _atom_site_fract_z
  _atom_site_occupancy
  Ga  Ga1       1.0  0.00000  0.75000  0.00000  1.0000
  Ga  Ga2       1.0  0.50000  0.00000  0.25000  1.0000
  Ga  Ga3       1.0  0.75000  0.75000  0.25000  1.0000
  Ga  Ga4       1.0  0.75000  0.50000  0.50000  1.0000
  I   I1        1.0  0.24200  0.25800  0.25000  1.0000
  I   I2        1.0  0.00754  0.49200  0.25000  1.0000
  I   I3        1.0  0.01510  0.25800  0.50800  1.0000
  I   I4        1.0  0.49200  0.75000  0.50800  1.0000
  I   I5        1.0  0.25800  0.00754  0.51500  1.0000
  I   I6        1.0  0.48500  0.49200  0.74200  1.0000
  I   I7        1.0  0.25800  0.75000  0.74200  1.0000
  I   I8        1.0  0.00754  0.01510  0.75800  1.0000
  I   I9        1.0  0.75000  0.24200  0.75800  1.0000
  I   I10       1.0  0.49200  0.24200  0.98500  1.0000
  I   I11       1.0  0.75000  0.00754  0.99200  1.0000
  I   I12       1.0  0.24200  0.48500  0.99200  1.0000
  La  La1       1.0  0.25000  0.98700  0.01280  1.0000
  La  La2       1.0  0.76300  0.52600  0.01280  1.0000
  La  La3       1.0  0.51300  0.76300  0.02550  1.0000
  La  La4       1.0  0.25000  0.76300  0.23700  1.0000
  La  La5       1.0  0.98700  0.97400  0.23700  1.0000
  La  La6       1.0  0.73700  0.25000  0.26300  1.0000
  La  La7       1.0  0.52600  0.51300  0.26300  1.0000
  La  La8       1.0  0.73700  0.98700  0.47400  1.0000
  La  La9       1.0  0.51300  0.25000  0.48700  1.0000
  La  La10      1.0  0.97400  0.73700  0.48700  1.0000
  La  La11      1.0  0.98700  0.51300  0.75000  1.0000
  La  La12      1.0  0.76300  0.73700  0.75000  1.0000
