data_image0
_chemical_formula_structural       Ba12Ga4P12
_chemical_formula_sum              "Ba12 Ga4 P12"
_cell_length_a       6.75622
_cell_length_b       10.3833
_cell_length_c       13.1162
_cell_angle_alpha    90
_cell_angle_beta     90
_cell_angle_gamma    108.986

_space_group_name_H-M_alt    "P 1"
_space_group_IT_number       1

loop_
  _space_group_symop_operation_xyz
  'x, y, z'

loop_
  _atom_site_type_symbol
  _atom_site_label
  _atom_site_symmetry_multiplicity
  _atom_site_fract_x
  _atom_site_fract_y
  _atom_site_fract_z
  _atom_site_occupancy
  Ba  Ba1       1.0  0.86600  0.35100  0.13000  1.0000
  Ba  Ba2       1.0  0.51400  0.64900  0.13000  1.0000
  Ba  Ba3       1.0  0.32800  0.00000  0.15100  1.0000
  Ba  Ba4       1.0  0.82800  0.00000  0.34900  1.0000
  Ba  Ba5       1.0  0.36600  0.35100  0.37000  1.0000
  Ba  Ba6       1.0  0.01430  0.64900  0.37000  1.0000
  Ba  Ba7       1.0  0.98600  0.35100  0.63000  1.0000
  Ba  Ba8       1.0  0.63500  0.64900  0.63000  1.0000
  Ba  Ba9       1.0  0.17200  0.00000  0.65100  1.0000
  Ba  Ba10      1.0  0.67200  0.00000  0.84900  1.0000
  Ba  Ba11      1.0  0.48600  0.35100  0.87000  1.0000
  Ba  Ba12      1.0  0.13400  0.64900  0.87000  1.0000
  Ga  Ga1       1.0  0.08390  0.16800  0.00000  1.0000
  Ga  Ga2       1.0  0.91600  0.83200  0.00000  1.0000
  Ga  Ga3       1.0  0.58400  0.16800  0.50000  1.0000
  Ga  Ga4       1.0  0.41600  0.83200  0.50000  1.0000
  P   P1        1.0  0.80200  0.00000  0.09500  1.0000
  P   P2        1.0  0.34800  0.31300  0.11700  1.0000
  P   P3        1.0  0.03500  0.68700  0.11700  1.0000
  P   P4        1.0  0.84800  0.31300  0.38300  1.0000
  P   P5        1.0  0.53500  0.68700  0.38300  1.0000
  P   P6        1.0  0.30200  0.00000  0.40500  1.0000
  P   P7        1.0  0.69800  0.00000  0.59500  1.0000
  P   P8        1.0  0.46500  0.31300  0.61700  1.0000
  P   P9        1.0  0.15200  0.68700  0.61700  1.0000
  P   P10       1.0  0.96500  0.31300  0.88300  1.0000
  P   P11       1.0  0.65200  0.68700  0.88300  1.0000
  P   P12       1.0  0.19800  0.00000  0.90500  1.0000
