data_image0
_chemical_formula_structural       Al8Bi4S16
_chemical_formula_sum              "Al8 Bi4 S16"
_cell_length_a       7.62911
_cell_length_b       7.62911
_cell_length_c       12.0119
_cell_angle_alpha    90
_cell_angle_beta     90
_cell_angle_gamma    90

_space_group_name_H-M_alt    "P 1"
_space_group_IT_number       1

loop_
  _space_group_symop_operation_xyz
  'x, y, z'

loop_
  _atom_site_type_symbol
  _atom_site_label
  _atom_site_symmetry_multiplicity
  _atom_site_fract_x
  _atom_site_fract_y
  _atom_site_fract_z
  _atom_site_occupancy
  Al  Al1       1.0  0.75000  0.25000  0.00000  1.0000
  Al  Al2       1.0  0.25000  0.75000  0.00000  1.0000
  Al  Al3       1.0  0.75000  0.25000  0.25000  1.0000
  Al  Al4       1.0  0.25000  0.75000  0.25000  1.0000
  Al  Al5       1.0  0.75000  0.25000  0.50000  1.0000
  Al  Al6       1.0  0.25000  0.75000  0.50000  1.0000
  Al  Al7       1.0  0.75000  0.25000  0.75000  1.0000
  Al  Al8       1.0  0.25000  0.75000  0.75000  1.0000
  Bi  Bi1       1.0  0.25000  0.25000  0.11900  1.0000
  Bi  Bi2       1.0  0.25000  0.25000  0.38100  1.0000
  Bi  Bi3       1.0  0.75000  0.75000  0.61900  1.0000
  Bi  Bi4       1.0  0.75000  0.75000  0.88100  1.0000
  S   S1        1.0  0.91000  0.09250  0.12500  1.0000
  S   S2        1.0  0.59000  0.40800  0.12500  1.0000
  S   S3        1.0  0.09250  0.59000  0.12500  1.0000
  S   S4        1.0  0.40800  0.91000  0.12500  1.0000
  S   S5        1.0  0.59000  0.09250  0.37500  1.0000
  S   S6        1.0  0.91000  0.40800  0.37500  1.0000
  S   S7        1.0  0.40800  0.59000  0.37500  1.0000
  S   S8        1.0  0.09250  0.91000  0.37500  1.0000
  S   S9        1.0  0.90800  0.08970  0.62500  1.0000
  S   S10       1.0  0.59200  0.41000  0.62500  1.0000
  S   S11       1.0  0.08970  0.59200  0.62500  1.0000
  S   S12       1.0  0.41000  0.90800  0.62500  1.0000
  S   S13       1.0  0.59200  0.08970  0.87500  1.0000
  S   S14       1.0  0.90800  0.41000  0.87500  1.0000
  S   S15       1.0  0.41000  0.59200  0.87500  1.0000
  S   S16       1.0  0.08970  0.90800  0.87500  1.0000
