data_image0
_chemical_formula_structural       As12La4Zn12
_chemical_formula_sum              "As12 La4 Zn12"
_cell_length_a       12.6491
_cell_length_b       4.12629
_cell_length_c       11.5789
_cell_angle_alpha    90
_cell_angle_beta     90
_cell_angle_gamma    90

_space_group_name_H-M_alt    "P 1"
_space_group_IT_number       1

loop_
  _space_group_symop_operation_xyz
  'x, y, z'

loop_
  _atom_site_type_symbol
  _atom_site_label
  _atom_site_symmetry_multiplicity
  _atom_site_fract_x
  _atom_site_fract_y
  _atom_site_fract_z
  _atom_site_occupancy
  As  As1       1.0  0.86000  0.25000  0.06650  1.0000
  As  As2       1.0  0.41700  0.75000  0.11600  1.0000
  As  As3       1.0  0.14700  0.25000  0.24000  1.0000
  As  As4       1.0  0.64700  0.25000  0.26000  1.0000
  As  As5       1.0  0.91700  0.75000  0.38400  1.0000
  As  As6       1.0  0.36000  0.25000  0.43300  1.0000
  As  As7       1.0  0.64000  0.75000  0.56700  1.0000
  As  As8       1.0  0.08290  0.25000  0.61600  1.0000
  As  As9       1.0  0.35300  0.75000  0.74000  1.0000
  As  As10      1.0  0.85300  0.75000  0.76000  1.0000
  As  As11      1.0  0.58300  0.25000  0.88400  1.0000
  As  As12      1.0  0.14000  0.75000  0.93300  1.0000
  La  La1       1.0  0.66300  0.75000  0.05790  1.0000
  La  La2       1.0  0.16300  0.75000  0.44200  1.0000
  La  La3       1.0  0.83700  0.25000  0.55800  1.0000
  La  La4       1.0  0.33700  0.25000  0.94200  1.0000
  Zn  Zn1       1.0  0.06680  0.25000  0.03760  1.0000
  Zn  Zn2       1.0  0.22300  0.75000  0.15400  1.0000
  Zn  Zn3       1.0  0.44800  0.25000  0.23500  1.0000
  Zn  Zn4       1.0  0.94800  0.25000  0.26500  1.0000
  Zn  Zn5       1.0  0.72300  0.75000  0.34600  1.0000
  Zn  Zn6       1.0  0.56700  0.25000  0.46200  1.0000
  Zn  Zn7       1.0  0.43300  0.75000  0.53800  1.0000
  Zn  Zn8       1.0  0.27700  0.25000  0.65400  1.0000
  Zn  Zn9       1.0  0.05170  0.75000  0.73500  1.0000
  Zn  Zn10      1.0  0.55200  0.75000  0.76500  1.0000
  Zn  Zn11      1.0  0.77700  0.25000  0.84600  1.0000
  Zn  Zn12      1.0  0.93300  0.75000  0.96200  1.0000
