data_image0
_chemical_formula_structural       Eu2K2P2Se8
_chemical_formula_sum              "Eu2 K2 P2 Se8"
_cell_length_a       6.8586
_cell_length_b       6.96278
_cell_length_c       9.22036
_cell_angle_alpha    90
_cell_angle_beta     107.208
_cell_angle_gamma    90

_space_group_name_H-M_alt    "P 1"
_space_group_IT_number       1

loop_
  _space_group_symop_operation_xyz
  'x, y, z'

loop_
  _atom_site_type_symbol
  _atom_site_label
  _atom_site_symmetry_multiplicity
  _atom_site_fract_x
  _atom_site_fract_y
  _atom_site_fract_z
  _atom_site_occupancy
  Eu  Eu1       1.0  0.27000  0.75000  0.45300  1.0000
  Eu  Eu2       1.0  0.73000  0.25000  0.54700  1.0000
  K   K1        1.0  0.76400  0.25000  0.06740  1.0000
  K   K2        1.0  0.23600  0.75000  0.93300  1.0000
  P   P1        1.0  0.70400  0.75000  0.31200  1.0000
  P   P2        1.0  0.29600  0.25000  0.68800  1.0000
  Se  Se1       1.0  0.90500  0.75000  0.16300  1.0000
  Se  Se2       1.0  0.49500  0.00309  0.26600  1.0000
  Se  Se3       1.0  0.49500  0.49700  0.26600  1.0000
  Se  Se4       1.0  0.12300  0.25000  0.44300  1.0000
  Se  Se5       1.0  0.87700  0.75000  0.55700  1.0000
  Se  Se6       1.0  0.50500  0.50300  0.73400  1.0000
  Se  Se7       1.0  0.50500  0.99700  0.73400  1.0000
  Se  Se8       1.0  0.09450  0.25000  0.83700  1.0000
