data_image0
_chemical_formula_structural       As12Ba12In4
_chemical_formula_sum              "As12 Ba12 In4"
_cell_length_a       14.1306
_cell_length_b       4.65626
_cell_length_c       14.6508
_cell_angle_alpha    90
_cell_angle_beta     90
_cell_angle_gamma    90

_space_group_name_H-M_alt    "P 1"
_space_group_IT_number       1

loop_
  _space_group_symop_operation_xyz
  'x, y, z'

loop_
  _atom_site_type_symbol
  _atom_site_label
  _atom_site_symmetry_multiplicity
  _atom_site_fract_x
  _atom_site_fract_y
  _atom_site_fract_z
  _atom_site_occupancy
  As  As1       1.0  0.91200  0.75000  0.11500  1.0000
  As  As2       1.0  0.26600  0.75000  0.12800  1.0000
  As  As3       1.0  0.54400  0.25000  0.15000  1.0000
  As  As4       1.0  0.04360  0.25000  0.35000  1.0000
  As  As5       1.0  0.76600  0.75000  0.37200  1.0000
  As  As6       1.0  0.41200  0.75000  0.38500  1.0000
  As  As7       1.0  0.58800  0.25000  0.61500  1.0000
  As  As8       1.0  0.23400  0.25000  0.62800  1.0000
  As  As9       1.0  0.95600  0.75000  0.65000  1.0000
  As  As10      1.0  0.45600  0.75000  0.85000  1.0000
  As  As11      1.0  0.73400  0.25000  0.87200  1.0000
  As  As12      1.0  0.08790  0.25000  0.88500  1.0000
  Ba  Ba1       1.0  0.36500  0.25000  0.00411  1.0000
  Ba  Ba2       1.0  0.07790  0.25000  0.10800  1.0000
  Ba  Ba3       1.0  0.77700  0.25000  0.20100  1.0000
  Ba  Ba4       1.0  0.27700  0.25000  0.29900  1.0000
  Ba  Ba5       1.0  0.57800  0.25000  0.39200  1.0000
  Ba  Ba6       1.0  0.86500  0.25000  0.49600  1.0000
  Ba  Ba7       1.0  0.13500  0.75000  0.50400  1.0000
  Ba  Ba8       1.0  0.42200  0.75000  0.60800  1.0000
  Ba  Ba9       1.0  0.72300  0.75000  0.70100  1.0000
  Ba  Ba10      1.0  0.22300  0.75000  0.79900  1.0000
  Ba  Ba11      1.0  0.92200  0.75000  0.89200  1.0000
  Ba  Ba12      1.0  0.63500  0.75000  0.99600  1.0000
  In  In1       1.0  0.44600  0.75000  0.20300  1.0000
  In  In2       1.0  0.94600  0.75000  0.29700  1.0000
  In  In3       1.0  0.05450  0.25000  0.70300  1.0000
  In  In4       1.0  0.55400  0.25000  0.79700  1.0000
