data_image0
_chemical_formula_structural       Ga4K12Te12
_chemical_formula_sum              "Ga4 K12 Te12"
_cell_length_a       8.70509
_cell_length_b       13.8791
_cell_length_c       11.3529
_cell_angle_alpha    90
_cell_angle_beta     127.514
_cell_angle_gamma    90

_space_group_name_H-M_alt    "P 1"
_space_group_IT_number       1

loop_
  _space_group_symop_operation_xyz
  'x, y, z'

loop_
  _atom_site_type_symbol
  _atom_site_label
  _atom_site_symmetry_multiplicity
  _atom_site_fract_x
  _atom_site_fract_y
  _atom_site_fract_z
  _atom_site_occupancy
  Ga  Ga1       1.0  0.06670  0.06460  0.16600  1.0000
  Ga  Ga2       1.0  0.93300  0.56500  0.33400  1.0000
  Ga  Ga3       1.0  0.06670  0.43500  0.66600  1.0000
  Ga  Ga4       1.0  0.93300  0.93500  0.83400  1.0000
  K   K1        1.0  0.36300  0.11400  0.02470  1.0000
  K   K2        1.0  0.87800  0.31100  0.09090  1.0000
  K   K3        1.0  0.33500  0.40400  0.10000  1.0000
  K   K4        1.0  0.66500  0.90400  0.40000  1.0000
  K   K5        1.0  0.12200  0.81100  0.40900  1.0000
  K   K6        1.0  0.63700  0.61400  0.47500  1.0000
  K   K7        1.0  0.36300  0.38600  0.52500  1.0000
  K   K8        1.0  0.87800  0.18900  0.59100  1.0000
  K   K9        1.0  0.33500  0.09580  0.60000  1.0000
  K   K10       1.0  0.66500  0.59600  0.90000  1.0000
  K   K11       1.0  0.12200  0.68900  0.90900  1.0000
  K   K12       1.0  0.63700  0.88600  0.97500  1.0000
  Te  Te1       1.0  0.16600  0.89000  0.13000  1.0000
  Te  Te2       1.0  0.64300  0.68800  0.18500  1.0000
  Te  Te3       1.0  0.13200  0.55500  0.23100  1.0000
  Te  Te4       1.0  0.86800  0.05460  0.26900  1.0000
  Te  Te5       1.0  0.35700  0.18800  0.31500  1.0000
  Te  Te6       1.0  0.83400  0.39000  0.37000  1.0000
  Te  Te7       1.0  0.16600  0.61000  0.63000  1.0000
  Te  Te8       1.0  0.64300  0.81200  0.68500  1.0000
  Te  Te9       1.0  0.13200  0.94500  0.73100  1.0000
  Te  Te10      1.0  0.86800  0.44500  0.76900  1.0000
  Te  Te11      1.0  0.35700  0.31200  0.81500  1.0000
  Te  Te12      1.0  0.83400  0.11000  0.87000  1.0000
