data_image0
_chemical_formula_structural       La6Mn2O12S6W2
_chemical_formula_sum              "La6 Mn2 O12 S6 W2"
_cell_length_a       9.43856
_cell_length_b       9.43865
_cell_length_c       5.54827
_cell_angle_alpha    90
_cell_angle_beta     90
_cell_angle_gamma    120.002

_space_group_name_H-M_alt    "P 1"
_space_group_IT_number       1

loop_
  _space_group_symop_operation_xyz
  'x, y, z'

loop_
  _atom_site_type_symbol
  _atom_site_label
  _atom_site_symmetry_multiplicity
  _atom_site_fract_x
  _atom_site_fract_y
  _atom_site_fract_z
  _atom_site_occupancy
  La  La1       1.0  0.40700  0.08890  0.25000  1.0000
  La  La2       1.0  0.91100  0.31800  0.25000  1.0000
  La  La3       1.0  0.68200  0.59300  0.25000  1.0000
  La  La4       1.0  0.31800  0.40700  0.75000  1.0000
  La  La5       1.0  0.08890  0.68200  0.75000  1.0000
  La  La6       1.0  0.59300  0.91100  0.75000  1.0000
  Mn  Mn1       1.0  0.00000  0.00000  0.00000  1.0000
  Mn  Mn2       1.0  0.00000  0.00000  0.50000  1.0000
  O   O1        1.0  0.47300  0.63400  0.02420  1.0000
  O   O2        1.0  0.36600  0.83900  0.02420  1.0000
  O   O3        1.0  0.16100  0.52700  0.02420  1.0000
  O   O4        1.0  0.16100  0.52700  0.47600  1.0000
  O   O5        1.0  0.36600  0.83900  0.47600  1.0000
  O   O6        1.0  0.47300  0.63400  0.47600  1.0000
  O   O7        1.0  0.52700  0.36600  0.52400  1.0000
  O   O8        1.0  0.63400  0.16100  0.52400  1.0000
  O   O9        1.0  0.83900  0.47300  0.52400  1.0000
  O   O10       1.0  0.83900  0.47300  0.97600  1.0000
  O   O11       1.0  0.63400  0.16100  0.97600  1.0000
  O   O12       1.0  0.52700  0.36600  0.97600  1.0000
  S   S1        1.0  0.18600  0.23200  0.25000  1.0000
  S   S2        1.0  0.04630  0.81400  0.25000  1.0000
  S   S3        1.0  0.76800  0.95400  0.25000  1.0000
  S   S4        1.0  0.23200  0.04630  0.75000  1.0000
  S   S5        1.0  0.95400  0.18600  0.75000  1.0000
  S   S6        1.0  0.81400  0.76800  0.75000  1.0000
  W   W1        1.0  0.33300  0.66700  0.25000  1.0000
  W   W2        1.0  0.66700  0.33300  0.75000  1.0000
