data_image0
_chemical_formula_structural       Al4Na4P12Sr8
_chemical_formula_sum              "Al4 Na4 P12 Sr8"
_cell_length_a       8.11064
_cell_length_b       8.11064
_cell_length_c       11.5362
_cell_angle_alpha    103.894
_cell_angle_beta     103.894
_cell_angle_gamma    67.9366

_space_group_name_H-M_alt    "P 1"
_space_group_IT_number       1

loop_
  _space_group_symop_operation_xyz
  'x, y, z'

loop_
  _atom_site_type_symbol
  _atom_site_label
  _atom_site_symmetry_multiplicity
  _atom_site_fract_x
  _atom_site_fract_y
  _atom_site_fract_z
  _atom_site_occupancy
  Al  Al1       1.0  0.09050  0.09050  0.11700  1.0000
  Al  Al2       1.0  0.30300  0.30300  0.26800  1.0000
  Al  Al3       1.0  0.69700  0.69700  0.73200  1.0000
  Al  Al4       1.0  0.90900  0.90900  0.88300  1.0000
  Na  Na1       1.0  0.69800  0.30200  0.00000  1.0000
  Na  Na2       1.0  0.30200  0.69800  0.00000  1.0000
  Na  Na3       1.0  0.64400  0.64400  0.23200  1.0000
  Na  Na4       1.0  0.35600  0.35600  0.76800  1.0000
  P   P1        1.0  0.91000  0.91000  0.09460  1.0000
  P   P2        1.0  0.41000  0.41000  0.13700  1.0000
  P   P3        1.0  0.97900  0.38900  0.22800  1.0000
  P   P4        1.0  0.38900  0.97900  0.22800  1.0000
  P   P5        1.0  0.91200  0.91200  0.48700  1.0000
  P   P6        1.0  0.41300  0.41300  0.48900  1.0000
  P   P7        1.0  0.58700  0.58700  0.51100  1.0000
  P   P8        1.0  0.08750  0.08750  0.51300  1.0000
  P   P9        1.0  0.61100  0.02120  0.77200  1.0000
  P   P10       1.0  0.02120  0.61100  0.77200  1.0000
  P   P11       1.0  0.59000  0.59000  0.86300  1.0000
  P   P12       1.0  0.09010  0.09010  0.90500  1.0000
  Sr  Sr1       1.0  0.50000  0.00000  0.00000  1.0000
  Sr  Sr2       1.0  0.00000  0.50000  0.00000  1.0000
  Sr  Sr3       1.0  0.74900  0.19100  0.31400  1.0000
  Sr  Sr4       1.0  0.19100  0.74900  0.31400  1.0000
  Sr  Sr5       1.0  0.50000  0.00000  0.50000  1.0000
  Sr  Sr6       1.0  1.00000  0.50000  0.50000  1.0000
  Sr  Sr7       1.0  0.80900  0.25100  0.68600  1.0000
  Sr  Sr8       1.0  0.25100  0.80900  0.68600  1.0000
