data_image0
_chemical_formula_structural       F4Gd4O16S4
_chemical_formula_sum              "F4 Gd4 O16 S4"
_cell_length_a       8.35389
_cell_length_b       6.94868
_cell_length_c       6.38459
_cell_angle_alpha    90
_cell_angle_beta     90
_cell_angle_gamma    90

_space_group_name_H-M_alt    "P 1"
_space_group_IT_number       1

loop_
  _space_group_symop_operation_xyz
  'x, y, z'

loop_
  _atom_site_type_symbol
  _atom_site_label
  _atom_site_symmetry_multiplicity
  _atom_site_fract_x
  _atom_site_fract_y
  _atom_site_fract_z
  _atom_site_occupancy
  F   F1        1.0  0.29300  0.25000  0.20000  1.0000
  F   F2        1.0  0.79300  0.25000  0.30000  1.0000
  F   F3        1.0  0.20700  0.75000  0.70000  1.0000
  F   F4        1.0  0.70700  0.75000  0.80000  1.0000
  Gd  Gd1       1.0  0.55400  0.25000  0.14900  1.0000
  Gd  Gd2       1.0  0.05380  0.25000  0.35100  1.0000
  Gd  Gd3       1.0  0.94600  0.75000  0.64900  1.0000
  Gd  Gd4       1.0  0.44600  0.75000  0.85100  1.0000
  O   O1        1.0  0.97900  0.75000  0.01160  1.0000
  O   O2        1.0  0.25900  0.75000  0.12100  1.0000
  O   O3        1.0  0.56000  0.58200  0.17300  1.0000
  O   O4        1.0  0.56000  0.91800  0.17300  1.0000
  O   O5        1.0  0.05970  0.58200  0.32700  1.0000
  O   O6        1.0  0.05970  0.91800  0.32700  1.0000
  O   O7        1.0  0.75900  0.75000  0.37900  1.0000
  O   O8        1.0  0.47900  0.75000  0.48800  1.0000
  O   O9        1.0  0.52100  0.25000  0.51200  1.0000
  O   O10       1.0  0.24100  0.25000  0.62100  1.0000
  O   O11       1.0  0.94000  0.08150  0.67300  1.0000
  O   O12       1.0  0.94000  0.41800  0.67300  1.0000
  O   O13       1.0  0.44000  0.08150  0.82700  1.0000
  O   O14       1.0  0.44000  0.41800  0.82700  1.0000
  O   O15       1.0  0.74100  0.25000  0.87900  1.0000
  O   O16       1.0  0.02120  0.25000  0.98800  1.0000
  S   S1        1.0  0.09150  0.75000  0.18600  1.0000
  S   S2        1.0  0.59200  0.75000  0.31400  1.0000
  S   S3        1.0  0.40800  0.25000  0.68600  1.0000
  S   S4        1.0  0.90800  0.25000  0.81400  1.0000
