data_image0
_chemical_formula_structural       Hf18Mo8Si2
_chemical_formula_sum              "Hf18 Mo8 Si2"
_cell_length_a       8.63553
_cell_length_b       8.63562
_cell_length_c       8.69106
_cell_angle_alpha    90
_cell_angle_beta     90
_cell_angle_gamma    120

_space_group_name_H-M_alt    "P 1"
_space_group_IT_number       1

loop_
  _space_group_symop_operation_xyz
  'x, y, z'

loop_
  _atom_site_type_symbol
  _atom_site_label
  _atom_site_symmetry_multiplicity
  _atom_site_fract_x
  _atom_site_fract_y
  _atom_site_fract_z
  _atom_site_occupancy
  Hf  Hf1       1.0  0.19800  0.39500  0.04480  1.0000
  Hf  Hf2       1.0  0.19800  0.80200  0.04480  1.0000
  Hf  Hf3       1.0  0.60500  0.80200  0.04480  1.0000
  Hf  Hf4       1.0  0.53700  0.07490  0.25000  1.0000
  Hf  Hf5       1.0  0.53700  0.46300  0.25000  1.0000
  Hf  Hf6       1.0  0.92500  0.46300  0.25000  1.0000
  Hf  Hf7       1.0  0.19800  0.39500  0.45500  1.0000
  Hf  Hf8       1.0  0.19800  0.80200  0.45500  1.0000
  Hf  Hf9       1.0  0.60500  0.80200  0.45500  1.0000
  Hf  Hf10      1.0  0.39500  0.19800  0.54500  1.0000
  Hf  Hf11      1.0  0.80200  0.19800  0.54500  1.0000
  Hf  Hf12      1.0  0.80200  0.60500  0.54500  1.0000
  Hf  Hf13      1.0  0.07490  0.53700  0.75000  1.0000
  Hf  Hf14      1.0  0.46300  0.53700  0.75000  1.0000
  Hf  Hf15      1.0  0.46300  0.92500  0.75000  1.0000
  Hf  Hf16      1.0  0.39500  0.19800  0.95500  1.0000
  Hf  Hf17      1.0  0.80200  0.19800  0.95500  1.0000
  Hf  Hf18      1.0  0.80200  0.60500  0.95500  1.0000
  Mo  Mo1       1.0  0.00000  0.00000  0.00000  1.0000
  Mo  Mo2       1.0  0.22100  0.11000  0.25000  1.0000
  Mo  Mo3       1.0  0.89000  0.11000  0.25000  1.0000
  Mo  Mo4       1.0  0.89000  0.77900  0.25000  1.0000
  Mo  Mo5       1.0  0.00000  0.00000  0.50000  1.0000
  Mo  Mo6       1.0  0.11000  0.22100  0.75000  1.0000
  Mo  Mo7       1.0  0.11000  0.89000  0.75000  1.0000
  Mo  Mo8       1.0  0.77900  0.89000  0.75000  1.0000
  Si  Si1       1.0  0.33300  0.66700  0.25000  1.0000
  Si  Si2       1.0  0.66700  0.33300  0.75000  1.0000
