data_image0
_chemical_formula_structural       B4Cs4Li8S12
_chemical_formula_sum              "B4 Cs4 Li8 S12"
_cell_length_a       10.0769
_cell_length_b       8.0576
_cell_length_c       8.11446
_cell_angle_alpha    90
_cell_angle_beta     90
_cell_angle_gamma    90

_space_group_name_H-M_alt    "P 1"
_space_group_IT_number       1

loop_
  _space_group_symop_operation_xyz
  'x, y, z'

loop_
  _atom_site_type_symbol
  _atom_site_label
  _atom_site_symmetry_multiplicity
  _atom_site_fract_x
  _atom_site_fract_y
  _atom_site_fract_z
  _atom_site_occupancy
  B   B1        1.0  0.83300  0.75000  0.15400  1.0000
  B   B2        1.0  0.33300  0.75000  0.34600  1.0000
  B   B3        1.0  0.66700  0.25000  0.65400  1.0000
  B   B4        1.0  0.16700  0.25000  0.84600  1.0000
  Cs  Cs1       1.0  0.49400  0.25000  0.06030  1.0000
  Cs  Cs2       1.0  0.99400  0.25000  0.44000  1.0000
  Cs  Cs3       1.0  0.00605  0.75000  0.56000  1.0000
  Cs  Cs4       1.0  0.50600  0.75000  0.94000  1.0000
  Li  Li1       1.0  0.13200  0.53900  0.03610  1.0000
  Li  Li2       1.0  0.13200  0.96100  0.03610  1.0000
  Li  Li3       1.0  0.63200  0.53900  0.46400  1.0000
  Li  Li4       1.0  0.63200  0.96100  0.46400  1.0000
  Li  Li5       1.0  0.36800  0.03870  0.53600  1.0000
  Li  Li6       1.0  0.36800  0.46100  0.53600  1.0000
  Li  Li7       1.0  0.86800  0.03870  0.96400  1.0000
  Li  Li8       1.0  0.86800  0.46100  0.96400  1.0000
  S   S1        1.0  0.04080  0.25000  0.01100  1.0000
  S   S2        1.0  0.77200  0.55000  0.22600  1.0000
  S   S3        1.0  0.77200  0.95000  0.22600  1.0000
  S   S4        1.0  0.27200  0.55000  0.27400  1.0000
  S   S5        1.0  0.27200  0.95000  0.27400  1.0000
  S   S6        1.0  0.54100  0.25000  0.48900  1.0000
  S   S7        1.0  0.45900  0.75000  0.51100  1.0000
  S   S8        1.0  0.72800  0.04960  0.72600  1.0000
  S   S9        1.0  0.72800  0.45000  0.72600  1.0000
  S   S10       1.0  0.22800  0.04960  0.77400  1.0000
  S   S11       1.0  0.22800  0.45000  0.77400  1.0000
  S   S12       1.0  0.95900  0.75000  0.98900  1.0000
