data_image0
_chemical_formula_structural       Cs4P4Pb4S16
_chemical_formula_sum              "Cs4 P4 Pb4 S16"
_cell_length_a       18.2849
_cell_length_b       6.83326
_cell_length_c       6.45105
_cell_angle_alpha    90
_cell_angle_beta     90
_cell_angle_gamma    90

_space_group_name_H-M_alt    "P 1"
_space_group_IT_number       1

loop_
  _space_group_symop_operation_xyz
  'x, y, z'

loop_
  _atom_site_type_symbol
  _atom_site_label
  _atom_site_symmetry_multiplicity
  _atom_site_fract_x
  _atom_site_fract_y
  _atom_site_fract_z
  _atom_site_occupancy
  Cs  Cs1       1.0  0.79500  0.25000  0.06230  1.0000
  Cs  Cs2       1.0  0.29500  0.25000  0.43800  1.0000
  Cs  Cs3       1.0  0.70500  0.75000  0.56200  1.0000
  Cs  Cs4       1.0  0.20500  0.75000  0.93800  1.0000
  P   P1        1.0  0.09350  0.25000  0.21700  1.0000
  P   P2        1.0  0.59300  0.25000  0.28300  1.0000
  P   P3        1.0  0.40700  0.75000  0.71700  1.0000
  P   P4        1.0  0.90700  0.75000  0.78300  1.0000
  Pb  Pb1       1.0  0.48400  0.75000  0.21100  1.0000
  Pb  Pb2       1.0  0.98400  0.75000  0.28900  1.0000
  Pb  Pb3       1.0  0.01550  0.25000  0.71100  1.0000
  Pb  Pb4       1.0  0.51600  0.25000  0.78900  1.0000
  S   S1        1.0  0.84600  0.75000  0.04990  1.0000
  S   S2        1.0  0.61600  0.00685  0.10700  1.0000
  S   S3        1.0  0.61600  0.49300  0.10700  1.0000
  S   S4        1.0  0.98300  0.25000  0.15200  1.0000
  S   S5        1.0  0.48300  0.25000  0.34800  1.0000
  S   S6        1.0  0.11600  0.00685  0.39300  1.0000
  S   S7        1.0  0.11600  0.49300  0.39300  1.0000
  S   S8        1.0  0.34600  0.75000  0.45000  1.0000
  S   S9        1.0  0.65400  0.25000  0.55000  1.0000
  S   S10       1.0  0.88400  0.50700  0.60700  1.0000
  S   S11       1.0  0.88400  0.99300  0.60700  1.0000
  S   S12       1.0  0.51700  0.75000  0.65200  1.0000
  S   S13       1.0  0.01730  0.75000  0.84800  1.0000
  S   S14       1.0  0.38400  0.50700  0.89300  1.0000
  S   S15       1.0  0.38400  0.99300  0.89300  1.0000
  S   S16       1.0  0.15400  0.25000  0.95000  1.0000
