data_image0
_chemical_formula_structural       Bi4Ge4Rb4S16
_chemical_formula_sum              "Bi4 Ge4 Rb4 S16"
_cell_length_a       6.68547
_cell_length_b       6.88996
_cell_length_c       18.1852
_cell_angle_alpha    90
_cell_angle_beta     108.187
_cell_angle_gamma    90

_space_group_name_H-M_alt    "P 1"
_space_group_IT_number       1

loop_
  _space_group_symop_operation_xyz
  'x, y, z'

loop_
  _atom_site_type_symbol
  _atom_site_label
  _atom_site_symmetry_multiplicity
  _atom_site_fract_x
  _atom_site_fract_y
  _atom_site_fract_z
  _atom_site_occupancy
  Bi  Bi1       1.0  0.76300  0.19600  0.22200  1.0000
  Bi  Bi2       1.0  0.23700  0.69600  0.27800  1.0000
  Bi  Bi3       1.0  0.76300  0.30400  0.72200  1.0000
  Bi  Bi4       1.0  0.23700  0.80400  0.77800  1.0000
  Ge  Ge1       1.0  0.20700  0.26900  0.15900  1.0000
  Ge  Ge2       1.0  0.79300  0.76900  0.34100  1.0000
  Ge  Ge3       1.0  0.20700  0.23100  0.65900  1.0000
  Ge  Ge4       1.0  0.79300  0.73100  0.84100  1.0000
  Rb  Rb1       1.0  0.28400  0.74400  0.03450  1.0000
  Rb  Rb2       1.0  0.71600  0.24400  0.46500  1.0000
  Rb  Rb3       1.0  0.28400  0.75600  0.53500  1.0000
  Rb  Rb4       1.0  0.71600  0.25600  0.96500  1.0000
  S   S1        1.0  0.41700  0.24200  0.08630  1.0000
  S   S2        1.0  0.98200  0.51400  0.13500  1.0000
  S   S3        1.0  0.00208  0.00603  0.14700  1.0000
  S   S4        1.0  0.58700  0.83000  0.21800  1.0000
  S   S5        1.0  0.41300  0.33000  0.28200  1.0000
  S   S6        1.0  0.99800  0.50600  0.35300  1.0000
  S   S7        1.0  0.01750  0.01410  0.36500  1.0000
  S   S8        1.0  0.58300  0.74200  0.41400  1.0000
  S   S9        1.0  0.41700  0.25800  0.58600  1.0000
  S   S10       1.0  0.98200  0.98600  0.63500  1.0000
  S   S11       1.0  0.00208  0.49400  0.64700  1.0000
  S   S12       1.0  0.58700  0.67000  0.71800  1.0000
  S   S13       1.0  0.41300  0.17000  0.78200  1.0000
  S   S14       1.0  0.99800  0.99400  0.85300  1.0000
  S   S15       1.0  0.01750  0.48600  0.86500  1.0000
  S   S16       1.0  0.58300  0.75800  0.91400  1.0000
