data_image0
_chemical_formula_structural       Al4Na12Se12
_chemical_formula_sum              "Al4 Na12 Se12"
_cell_length_a       7.47011
_cell_length_b       7.19406
_cell_length_c       13.1704
_cell_angle_alpha    90
_cell_angle_beta     90.4588
_cell_angle_gamma    90

_space_group_name_H-M_alt    "P 1"
_space_group_IT_number       1

loop_
  _space_group_symop_operation_xyz
  'x, y, z'

loop_
  _atom_site_type_symbol
  _atom_site_label
  _atom_site_symmetry_multiplicity
  _atom_site_fract_x
  _atom_site_fract_y
  _atom_site_fract_z
  _atom_site_occupancy
  Al  Al1       1.0  0.41800  0.14000  0.08080  1.0000
  Al  Al2       1.0  0.08210  0.64000  0.41900  1.0000
  Al  Al3       1.0  0.91800  0.36000  0.58100  1.0000
  Al  Al4       1.0  0.58200  0.86000  0.91900  1.0000
  Na  Na1       1.0  0.79400  0.49500  0.10100  1.0000
  Na  Na2       1.0  0.83900  0.99500  0.11100  1.0000
  Na  Na3       1.0  0.27600  0.52800  0.21500  1.0000
  Na  Na4       1.0  0.22400  0.02750  0.28500  1.0000
  Na  Na5       1.0  0.66100  0.49500  0.38900  1.0000
  Na  Na6       1.0  0.70600  0.99500  0.39900  1.0000
  Na  Na7       1.0  0.29400  0.00501  0.60100  1.0000
  Na  Na8       1.0  0.33900  0.50500  0.61100  1.0000
  Na  Na9       1.0  0.77600  0.97200  0.71500  1.0000
  Na  Na10      1.0  0.72400  0.47200  0.78500  1.0000
  Na  Na11      1.0  0.16100  0.00530  0.88900  1.0000
  Na  Na12      1.0  0.20600  0.50500  0.89900  1.0000
  Se  Se1       1.0  0.42100  0.79900  0.07340  1.0000
  Se  Se2       1.0  0.12200  0.25600  0.07360  1.0000
  Se  Se3       1.0  0.57400  0.24000  0.22800  1.0000
  Se  Se4       1.0  0.92600  0.74000  0.27200  1.0000
  Se  Se5       1.0  0.37800  0.75600  0.42600  1.0000
  Se  Se6       1.0  0.07930  0.29900  0.42700  1.0000
  Se  Se7       1.0  0.92100  0.70100  0.57300  1.0000
  Se  Se8       1.0  0.62200  0.24400  0.57400  1.0000
  Se  Se9       1.0  0.07420  0.26000  0.72800  1.0000
  Se  Se10      1.0  0.42600  0.76000  0.77200  1.0000
  Se  Se11      1.0  0.87800  0.74400  0.92600  1.0000
  Se  Se12      1.0  0.57900  0.20100  0.92700  1.0000
