data_image0
_chemical_formula_structural       As4Ca4Na4O16
_chemical_formula_sum              "As4 Ca4 Na4 O16"
_cell_length_a       11.4362
_cell_length_b       6.60941
_cell_length_c       5.22847
_cell_angle_alpha    90
_cell_angle_beta     90
_cell_angle_gamma    90

_space_group_name_H-M_alt    "P 1"
_space_group_IT_number       1

loop_
  _space_group_symop_operation_xyz
  'x, y, z'

loop_
  _atom_site_type_symbol
  _atom_site_label
  _atom_site_symmetry_multiplicity
  _atom_site_fract_x
  _atom_site_fract_y
  _atom_site_fract_z
  _atom_site_occupancy
  As  As1       1.0  0.90200  0.75000  0.06770  1.0000
  As  As2       1.0  0.40200  0.75000  0.43200  1.0000
  As  As3       1.0  0.59800  0.25000  0.56800  1.0000
  As  As4       1.0  0.09750  0.25000  0.93200  1.0000
  Ca  Ca1       1.0  0.78000  0.25000  0.00548  1.0000
  Ca  Ca2       1.0  0.28000  0.25000  0.49500  1.0000
  Ca  Ca3       1.0  0.72000  0.75000  0.50500  1.0000
  Ca  Ca4       1.0  0.22000  0.75000  0.99500  1.0000
  Na  Na1       1.0  0.50000  0.00000  0.00000  1.0000
  Na  Na2       1.0  0.50000  0.50000  0.00000  1.0000
  Na  Na3       1.0  0.00000  0.00000  0.50000  1.0000
  Na  Na4       1.0  0.00000  0.50000  0.50000  1.0000
  O   O1        1.0  0.04180  0.75000  0.18900  1.0000
  O   O2        1.0  0.83100  0.54700  0.20800  1.0000
  O   O3        1.0  0.83100  0.95300  0.20800  1.0000
  O   O4        1.0  0.60300  0.25000  0.24200  1.0000
  O   O5        1.0  0.10300  0.25000  0.25800  1.0000
  O   O6        1.0  0.33100  0.54700  0.29200  1.0000
  O   O7        1.0  0.33100  0.95300  0.29200  1.0000
  O   O8        1.0  0.54200  0.75000  0.31100  1.0000
  O   O9        1.0  0.45800  0.25000  0.68900  1.0000
  O   O10       1.0  0.66900  0.04700  0.70800  1.0000
  O   O11       1.0  0.66900  0.45300  0.70800  1.0000
  O   O12       1.0  0.89700  0.75000  0.74200  1.0000
  O   O13       1.0  0.39700  0.75000  0.75800  1.0000
  O   O14       1.0  0.16900  0.04700  0.79200  1.0000
  O   O15       1.0  0.16900  0.45300  0.79200  1.0000
  O   O16       1.0  0.95800  0.25000  0.81100  1.0000
