data_image0
_chemical_formula_structural       Eu12Ga4P12
_chemical_formula_sum              "Eu12 Ga4 P12"
_cell_length_a       6.2546
_cell_length_b       9.70326
_cell_length_c       12.1614
_cell_angle_alpha    90
_cell_angle_beta     90
_cell_angle_gamma    108.802

_space_group_name_H-M_alt    "P 1"
_space_group_IT_number       1

loop_
  _space_group_symop_operation_xyz
  'x, y, z'

loop_
  _atom_site_type_symbol
  _atom_site_label
  _atom_site_symmetry_multiplicity
  _atom_site_fract_x
  _atom_site_fract_y
  _atom_site_fract_z
  _atom_site_occupancy
  Eu  Eu1       1.0  0.86800  0.35200  0.13000  1.0000
  Eu  Eu2       1.0  0.51700  0.64800  0.13000  1.0000
  Eu  Eu3       1.0  0.31700  0.00000  0.14700  1.0000
  Eu  Eu4       1.0  0.81700  0.00000  0.35300  1.0000
  Eu  Eu5       1.0  0.36800  0.35200  0.37000  1.0000
  Eu  Eu6       1.0  0.01660  0.64800  0.37000  1.0000
  Eu  Eu7       1.0  0.98300  0.35200  0.63000  1.0000
  Eu  Eu8       1.0  0.63200  0.64800  0.63000  1.0000
  Eu  Eu9       1.0  0.18300  0.00000  0.64700  1.0000
  Eu  Eu10      1.0  0.68300  0.00000  0.85300  1.0000
  Eu  Eu11      1.0  0.48300  0.35200  0.87000  1.0000
  Eu  Eu12      1.0  0.13200  0.64800  0.87000  1.0000
  Ga  Ga1       1.0  0.08720  0.17400  0.00000  1.0000
  Ga  Ga2       1.0  0.91300  0.82600  0.00000  1.0000
  Ga  Ga3       1.0  0.58700  0.17400  0.50000  1.0000
  Ga  Ga4       1.0  0.41300  0.82600  0.50000  1.0000
  P   P1        1.0  0.78900  0.00000  0.10400  1.0000
  P   P2        1.0  0.37000  0.32100  0.12200  1.0000
  P   P3        1.0  0.04960  0.67900  0.12200  1.0000
  P   P4        1.0  0.87000  0.32100  0.37800  1.0000
  P   P5        1.0  0.55000  0.67900  0.37800  1.0000
  P   P6        1.0  0.28900  0.00000  0.39600  1.0000
  P   P7        1.0  0.71100  0.00000  0.60400  1.0000
  P   P8        1.0  0.45000  0.32100  0.62200  1.0000
  P   P9        1.0  0.13000  0.67900  0.62200  1.0000
  P   P10       1.0  0.95000  0.32100  0.87800  1.0000
  P   P11       1.0  0.63000  0.67900  0.87800  1.0000
  P   P12       1.0  0.21100  0.00000  0.89600  1.0000
