data_image0
_chemical_formula_structural       Mo4Rb8S16
_chemical_formula_sum              "Mo4 Rb8 S16"
_cell_length_a       9.80923
_cell_length_b       7.09434
_cell_length_c       12.6105
_cell_angle_alpha    90
_cell_angle_beta     90
_cell_angle_gamma    90

_space_group_name_H-M_alt    "P 1"
_space_group_IT_number       1

loop_
  _space_group_symop_operation_xyz
  'x, y, z'

loop_
  _atom_site_type_symbol
  _atom_site_label
  _atom_site_symmetry_multiplicity
  _atom_site_fract_x
  _atom_site_fract_y
  _atom_site_fract_z
  _atom_site_occupancy
  Mo  Mo1       1.0  0.24700  0.75000  0.07520  1.0000
  Mo  Mo2       1.0  0.74700  0.75000  0.42500  1.0000
  Mo  Mo3       1.0  0.25300  0.25000  0.57500  1.0000
  Mo  Mo4       1.0  0.75300  0.25000  0.92500  1.0000
  Rb  Rb1       1.0  0.65700  0.75000  0.10600  1.0000
  Rb  Rb2       1.0  0.03710  0.25000  0.16700  1.0000
  Rb  Rb3       1.0  0.53700  0.25000  0.33300  1.0000
  Rb  Rb4       1.0  0.15700  0.75000  0.39400  1.0000
  Rb  Rb5       1.0  0.84300  0.25000  0.60600  1.0000
  Rb  Rb6       1.0  0.46300  0.75000  0.66700  1.0000
  Rb  Rb7       1.0  0.96300  0.75000  0.83300  1.0000
  Rb  Rb8       1.0  0.34300  0.25000  0.89400  1.0000
  S   S1        1.0  0.71000  0.25000  0.09610  1.0000
  S   S2        1.0  0.02490  0.75000  0.10600  1.0000
  S   S3        1.0  0.34000  0.00029  0.14700  1.0000
  S   S4        1.0  0.34000  0.50000  0.14700  1.0000
  S   S5        1.0  0.84000  0.00029  0.35300  1.0000
  S   S6        1.0  0.84000  0.50000  0.35300  1.0000
  S   S7        1.0  0.52500  0.75000  0.39400  1.0000
  S   S8        1.0  0.21000  0.25000  0.40400  1.0000
  S   S9        1.0  0.79000  0.75000  0.59600  1.0000
  S   S10       1.0  0.47500  0.25000  0.60600  1.0000
  S   S11       1.0  0.16000  0.50000  0.64700  1.0000
  S   S12       1.0  0.16000  0.00000  0.64700  1.0000
  S   S13       1.0  0.66000  0.50000  0.85300  1.0000
  S   S14       1.0  0.66000  0.00000  0.85300  1.0000
  S   S15       1.0  0.97500  0.25000  0.89400  1.0000
  S   S16       1.0  0.29000  0.75000  0.90400  1.0000
