data_image0
_chemical_formula_structural       Cs12Ga2K6Sb8
_chemical_formula_sum              "Cs12 Ga2 K6 Sb8"
_cell_length_a       11.14
_cell_length_b       11.1396
_cell_length_c       11.6205
_cell_angle_alpha    90
_cell_angle_beta     90
_cell_angle_gamma    120.001

_space_group_name_H-M_alt    "P 1"
_space_group_IT_number       1

loop_
  _space_group_symop_operation_xyz
  'x, y, z'

loop_
  _atom_site_type_symbol
  _atom_site_label
  _atom_site_symmetry_multiplicity
  _atom_site_fract_x
  _atom_site_fract_y
  _atom_site_fract_z
  _atom_site_occupancy
  Cs  Cs1       1.0  0.41900  0.21000  0.04160  1.0000
  Cs  Cs2       1.0  0.79000  0.21000  0.04160  1.0000
  Cs  Cs3       1.0  0.79000  0.58100  0.04160  1.0000
  Cs  Cs4       1.0  0.79000  0.58100  0.45800  1.0000
  Cs  Cs5       1.0  0.41900  0.21000  0.45800  1.0000
  Cs  Cs6       1.0  0.79000  0.21000  0.45800  1.0000
  Cs  Cs7       1.0  0.21000  0.79000  0.54200  1.0000
  Cs  Cs8       1.0  0.58100  0.79000  0.54200  1.0000
  Cs  Cs9       1.0  0.21000  0.41900  0.54200  1.0000
  Cs  Cs10      1.0  0.21000  0.41900  0.95800  1.0000
  Cs  Cs11      1.0  0.21000  0.79000  0.95800  1.0000
  Cs  Cs12      1.0  0.58100  0.79000  0.95800  1.0000
  Ga  Ga1       1.0  0.33300  0.66700  0.25000  1.0000
  Ga  Ga2       1.0  0.66700  0.33300  0.75000  1.0000
  K   K1        1.0  0.11900  0.23700  0.25000  1.0000
  K   K2        1.0  0.11900  0.88100  0.25000  1.0000
  K   K3        1.0  0.76300  0.88100  0.25000  1.0000
  K   K4        1.0  0.23700  0.11900  0.75000  1.0000
  K   K5        1.0  0.88100  0.11900  0.75000  1.0000
  K   K6        1.0  0.88100  0.76300  0.75000  1.0000
  Sb  Sb1       1.0  0.00000  0.00000  0.00000  1.0000
  Sb  Sb2       1.0  0.05310  0.52700  0.25000  1.0000
  Sb  Sb3       1.0  0.47300  0.52700  0.25000  1.0000
  Sb  Sb4       1.0  0.47300  0.94700  0.25000  1.0000
  Sb  Sb5       1.0  0.00000  0.00000  0.50000  1.0000
  Sb  Sb6       1.0  0.52700  0.05320  0.75000  1.0000
  Sb  Sb7       1.0  0.52700  0.47300  0.75000  1.0000
  Sb  Sb8       1.0  0.94700  0.47300  0.75000  1.0000
