data_image0
_chemical_formula_structural       Al4Ca12N12
_chemical_formula_sum              "Al4 Ca12 N12"
_cell_length_a       6.86469
_cell_length_b       6.09345
_cell_length_c       9.77649
_cell_angle_alpha    90
_cell_angle_beta     93.7769
_cell_angle_gamma    90

_space_group_name_H-M_alt    "P 1"
_space_group_IT_number       1

loop_
  _space_group_symop_operation_xyz
  'x, y, z'

loop_
  _atom_site_type_symbol
  _atom_site_label
  _atom_site_symmetry_multiplicity
  _atom_site_fract_x
  _atom_site_fract_y
  _atom_site_fract_z
  _atom_site_occupancy
  Al  Al1       1.0  0.16000  0.59100  0.06000  1.0000
  Al  Al2       1.0  0.84000  0.09140  0.44000  1.0000
  Al  Al3       1.0  0.16000  0.90900  0.56000  1.0000
  Al  Al4       1.0  0.84000  0.40900  0.94000  1.0000
  Ca  Ca1       1.0  0.62600  0.79100  0.07580  1.0000
  Ca  Ca2       1.0  0.07670  0.14200  0.14900  1.0000
  Ca  Ca3       1.0  0.64700  0.28100  0.19500  1.0000
  Ca  Ca4       1.0  0.35300  0.78100  0.30500  1.0000
  Ca  Ca5       1.0  0.92300  0.64200  0.35100  1.0000
  Ca  Ca6       1.0  0.37400  0.29100  0.42400  1.0000
  Ca  Ca7       1.0  0.62600  0.70900  0.57600  1.0000
  Ca  Ca8       1.0  0.07670  0.35800  0.64900  1.0000
  Ca  Ca9       1.0  0.64700  0.21900  0.69500  1.0000
  Ca  Ca10      1.0  0.35300  0.71900  0.80500  1.0000
  Ca  Ca11      1.0  0.92300  0.85800  0.85100  1.0000
  Ca  Ca12      1.0  0.37400  0.20900  0.92400  1.0000
  N   N1        1.0  0.26000  0.87800  0.02810  1.0000
  N   N2        1.0  0.89700  0.53900  0.11900  1.0000
  N   N3        1.0  0.34100  0.43100  0.17600  1.0000
  N   N4        1.0  0.65900  0.93100  0.32400  1.0000
  N   N5        1.0  0.10300  0.03870  0.38100  1.0000
  N   N6        1.0  0.74000  0.37800  0.47200  1.0000
  N   N7        1.0  0.26000  0.62200  0.52800  1.0000
  N   N8        1.0  0.89700  0.96100  0.61900  1.0000
  N   N9        1.0  0.34100  0.06940  0.67600  1.0000
  N   N10       1.0  0.65900  0.56900  0.82400  1.0000
  N   N11       1.0  0.10300  0.46100  0.88100  1.0000
  N   N12       1.0  0.74000  0.12200  0.97200  1.0000
