data_image0
_chemical_formula_structural       I12La12Pb4
_chemical_formula_sum              "I12 La12 Pb4"
_cell_length_a       11.2643
_cell_length_b       11.2643
_cell_length_c       11.2643
_cell_angle_alpha    109.471
_cell_angle_beta     109.471
_cell_angle_gamma    109.471

_space_group_name_H-M_alt    "P 1"
_space_group_IT_number       1

loop_
  _space_group_symop_operation_xyz
  'x, y, z'

loop_
  _atom_site_type_symbol
  _atom_site_label
  _atom_site_symmetry_multiplicity
  _atom_site_fract_x
  _atom_site_fract_y
  _atom_site_fract_z
  _atom_site_occupancy
  I   I1        1.0  0.25600  0.24400  0.25000  1.0000
  I   I2        1.0  0.49400  0.00623  0.25000  1.0000
  I   I3        1.0  0.25600  0.01250  0.50600  1.0000
  I   I4        1.0  0.75000  0.49400  0.50600  1.0000
  I   I5        1.0  0.00623  0.25600  0.51200  1.0000
  I   I6        1.0  0.75000  0.25600  0.74400  1.0000
  I   I7        1.0  0.49400  0.48800  0.74400  1.0000
  I   I8        1.0  0.01250  0.00623  0.75600  1.0000
  I   I9        1.0  0.24400  0.75000  0.75600  1.0000
  I   I10       1.0  0.24400  0.49400  0.98800  1.0000
  I   I11       1.0  0.00623  0.75000  0.99400  1.0000
  I   I12       1.0  0.48800  0.24400  0.99400  1.0000
  La  La1       1.0  0.99400  0.25000  0.00647  1.0000
  La  La2       1.0  0.51300  0.75600  0.00647  1.0000
  La  La3       1.0  0.75600  0.50600  0.01290  1.0000
  La  La4       1.0  0.75600  0.25000  0.24400  1.0000
  La  La5       1.0  0.98700  0.99400  0.24400  1.0000
  La  La6       1.0  0.50600  0.51300  0.25600  1.0000
  La  La7       1.0  0.25000  0.74400  0.25600  1.0000
  La  La8       1.0  0.99400  0.74400  0.48700  1.0000
  La  La9       1.0  0.25000  0.50600  0.49400  1.0000
  La  La10      1.0  0.74400  0.98700  0.49400  1.0000
  La  La11      1.0  0.50600  0.99400  0.75000  1.0000
  La  La12      1.0  0.74400  0.75600  0.75000  1.0000
  Pb  Pb1       1.0  0.75000  0.00000  0.00000  1.0000
  Pb  Pb2       1.0  0.00000  0.50000  0.25000  1.0000
  Pb  Pb3       1.0  0.75000  0.75000  0.25000  1.0000
  Pb  Pb4       1.0  0.50000  0.75000  0.50000  1.0000
