data_image0
_chemical_formula_structural       Ga4K12S12
_chemical_formula_sum              "Ga4 K12 S12"
_cell_length_a       7.78088
_cell_length_b       12.641
_cell_length_c       10.1381
_cell_angle_alpha    90
_cell_angle_beta     127.585
_cell_angle_gamma    90

_space_group_name_H-M_alt    "P 1"
_space_group_IT_number       1

loop_
  _space_group_symop_operation_xyz
  'x, y, z'

loop_
  _atom_site_type_symbol
  _atom_site_label
  _atom_site_symmetry_multiplicity
  _atom_site_fract_x
  _atom_site_fract_y
  _atom_site_fract_z
  _atom_site_occupancy
  Ga  Ga1       1.0  0.06640  0.06030  0.16500  1.0000
  Ga  Ga2       1.0  0.93400  0.56000  0.33500  1.0000
  Ga  Ga3       1.0  0.06640  0.44000  0.66500  1.0000
  Ga  Ga4       1.0  0.93400  0.94000  0.83500  1.0000
  K   K1        1.0  0.38200  0.12700  0.02630  1.0000
  K   K2        1.0  0.86300  0.31100  0.07770  1.0000
  K   K3        1.0  0.34100  0.41000  0.10700  1.0000
  K   K4        1.0  0.65900  0.91000  0.39300  1.0000
  K   K5        1.0  0.13700  0.81100  0.42200  1.0000
  K   K6        1.0  0.61800  0.62700  0.47400  1.0000
  K   K7        1.0  0.38200  0.37300  0.52600  1.0000
  K   K8        1.0  0.86300  0.18900  0.57800  1.0000
  K   K9        1.0  0.34100  0.08960  0.60700  1.0000
  K   K10       1.0  0.65900  0.59000  0.89300  1.0000
  K   K11       1.0  0.13700  0.68900  0.92200  1.0000
  K   K12       1.0  0.61800  0.87300  0.97400  1.0000
  S   S1        1.0  0.15600  0.89300  0.12200  1.0000
  S   S2        1.0  0.65300  0.67700  0.18900  1.0000
  S   S3        1.0  0.12700  0.54500  0.23600  1.0000
  S   S4        1.0  0.87300  0.04540  0.26400  1.0000
  S   S5        1.0  0.34700  0.17700  0.31100  1.0000
  S   S6        1.0  0.84400  0.39300  0.37800  1.0000
  S   S7        1.0  0.15600  0.60700  0.62200  1.0000
  S   S8        1.0  0.65300  0.82300  0.68900  1.0000
  S   S9        1.0  0.12700  0.95500  0.73600  1.0000
  S   S10       1.0  0.87300  0.45500  0.76400  1.0000
  S   S11       1.0  0.34700  0.32300  0.81100  1.0000
  S   S12       1.0  0.84400  0.10700  0.87800  1.0000
