data_image0
_chemical_formula_structural       Ag4O16P4Zn4
_chemical_formula_sum              "Ag4 O16 P4 Zn4"
_cell_length_a       5.12248
_cell_length_b       10.3861
_cell_length_c       7.35233
_cell_angle_alpha    90
_cell_angle_beta     90.357
_cell_angle_gamma    90

_space_group_name_H-M_alt    "P 1"
_space_group_IT_number       1

loop_
  _space_group_symop_operation_xyz
  'x, y, z'

loop_
  _atom_site_type_symbol
  _atom_site_label
  _atom_site_symmetry_multiplicity
  _atom_site_fract_x
  _atom_site_fract_y
  _atom_site_fract_z
  _atom_site_occupancy
  Ag  Ag1       1.0  0.20200  0.89900  0.01960  1.0000
  Ag  Ag2       1.0  0.29800  0.39900  0.48000  1.0000
  Ag  Ag3       1.0  0.70200  0.60100  0.52000  1.0000
  Ag  Ag4       1.0  0.79800  0.10100  0.98000  1.0000
  O   O1        1.0  0.68800  0.33500  0.03690  1.0000
  O   O2        1.0  0.77500  0.83100  0.11200  1.0000
  O   O3        1.0  0.11600  0.37900  0.19300  1.0000
  O   O4        1.0  0.74000  0.54000  0.22500  1.0000
  O   O5        1.0  0.76000  0.03960  0.27500  1.0000
  O   O6        1.0  0.38400  0.87900  0.30700  1.0000
  O   O7        1.0  0.72500  0.33100  0.38800  1.0000
  O   O8        1.0  0.81200  0.83500  0.46300  1.0000
  O   O9        1.0  0.18800  0.16500  0.53700  1.0000
  O   O10       1.0  0.27500  0.66900  0.61200  1.0000
  O   O11       1.0  0.61600  0.12100  0.69300  1.0000
  O   O12       1.0  0.24000  0.96000  0.72500  1.0000
  O   O13       1.0  0.26000  0.46000  0.77500  1.0000
  O   O14       1.0  0.88400  0.62100  0.80700  1.0000
  O   O15       1.0  0.22500  0.16900  0.88800  1.0000
  O   O16       1.0  0.31200  0.66500  0.96300  1.0000
  P   P1        1.0  0.81500  0.39500  0.20800  1.0000
  P   P2        1.0  0.68500  0.89500  0.29200  1.0000
  P   P3        1.0  0.31500  0.10500  0.70800  1.0000
  P   P4        1.0  0.18500  0.60500  0.79200  1.0000
  Zn  Zn1       1.0  0.68400  0.65900  0.02360  1.0000
  Zn  Zn2       1.0  0.81600  0.15900  0.47600  1.0000
  Zn  Zn3       1.0  0.18400  0.84100  0.52400  1.0000
  Zn  Zn4       1.0  0.31600  0.34100  0.97600  1.0000
