data_image0
_chemical_formula_structural       Bi4Rb4S16Si4
_chemical_formula_sum              "Bi4 Rb4 S16 Si4"
_cell_length_a       6.55604
_cell_length_b       6.81369
_cell_length_c       18.0502
_cell_angle_alpha    90
_cell_angle_beta     107.919
_cell_angle_gamma    90

_space_group_name_H-M_alt    "P 1"
_space_group_IT_number       1

loop_
  _space_group_symop_operation_xyz
  'x, y, z'

loop_
  _atom_site_type_symbol
  _atom_site_label
  _atom_site_symmetry_multiplicity
  _atom_site_fract_x
  _atom_site_fract_y
  _atom_site_fract_z
  _atom_site_occupancy
  Bi  Bi1       1.0  0.76100  0.20200  0.22300  1.0000
  Bi  Bi2       1.0  0.23900  0.70200  0.27700  1.0000
  Bi  Bi3       1.0  0.76100  0.29800  0.72300  1.0000
  Bi  Bi4       1.0  0.23900  0.79800  0.77700  1.0000
  Rb  Rb1       1.0  0.28200  0.74900  0.03420  1.0000
  Rb  Rb2       1.0  0.71800  0.24900  0.46600  1.0000
  Rb  Rb3       1.0  0.28200  0.75100  0.53400  1.0000
  Rb  Rb4       1.0  0.71800  0.25100  0.96600  1.0000
  S   S1        1.0  0.40900  0.25100  0.08860  1.0000
  S   S2        1.0  0.98300  0.50200  0.13600  1.0000
  S   S3        1.0  0.01300  0.00843  0.14700  1.0000
  S   S4        1.0  0.59600  0.81700  0.22100  1.0000
  S   S5        1.0  0.40400  0.31700  0.27900  1.0000
  S   S6        1.0  0.98700  0.50800  0.35300  1.0000
  S   S7        1.0  0.01700  0.00210  0.36400  1.0000
  S   S8        1.0  0.59100  0.75100  0.41100  1.0000
  S   S9        1.0  0.40900  0.24900  0.58900  1.0000
  S   S10       1.0  0.98300  0.99800  0.63600  1.0000
  S   S11       1.0  0.01300  0.49200  0.64700  1.0000
  S   S12       1.0  0.59600  0.68300  0.72100  1.0000
  S   S13       1.0  0.40400  0.18300  0.77900  1.0000
  S   S14       1.0  0.98700  0.99200  0.85300  1.0000
  S   S15       1.0  0.01700  0.49800  0.86400  1.0000
  S   S16       1.0  0.59100  0.74900  0.91100  1.0000
  Si  Si1       1.0  0.20700  0.26700  0.16100  1.0000
  Si  Si2       1.0  0.79300  0.76700  0.33900  1.0000
  Si  Si3       1.0  0.20700  0.23300  0.66100  1.0000
  Si  Si4       1.0  0.79300  0.73300  0.83900  1.0000
