data_image0
_chemical_formula_structural       In4Li4O16Si4
_chemical_formula_sum              "In4 Li4 O16 Si4"
_cell_length_a       4.84381
_cell_length_b       10.4937
_cell_length_c       6.05818
_cell_angle_alpha    90
_cell_angle_beta     90
_cell_angle_gamma    90

_space_group_name_H-M_alt    "P 1"
_space_group_IT_number       1

loop_
  _space_group_symop_operation_xyz
  'x, y, z'

loop_
  _atom_site_type_symbol
  _atom_site_label
  _atom_site_symmetry_multiplicity
  _atom_site_fract_x
  _atom_site_fract_y
  _atom_site_fract_z
  _atom_site_occupancy
  In  In1       1.0  0.97700  0.27500  0.25000  1.0000
  In  In2       1.0  0.52300  0.77500  0.25000  1.0000
  In  In3       1.0  0.47700  0.22500  0.75000  1.0000
  In  In4       1.0  0.02310  0.72500  0.75000  1.0000
  Li  Li1       1.0  0.00000  0.00000  0.00000  1.0000
  Li  Li2       1.0  0.50000  0.50000  0.00000  1.0000
  Li  Li3       1.0  0.00000  0.00000  0.50000  1.0000
  Li  Li4       1.0  0.50000  0.50000  0.50000  1.0000
  O   O1        1.0  0.26900  0.16100  0.03970  1.0000
  O   O2        1.0  0.23100  0.66100  0.03970  1.0000
  O   O3        1.0  0.75500  0.09400  0.25000  1.0000
  O   O4        1.0  0.21500  0.44400  0.25000  1.0000
  O   O5        1.0  0.74500  0.59400  0.25000  1.0000
  O   O6        1.0  0.28500  0.94400  0.25000  1.0000
  O   O7        1.0  0.26900  0.16100  0.46000  1.0000
  O   O8        1.0  0.23100  0.66100  0.46000  1.0000
  O   O9        1.0  0.76900  0.33900  0.54000  1.0000
  O   O10       1.0  0.73100  0.83900  0.54000  1.0000
  O   O11       1.0  0.71500  0.05630  0.75000  1.0000
  O   O12       1.0  0.25500  0.40600  0.75000  1.0000
  O   O13       1.0  0.78500  0.55600  0.75000  1.0000
  O   O14       1.0  0.24500  0.90600  0.75000  1.0000
  O   O15       1.0  0.76900  0.33900  0.96000  1.0000
  O   O16       1.0  0.73100  0.83900  0.96000  1.0000
  Si  Si1       1.0  0.42200  0.08600  0.25000  1.0000
  Si  Si2       1.0  0.07830  0.58600  0.25000  1.0000
  Si  Si3       1.0  0.92200  0.41400  0.75000  1.0000
  Si  Si4       1.0  0.57800  0.91400  0.75000  1.0000
