data_image0
_chemical_formula_structural       Rb8S16W4
_chemical_formula_sum              "Rb8 S16 W4"
_cell_length_a       9.82169
_cell_length_b       7.12617
_cell_length_c       12.653
_cell_angle_alpha    90
_cell_angle_beta     90
_cell_angle_gamma    90

_space_group_name_H-M_alt    "P 1"
_space_group_IT_number       1

loop_
  _space_group_symop_operation_xyz
  'x, y, z'

loop_
  _atom_site_type_symbol
  _atom_site_label
  _atom_site_symmetry_multiplicity
  _atom_site_fract_x
  _atom_site_fract_y
  _atom_site_fract_z
  _atom_site_occupancy
  Rb  Rb1       1.0  0.84100  0.75000  0.10900  1.0000
  Rb  Rb2       1.0  0.46000  0.25000  0.16700  1.0000
  Rb  Rb3       1.0  0.96000  0.25000  0.33300  1.0000
  Rb  Rb4       1.0  0.34100  0.75000  0.39100  1.0000
  Rb  Rb5       1.0  0.65900  0.25000  0.60900  1.0000
  Rb  Rb6       1.0  0.03960  0.75000  0.66700  1.0000
  Rb  Rb7       1.0  0.54000  0.75000  0.83300  1.0000
  Rb  Rb8       1.0  0.15900  0.25000  0.89100  1.0000
  S   S1        1.0  0.78600  0.25000  0.09930  1.0000
  S   S2        1.0  0.47500  0.75000  0.10700  1.0000
  S   S3        1.0  0.15800  0.00040  0.14300  1.0000
  S   S4        1.0  0.15800  0.50000  0.14300  1.0000
  S   S5        1.0  0.65800  0.00040  0.35700  1.0000
  S   S6        1.0  0.65800  0.50000  0.35700  1.0000
  S   S7        1.0  0.97500  0.75000  0.39300  1.0000
  S   S8        1.0  0.28600  0.25000  0.40100  1.0000
  S   S9        1.0  0.71400  0.75000  0.59900  1.0000
  S   S10       1.0  0.02540  0.25000  0.60700  1.0000
  S   S11       1.0  0.34200  0.50000  0.64300  1.0000
  S   S12       1.0  0.34200  0.00000  0.64300  1.0000
  S   S13       1.0  0.84200  0.50000  0.85700  1.0000
  S   S14       1.0  0.84200  0.00000  0.85700  1.0000
  S   S15       1.0  0.52500  0.25000  0.89300  1.0000
  S   S16       1.0  0.21400  0.75000  0.90100  1.0000
  W   W1        1.0  0.25300  0.75000  0.07260  1.0000
  W   W2        1.0  0.75300  0.75000  0.42700  1.0000
  W   W3        1.0  0.24700  0.25000  0.57300  1.0000
  W   W4        1.0  0.74700  0.25000  0.92700  1.0000
