data_image0
_chemical_formula_structural       Bi4K12Te12
_chemical_formula_sum              "Bi4 K12 Te12"
_cell_length_a       10.5127
_cell_length_b       10.5127
_cell_length_c       10.5127
_cell_angle_alpha    90
_cell_angle_beta     90
_cell_angle_gamma    90

_space_group_name_H-M_alt    "P 1"
_space_group_IT_number       1

loop_
  _space_group_symop_operation_xyz
  'x, y, z'

loop_
  _atom_site_type_symbol
  _atom_site_label
  _atom_site_symmetry_multiplicity
  _atom_site_fract_x
  _atom_site_fract_y
  _atom_site_fract_z
  _atom_site_occupancy
  Bi  Bi1       1.0  0.03570  0.03570  0.03570  1.0000
  Bi  Bi2       1.0  0.96400  0.53600  0.46400  1.0000
  Bi  Bi3       1.0  0.46400  0.96400  0.53600  1.0000
  Bi  Bi4       1.0  0.53600  0.46400  0.96400  1.0000
  K   K1        1.0  0.92500  0.42500  0.07470  1.0000
  K   K2        1.0  0.67400  0.82600  0.17400  1.0000
  K   K3        1.0  0.31800  0.68200  0.18200  1.0000
  K   K4        1.0  0.68200  0.18200  0.31800  1.0000
  K   K5        1.0  0.32600  0.32600  0.32600  1.0000
  K   K6        1.0  0.07470  0.92500  0.42500  1.0000
  K   K7        1.0  0.57500  0.57500  0.57500  1.0000
  K   K8        1.0  0.82600  0.17400  0.67400  1.0000
  K   K9        1.0  0.18200  0.31800  0.68200  1.0000
  K   K10       1.0  0.81800  0.81800  0.81800  1.0000
  K   K11       1.0  0.17400  0.67400  0.82600  1.0000
  K   K12       1.0  0.42500  0.07470  0.92500  1.0000
  Te  Te1       1.0  0.77300  0.11800  0.00000  1.0000
  Te  Te2       1.0  0.27300  0.38200  0.00000  1.0000
  Te  Te3       1.0  0.00000  0.77300  0.11800  1.0000
  Te  Te4       1.0  0.61800  0.50000  0.22700  1.0000
  Te  Te5       1.0  0.38200  0.00000  0.27300  1.0000
  Te  Te6       1.0  0.00000  0.27300  0.38200  1.0000
  Te  Te7       1.0  0.72700  0.88200  0.50000  1.0000
  Te  Te8       1.0  0.22700  0.61800  0.50000  1.0000
  Te  Te9       1.0  0.50000  0.22700  0.61800  1.0000
  Te  Te10      1.0  0.88200  0.50000  0.72700  1.0000
  Te  Te11      1.0  0.11800  0.00000  0.77300  1.0000
  Te  Te12      1.0  0.50000  0.72700  0.88200  1.0000
