data_image0
_chemical_formula_structural       K12O12Sb4
_chemical_formula_sum              "K12 O12 Sb4"
_cell_length_a       8.32044
_cell_length_b       8.32044
_cell_length_c       8.32044
_cell_angle_alpha    90
_cell_angle_beta     90
_cell_angle_gamma    90

_space_group_name_H-M_alt    "P 1"
_space_group_IT_number       1

loop_
  _space_group_symop_operation_xyz
  'x, y, z'

loop_
  _atom_site_type_symbol
  _atom_site_label
  _atom_site_symmetry_multiplicity
  _atom_site_fract_x
  _atom_site_fract_y
  _atom_site_fract_z
  _atom_site_occupancy
  K   K1        1.0  0.02710  0.02710  0.02710  1.0000
  K   K2        1.0  0.28900  0.71100  0.21100  1.0000
  K   K3        1.0  0.71500  0.78500  0.21500  1.0000
  K   K4        1.0  0.28500  0.28500  0.28500  1.0000
  K   K5        1.0  0.71100  0.21100  0.28900  1.0000
  K   K6        1.0  0.97300  0.52700  0.47300  1.0000
  K   K7        1.0  0.47300  0.97300  0.52700  1.0000
  K   K8        1.0  0.21100  0.28900  0.71100  1.0000
  K   K9        1.0  0.78500  0.21500  0.71500  1.0000
  K   K10       1.0  0.21500  0.71500  0.78500  1.0000
  K   K11       1.0  0.78900  0.78900  0.78900  1.0000
  K   K12       1.0  0.52700  0.47300  0.97300  1.0000
  O   O1        1.0  0.21400  0.43600  0.00576  1.0000
  O   O2        1.0  0.99400  0.71400  0.06390  1.0000
  O   O3        1.0  0.43600  0.00576  0.21400  1.0000
  O   O4        1.0  0.56400  0.50600  0.28600  1.0000
  O   O5        1.0  0.00576  0.21400  0.43600  1.0000
  O   O6        1.0  0.78600  0.93600  0.49400  1.0000
  O   O7        1.0  0.28600  0.56400  0.50600  1.0000
  O   O8        1.0  0.50600  0.28600  0.56400  1.0000
  O   O9        1.0  0.06390  0.99400  0.71400  1.0000
  O   O10       1.0  0.93600  0.49400  0.78600  1.0000
  O   O11       1.0  0.49400  0.78600  0.93600  1.0000
  O   O12       1.0  0.71400  0.06390  0.99400  1.0000
  Sb  Sb1       1.0  0.98300  0.48300  0.01700  1.0000
  Sb  Sb2       1.0  0.01700  0.98300  0.48300  1.0000
  Sb  Sb3       1.0  0.51700  0.51700  0.51700  1.0000
  Sb  Sb4       1.0  0.48300  0.01700  0.98300  1.0000
