data_image0
_chemical_formula_structural       Cu12Sb4Se12
_chemical_formula_sum              "Cu12 Sb4 Se12"
_cell_length_a       8.03701
_cell_length_b       10.5917
_cell_length_c       6.88678
_cell_angle_alpha    90
_cell_angle_beta     90
_cell_angle_gamma    90

_space_group_name_H-M_alt    "P 1"
_space_group_IT_number       1

loop_
  _space_group_symop_operation_xyz
  'x, y, z'

loop_
  _atom_site_type_symbol
  _atom_site_label
  _atom_site_symmetry_multiplicity
  _atom_site_fract_x
  _atom_site_fract_y
  _atom_site_fract_z
  _atom_site_occupancy
  Cu  Cu1       1.0  0.69000  0.25000  0.06790  1.0000
  Cu  Cu2       1.0  0.59800  0.04570  0.24800  1.0000
  Cu  Cu3       1.0  0.59800  0.45400  0.24800  1.0000
  Cu  Cu4       1.0  0.09760  0.04570  0.25200  1.0000
  Cu  Cu5       1.0  0.09760  0.45400  0.25200  1.0000
  Cu  Cu6       1.0  0.19000  0.25000  0.43200  1.0000
  Cu  Cu7       1.0  0.81000  0.75000  0.56800  1.0000
  Cu  Cu8       1.0  0.90200  0.54600  0.74800  1.0000
  Cu  Cu9       1.0  0.90200  0.95400  0.74800  1.0000
  Cu  Cu10      1.0  0.40200  0.54600  0.75200  1.0000
  Cu  Cu11      1.0  0.40200  0.95400  0.75200  1.0000
  Cu  Cu12      1.0  0.31000  0.75000  0.93200  1.0000
  Sb  Sb1       1.0  0.75400  0.75000  0.11000  1.0000
  Sb  Sb2       1.0  0.25400  0.75000  0.39000  1.0000
  Sb  Sb3       1.0  0.74600  0.25000  0.61000  1.0000
  Sb  Sb4       1.0  0.24600  0.25000  0.89000  1.0000
  Se  Se1       1.0  0.99800  0.25000  0.13900  1.0000
  Se  Se2       1.0  0.34300  0.56200  0.15100  1.0000
  Se  Se3       1.0  0.34300  0.93800  0.15100  1.0000
  Se  Se4       1.0  0.84300  0.56200  0.34900  1.0000
  Se  Se5       1.0  0.84300  0.93800  0.34900  1.0000
  Se  Se6       1.0  0.49800  0.25000  0.36100  1.0000
  Se  Se7       1.0  0.50200  0.75000  0.63900  1.0000
  Se  Se8       1.0  0.15700  0.06230  0.65100  1.0000
  Se  Se9       1.0  0.15700  0.43800  0.65100  1.0000
  Se  Se10      1.0  0.65700  0.06230  0.84900  1.0000
  Se  Se11      1.0  0.65700  0.43800  0.84900  1.0000
  Se  Se12      1.0  0.00223  0.75000  0.86100  1.0000
