data_image0
_chemical_formula_structural       Ba4O18V6
_chemical_formula_sum              "Ba4 O18 V6"
_cell_length_a       8.16795
_cell_length_b       5.91399
_cell_length_c       9.29714
_cell_angle_alpha    90
_cell_angle_beta     114.112
_cell_angle_gamma    90

_space_group_name_H-M_alt    "P 1"
_space_group_IT_number       1

loop_
  _space_group_symop_operation_xyz
  'x, y, z'

loop_
  _atom_site_type_symbol
  _atom_site_label
  _atom_site_symmetry_multiplicity
  _atom_site_fract_x
  _atom_site_fract_y
  _atom_site_fract_z
  _atom_site_occupancy
  Ba  Ba1       1.0  0.19500  0.24900  0.09160  1.0000
  Ba  Ba2       1.0  0.78400  0.25200  0.26600  1.0000
  Ba  Ba3       1.0  0.21600  0.75200  0.73400  1.0000
  Ba  Ba4       1.0  0.80500  0.74900  0.90800  1.0000
  O   O1        1.0  0.25300  0.75000  0.04570  1.0000
  O   O2        1.0  0.60100  0.75000  0.07010  1.0000
  O   O3        1.0  0.00314  0.52100  0.19100  1.0000
  O   O4        1.0  0.00417  0.98100  0.19400  1.0000
  O   O5        1.0  0.51200  0.50100  0.29000  1.0000
  O   O6        1.0  0.51100  0.99900  0.29000  1.0000
  O   O7        1.0  0.95800  0.74600  0.43100  1.0000
  O   O8        1.0  0.34200  0.25100  0.43400  1.0000
  O   O9        1.0  0.31500  0.74600  0.43600  1.0000
  O   O10       1.0  0.68500  0.24600  0.56400  1.0000
  O   O11       1.0  0.65800  0.75100  0.56600  1.0000
  O   O12       1.0  0.04170  0.24600  0.56900  1.0000
  O   O13       1.0  0.48900  0.49900  0.71000  1.0000
  O   O14       1.0  0.48800  0.00107  0.71000  1.0000
  O   O15       1.0  0.99600  0.48100  0.80600  1.0000
  O   O16       1.0  0.99700  0.02150  0.80900  1.0000
  O   O17       1.0  0.39900  0.25000  0.93000  1.0000
  O   O18       1.0  0.74700  0.25000  0.95400  1.0000
  V   V1        1.0  0.47200  0.75000  0.17300  1.0000
  V   V2        1.0  0.07040  0.75000  0.31400  1.0000
  V   V3        1.0  0.48700  0.48100  0.49400  1.0000
  V   V4        1.0  0.51300  0.98100  0.50600  1.0000
  V   V5        1.0  0.93000  0.25000  0.68600  1.0000
  V   V6        1.0  0.52800  0.25000  0.82700  1.0000
