data_image0
_chemical_formula_structural       In4Na12S12
_chemical_formula_sum              "In4 Na12 S12"
_cell_length_a       7.40275
_cell_length_b       10.4743
_cell_length_c       10.4743
_cell_angle_alpha    99.6875
_cell_angle_beta     110.746
_cell_angle_gamma    69.2545

_space_group_name_H-M_alt    "P 1"
_space_group_IT_number       1

loop_
  _space_group_symop_operation_xyz
  'x, y, z'

loop_
  _atom_site_type_symbol
  _atom_site_label
  _atom_site_symmetry_multiplicity
  _atom_site_fract_x
  _atom_site_fract_y
  _atom_site_fract_z
  _atom_site_occupancy
  In  In1       1.0  0.40300  0.42800  0.08270  1.0000
  In  In2       1.0  0.09720  0.08270  0.42800  1.0000
  In  In3       1.0  0.90300  0.91700  0.57200  1.0000
  In  In4       1.0  0.59700  0.57200  0.91700  1.0000
  Na  Na1       1.0  0.04530  0.82600  0.01030  1.0000
  Na  Na2       1.0  0.54500  0.99000  0.17400  1.0000
  Na  Na3       1.0  0.91200  0.63700  0.23000  1.0000
  Na  Na4       1.0  0.25000  0.27700  0.27700  1.0000
  Na  Na5       1.0  0.41200  0.77000  0.36300  1.0000
  Na  Na6       1.0  0.75000  0.43500  0.43500  1.0000
  Na  Na7       1.0  0.25000  0.56500  0.56500  1.0000
  Na  Na8       1.0  0.58800  0.23000  0.63700  1.0000
  Na  Na9       1.0  0.75000  0.72300  0.72300  1.0000
  Na  Na10      1.0  0.08760  0.36300  0.77000  1.0000
  Na  Na11      1.0  0.45500  0.01030  0.82600  1.0000
  Na  Na12      1.0  0.95500  0.17400  0.99000  1.0000
  S   S1        1.0  0.31600  0.21600  0.00395  1.0000
  S   S2        1.0  0.76600  0.41200  0.11500  1.0000
  S   S3        1.0  0.18400  0.00395  0.21600  1.0000
  S   S4        1.0  0.32800  0.52700  0.29500  1.0000
  S   S5        1.0  0.73400  0.11500  0.41200  1.0000
  S   S6        1.0  0.82800  0.70500  0.47300  1.0000
  S   S7        1.0  0.17200  0.29500  0.52700  1.0000
  S   S8        1.0  0.26600  0.88500  0.58800  1.0000
  S   S9        1.0  0.67200  0.47300  0.70500  1.0000
  S   S10       1.0  0.81600  0.99600  0.78400  1.0000
  S   S11       1.0  0.23400  0.58800  0.88500  1.0000
  S   S12       1.0  0.68400  0.78400  0.99600  1.0000
