data_image0
_chemical_formula_structural       B2Dy6O18W2
_chemical_formula_sum              "B2 Dy6 O18 W2"
_cell_length_a       8.45789
_cell_length_b       8.45789
_cell_length_c       5.31338
_cell_angle_alpha    90
_cell_angle_beta     90
_cell_angle_gamma    120

_space_group_name_H-M_alt    "P 1"
_space_group_IT_number       1

loop_
  _space_group_symop_operation_xyz
  'x, y, z'

loop_
  _atom_site_type_symbol
  _atom_site_label
  _atom_site_symmetry_multiplicity
  _atom_site_fract_x
  _atom_site_fract_y
  _atom_site_fract_z
  _atom_site_occupancy
  B   B1        1.0  0.00000  0.00000  0.36400  1.0000
  B   B2        1.0  0.00000  0.00000  0.86400  1.0000
  Dy  Dy1       1.0  0.91700  0.27400  0.20100  1.0000
  Dy  Dy2       1.0  0.35800  0.08340  0.20100  1.0000
  Dy  Dy3       1.0  0.72600  0.64200  0.20100  1.0000
  Dy  Dy4       1.0  0.27400  0.35800  0.70100  1.0000
  Dy  Dy5       1.0  0.08340  0.72600  0.70100  1.0000
  Dy  Dy6       1.0  0.64200  0.91700  0.70100  1.0000
  O   O1        1.0  0.19500  0.46500  0.03340  1.0000
  O   O2        1.0  0.53500  0.73100  0.03340  1.0000
  O   O3        1.0  0.26900  0.80500  0.03340  1.0000
  O   O4        1.0  0.12900  0.18300  0.35400  1.0000
  O   O5        1.0  0.05400  0.87100  0.35400  1.0000
  O   O6        1.0  0.81700  0.94600  0.35400  1.0000
  O   O7        1.0  0.13200  0.51300  0.48200  1.0000
  O   O8        1.0  0.38100  0.86800  0.48200  1.0000
  O   O9        1.0  0.48700  0.61900  0.48200  1.0000
  O   O10       1.0  0.80500  0.53500  0.53300  1.0000
  O   O11       1.0  0.73100  0.19500  0.53300  1.0000
  O   O12       1.0  0.46500  0.26900  0.53300  1.0000
  O   O13       1.0  0.18300  0.05400  0.85400  1.0000
  O   O14       1.0  0.94600  0.12900  0.85400  1.0000
  O   O15       1.0  0.87100  0.81700  0.85400  1.0000
  O   O16       1.0  0.61900  0.13200  0.98200  1.0000
  O   O17       1.0  0.51300  0.38100  0.98200  1.0000
  O   O18       1.0  0.86800  0.48700  0.98200  1.0000
  W   W1        1.0  0.33300  0.66700  0.24600  1.0000
  W   W2        1.0  0.66700  0.33300  0.74600  1.0000
