data_image0
_chemical_formula_structural       Ge4Rb4Se16Sm4
_chemical_formula_sum              "Ge4 Rb4 Se16 Sm4"
_cell_length_a       6.86362
_cell_length_b       7.10271
_cell_length_c       18.1489
_cell_angle_alpha    90
_cell_angle_beta     90
_cell_angle_gamma    90

_space_group_name_H-M_alt    "P 1"
_space_group_IT_number       1

loop_
  _space_group_symop_operation_xyz
  'x, y, z'

loop_
  _atom_site_type_symbol
  _atom_site_label
  _atom_site_symmetry_multiplicity
  _atom_site_fract_x
  _atom_site_fract_y
  _atom_site_fract_z
  _atom_site_occupancy
  Ge  Ge1       1.0  0.79100  0.51400  0.16400  1.0000
  Ge  Ge2       1.0  0.20900  0.01390  0.33600  1.0000
  Ge  Ge3       1.0  0.70900  0.48600  0.66400  1.0000
  Ge  Ge4       1.0  0.29100  0.98600  0.83600  1.0000
  Rb  Rb1       1.0  0.99000  0.00498  0.03110  1.0000
  Rb  Rb2       1.0  0.01010  0.50500  0.46900  1.0000
  Rb  Rb3       1.0  0.51000  0.99500  0.53100  1.0000
  Rb  Rb4       1.0  0.49000  0.49500  0.96900  1.0000
  Se  Se1       1.0  0.06320  0.51300  0.08500  1.0000
  Se  Se2       1.0  0.55500  0.75500  0.14200  1.0000
  Se  Se3       1.0  0.59600  0.23800  0.14900  1.0000
  Se  Se4       1.0  0.09900  0.08300  0.21500  1.0000
  Se  Se5       1.0  0.90100  0.58300  0.28500  1.0000
  Se  Se6       1.0  0.40400  0.73800  0.35100  1.0000
  Se  Se7       1.0  0.44500  0.25500  0.35800  1.0000
  Se  Se8       1.0  0.93700  0.01320  0.41500  1.0000
  Se  Se9       1.0  0.43700  0.48700  0.58500  1.0000
  Se  Se10      1.0  0.94500  0.24500  0.64200  1.0000
  Se  Se11      1.0  0.90400  0.76200  0.64900  1.0000
  Se  Se12      1.0  0.40100  0.91700  0.71500  1.0000
  Se  Se13      1.0  0.59900  0.41700  0.78500  1.0000
  Se  Se14      1.0  0.09620  0.26200  0.85100  1.0000
  Se  Se15      1.0  0.05460  0.74500  0.85800  1.0000
  Se  Se16      1.0  0.56300  0.98700  0.91500  1.0000
  Sm  Sm1       1.0  0.29300  0.47900  0.22600  1.0000
  Sm  Sm2       1.0  0.70700  0.97900  0.27400  1.0000
  Sm  Sm3       1.0  0.20700  0.52100  0.72600  1.0000
  Sm  Sm4       1.0  0.79300  0.02100  0.77400  1.0000
