data_image0
_chemical_formula_structural       Cl16Re4Se4Te4
_chemical_formula_sum              "Cl16 Re4 Se4 Te4"
_cell_length_a       10.3165
_cell_length_b       10.3165
_cell_length_c       10.3165
_cell_angle_alpha    115.383
_cell_angle_beta     98.2026
_cell_angle_gamma    115.383

_space_group_name_H-M_alt    "P 1"
_space_group_IT_number       1

loop_
  _space_group_symop_operation_xyz
  'x, y, z'

loop_
  _atom_site_type_symbol
  _atom_site_label
  _atom_site_symmetry_multiplicity
  _atom_site_fract_x
  _atom_site_fract_y
  _atom_site_fract_z
  _atom_site_occupancy
  Cl  Cl1       1.0  0.85700  0.56100  0.05100  1.0000
  Cl  Cl2       1.0  0.35400  0.61700  0.07920  1.0000
  Cl  Cl3       1.0  0.29600  0.90500  0.09660  1.0000
  Cl  Cl4       1.0  0.79300  0.89400  0.13300  1.0000
  Cl  Cl5       1.0  0.70400  0.19400  0.14300  1.0000
  Cl  Cl6       1.0  0.10200  0.34000  0.20700  1.0000
  Cl  Cl7       1.0  0.49000  0.43900  0.29600  1.0000
  Cl  Cl8       1.0  0.19200  0.09510  0.39200  1.0000
  Cl  Cl9       1.0  0.94900  0.80600  0.51000  1.0000
  Cl  Cl10      1.0  0.92100  0.27500  0.53800  1.0000
  Cl  Cl11      1.0  0.26300  0.72500  0.64600  1.0000
  Cl  Cl12      1.0  0.60800  0.80000  0.70400  1.0000
  Cl  Cl13      1.0  0.46200  0.38300  0.73700  1.0000
  Cl  Cl14      1.0  0.86700  0.66000  0.76200  1.0000
  Cl  Cl15      1.0  0.90300  0.20000  0.80800  1.0000
  Cl  Cl16      1.0  0.23800  0.10600  0.89800  1.0000
  Re  Re1       1.0  0.45500  0.90900  0.30500  1.0000
  Re  Re2       1.0  0.45300  0.85000  0.54500  1.0000
  Re  Re3       1.0  0.39600  0.09150  0.54700  1.0000
  Re  Re4       1.0  0.69500  0.15000  0.60400  1.0000
  Se  Se1       1.0  0.22200  0.77900  0.35600  1.0000
  Se  Se2       1.0  0.64400  0.86600  0.42300  1.0000
  Se  Se3       1.0  0.57700  0.22100  0.44300  1.0000
  Se  Se4       1.0  0.55700  0.13400  0.77800  1.0000
  Te  Te1       1.0  0.56600  0.90500  0.07730  1.0000
  Te  Te2       1.0  0.33800  0.51100  0.43400  1.0000
  Te  Te3       1.0  0.17300  0.09550  0.66200  1.0000
  Te  Te4       1.0  0.92300  0.48900  0.82700  1.0000
