data_image0
_chemical_formula_structural       Cr2La6O12S6W2
_chemical_formula_sum              "Cr2 La6 O12 S6 W2"
_cell_length_a       9.41853
_cell_length_b       9.41854
_cell_length_c       5.56822
_cell_angle_alpha    90
_cell_angle_beta     90
_cell_angle_gamma    120

_space_group_name_H-M_alt    "P 1"
_space_group_IT_number       1

loop_
  _space_group_symop_operation_xyz
  'x, y, z'

loop_
  _atom_site_type_symbol
  _atom_site_label
  _atom_site_symmetry_multiplicity
  _atom_site_fract_x
  _atom_site_fract_y
  _atom_site_fract_z
  _atom_site_occupancy
  Cr  Cr1       1.0  0.00000  0.00000  0.00000  1.0000
  Cr  Cr2       1.0  0.00000  0.00000  0.50000  1.0000
  La  La1       1.0  0.68200  0.08970  0.25000  1.0000
  La  La2       1.0  0.40700  0.31800  0.25000  1.0000
  La  La3       1.0  0.91000  0.59300  0.25000  1.0000
  La  La4       1.0  0.08970  0.40700  0.75000  1.0000
  La  La5       1.0  0.59300  0.68200  0.75000  1.0000
  La  La6       1.0  0.31800  0.91000  0.75000  1.0000
  O   O1        1.0  0.47400  0.83900  0.02440  1.0000
  O   O2        1.0  0.36500  0.52600  0.02440  1.0000
  O   O3        1.0  0.16100  0.63500  0.02440  1.0000
  O   O4        1.0  0.16100  0.63500  0.47600  1.0000
  O   O5        1.0  0.36500  0.52600  0.47600  1.0000
  O   O6        1.0  0.47400  0.83900  0.47600  1.0000
  O   O7        1.0  0.52600  0.16100  0.52400  1.0000
  O   O8        1.0  0.63500  0.47400  0.52400  1.0000
  O   O9        1.0  0.83900  0.36500  0.52400  1.0000
  O   O10       1.0  0.83900  0.36500  0.97600  1.0000
  O   O11       1.0  0.63500  0.47400  0.97600  1.0000
  O   O12       1.0  0.52600  0.16100  0.97600  1.0000
  S   S1        1.0  0.04610  0.22800  0.25000  1.0000
  S   S2        1.0  0.77200  0.81800  0.25000  1.0000
  S   S3        1.0  0.18200  0.95400  0.25000  1.0000
  S   S4        1.0  0.81800  0.04610  0.75000  1.0000
  S   S5        1.0  0.22800  0.18200  0.75000  1.0000
  S   S6        1.0  0.95400  0.77200  0.75000  1.0000
  W   W1        1.0  0.33300  0.66700  0.25000  1.0000
  W   W2        1.0  0.66700  0.33300  0.75000  1.0000
