data_image0
_chemical_formula_structural       Al8Bi4Se16
_chemical_formula_sum              "Al8 Bi4 Se16"
_cell_length_a       7.89925
_cell_length_b       7.89925
_cell_length_c       12.5664
_cell_angle_alpha    90
_cell_angle_beta     90
_cell_angle_gamma    90

_space_group_name_H-M_alt    "P 1"
_space_group_IT_number       1

loop_
  _space_group_symop_operation_xyz
  'x, y, z'

loop_
  _atom_site_type_symbol
  _atom_site_label
  _atom_site_symmetry_multiplicity
  _atom_site_fract_x
  _atom_site_fract_y
  _atom_site_fract_z
  _atom_site_occupancy
  Al  Al1       1.0  0.75000  0.25000  0.00000  1.0000
  Al  Al2       1.0  0.25000  0.75000  0.00000  1.0000
  Al  Al3       1.0  0.75000  0.25000  0.25000  1.0000
  Al  Al4       1.0  0.25000  0.75000  0.25000  1.0000
  Al  Al5       1.0  0.75000  0.25000  0.50000  1.0000
  Al  Al6       1.0  0.25000  0.75000  0.50000  1.0000
  Al  Al7       1.0  0.75000  0.25000  0.75000  1.0000
  Al  Al8       1.0  0.25000  0.75000  0.75000  1.0000
  Bi  Bi1       1.0  0.25000  0.25000  0.12400  1.0000
  Bi  Bi2       1.0  0.25000  0.25000  0.37600  1.0000
  Bi  Bi3       1.0  0.75000  0.75000  0.62400  1.0000
  Bi  Bi4       1.0  0.75000  0.75000  0.87600  1.0000
  Se  Se1       1.0  0.91200  0.08090  0.12500  1.0000
  Se  Se2       1.0  0.58800  0.41900  0.12500  1.0000
  Se  Se3       1.0  0.08090  0.58800  0.12500  1.0000
  Se  Se4       1.0  0.41900  0.91200  0.12500  1.0000
  Se  Se5       1.0  0.58800  0.08090  0.37500  1.0000
  Se  Se6       1.0  0.91200  0.41900  0.37500  1.0000
  Se  Se7       1.0  0.41900  0.58800  0.37500  1.0000
  Se  Se8       1.0  0.08090  0.91200  0.37500  1.0000
  Se  Se9       1.0  0.91900  0.08830  0.62500  1.0000
  Se  Se10      1.0  0.58100  0.41200  0.62500  1.0000
  Se  Se11      1.0  0.08830  0.58100  0.62500  1.0000
  Se  Se12      1.0  0.41200  0.91900  0.62500  1.0000
  Se  Se13      1.0  0.58100  0.08830  0.87500  1.0000
  Se  Se14      1.0  0.91900  0.41200  0.87500  1.0000
  Se  Se15      1.0  0.41200  0.58100  0.87500  1.0000
  Se  Se16      1.0  0.08830  0.91900  0.87500  1.0000
