data_image0
_chemical_formula_structural       B2O18Sm6W2
_chemical_formula_sum              "B2 O18 Sm6 W2"
_cell_length_a       8.59445
_cell_length_b       8.59445
_cell_length_c       5.43723
_cell_angle_alpha    90
_cell_angle_beta     90
_cell_angle_gamma    120

_space_group_name_H-M_alt    "P 1"
_space_group_IT_number       1

loop_
  _space_group_symop_operation_xyz
  'x, y, z'

loop_
  _atom_site_type_symbol
  _atom_site_label
  _atom_site_symmetry_multiplicity
  _atom_site_fract_x
  _atom_site_fract_y
  _atom_site_fract_z
  _atom_site_occupancy
  B   B1        1.0  0.00000  0.00000  0.36300  1.0000
  B   B2        1.0  0.00000  0.00000  0.86300  1.0000
  O   O1        1.0  0.19900  0.46700  0.04420  1.0000
  O   O2        1.0  0.53300  0.73100  0.04420  1.0000
  O   O3        1.0  0.26900  0.80100  0.04420  1.0000
  O   O4        1.0  0.13000  0.17900  0.35400  1.0000
  O   O5        1.0  0.04870  0.87000  0.35400  1.0000
  O   O6        1.0  0.82100  0.95100  0.35400  1.0000
  O   O7        1.0  0.13500  0.51400  0.48200  1.0000
  O   O8        1.0  0.48600  0.62000  0.48200  1.0000
  O   O9        1.0  0.38000  0.86500  0.48200  1.0000
  O   O10       1.0  0.73100  0.19900  0.54400  1.0000
  O   O11       1.0  0.46700  0.26900  0.54400  1.0000
  O   O12       1.0  0.80100  0.53300  0.54400  1.0000
  O   O13       1.0  0.17900  0.04870  0.85400  1.0000
  O   O14       1.0  0.95100  0.13000  0.85400  1.0000
  O   O15       1.0  0.87000  0.82100  0.85400  1.0000
  O   O16       1.0  0.62000  0.13500  0.98200  1.0000
  O   O17       1.0  0.51400  0.38000  0.98200  1.0000
  O   O18       1.0  0.86500  0.48600  0.98200  1.0000
  Sm  Sm1       1.0  0.35800  0.08460  0.20700  1.0000
  Sm  Sm2       1.0  0.91500  0.27300  0.20700  1.0000
  Sm  Sm3       1.0  0.72700  0.64200  0.20700  1.0000
  Sm  Sm4       1.0  0.27300  0.35800  0.70700  1.0000
  Sm  Sm5       1.0  0.08460  0.72700  0.70700  1.0000
  Sm  Sm6       1.0  0.64200  0.91500  0.70700  1.0000
  W   W1        1.0  0.33300  0.66700  0.25100  1.0000
  W   W2        1.0  0.66700  0.33300  0.75100  1.0000
