data_image0
_chemical_formula_structural       Ca2K2O18P6
_chemical_formula_sum              "Ca2 K2 O18 P6"
_cell_length_a       6.7525
_cell_length_b       6.75248
_cell_length_c       10.2849
_cell_angle_alpha    90
_cell_angle_beta     90
_cell_angle_gamma    120

_space_group_name_H-M_alt    "P 1"
_space_group_IT_number       1

loop_
  _space_group_symop_operation_xyz
  'x, y, z'

loop_
  _atom_site_type_symbol
  _atom_site_label
  _atom_site_symmetry_multiplicity
  _atom_site_fract_x
  _atom_site_fract_y
  _atom_site_fract_z
  _atom_site_occupancy
  Ca  Ca1       1.0  0.33300  0.66700  0.00000  1.0000
  Ca  Ca2       1.0  0.33300  0.66700  0.50000  1.0000
  K   K1        1.0  0.66700  0.33300  0.00000  1.0000
  K   K2        1.0  0.66700  0.33300  0.50000  1.0000
  O   O1        1.0  0.04480  0.38900  0.12500  1.0000
  O   O2        1.0  0.61100  0.65600  0.12500  1.0000
  O   O3        1.0  0.34400  0.95500  0.12500  1.0000
  O   O4        1.0  0.80000  0.02820  0.25000  1.0000
  O   O5        1.0  0.22900  0.20000  0.25000  1.0000
  O   O6        1.0  0.97200  0.77100  0.25000  1.0000
  O   O7        1.0  0.04480  0.38900  0.37500  1.0000
  O   O8        1.0  0.61100  0.65600  0.37500  1.0000
  O   O9        1.0  0.34400  0.95500  0.37500  1.0000
  O   O10       1.0  0.34400  0.38900  0.62500  1.0000
  O   O11       1.0  0.04480  0.65600  0.62500  1.0000
  O   O12       1.0  0.61100  0.95500  0.62500  1.0000
  O   O13       1.0  0.22900  0.02820  0.75000  1.0000
  O   O14       1.0  0.97200  0.20000  0.75000  1.0000
  O   O15       1.0  0.80000  0.77100  0.75000  1.0000
  O   O16       1.0  0.34400  0.38900  0.87500  1.0000
  O   O17       1.0  0.04480  0.65600  0.87500  1.0000
  O   O18       1.0  0.61100  0.95500  0.87500  1.0000
  P   P1        1.0  0.03310  0.27000  0.25000  1.0000
  P   P2        1.0  0.73000  0.76300  0.25000  1.0000
  P   P3        1.0  0.23700  0.96700  0.25000  1.0000
  P   P4        1.0  0.23700  0.27000  0.75000  1.0000
  P   P5        1.0  0.03310  0.76300  0.75000  1.0000
  P   P6        1.0  0.73000  0.96700  0.75000  1.0000
