data_image0
_chemical_formula_structural       Ag4Cd4O16V4
_chemical_formula_sum              "Ag4 Cd4 O16 V4"
_cell_length_a       9.84951
_cell_length_b       6.99344
_cell_length_c       5.45413
_cell_angle_alpha    90
_cell_angle_beta     90
_cell_angle_gamma    90

_space_group_name_H-M_alt    "P 1"
_space_group_IT_number       1

loop_
  _space_group_symop_operation_xyz
  'x, y, z'

loop_
  _atom_site_type_symbol
  _atom_site_label
  _atom_site_symmetry_multiplicity
  _atom_site_fract_x
  _atom_site_fract_y
  _atom_site_fract_z
  _atom_site_occupancy
  Ag  Ag1       1.0  0.35000  0.25000  0.00514  1.0000
  Ag  Ag2       1.0  0.85000  0.25000  0.49500  1.0000
  Ag  Ag3       1.0  0.15000  0.75000  0.50500  1.0000
  Ag  Ag4       1.0  0.65000  0.75000  0.99500  1.0000
  Cd  Cd1       1.0  0.00000  0.00000  0.00000  1.0000
  Cd  Cd2       1.0  0.00000  0.50000  0.00000  1.0000
  Cd  Cd3       1.0  0.50000  0.00000  0.50000  1.0000
  Cd  Cd4       1.0  0.50000  0.50000  0.50000  1.0000
  O   O1        1.0  0.85800  0.25000  0.06080  1.0000
  O   O2        1.0  0.61700  0.05080  0.15300  1.0000
  O   O3        1.0  0.61700  0.44900  0.15300  1.0000
  O   O4        1.0  0.87500  0.75000  0.19900  1.0000
  O   O5        1.0  0.37500  0.75000  0.30100  1.0000
  O   O6        1.0  0.11700  0.05080  0.34700  1.0000
  O   O7        1.0  0.11700  0.44900  0.34700  1.0000
  O   O8        1.0  0.35800  0.25000  0.43900  1.0000
  O   O9        1.0  0.64200  0.75000  0.56100  1.0000
  O   O10       1.0  0.88300  0.55100  0.65300  1.0000
  O   O11       1.0  0.88300  0.94900  0.65300  1.0000
  O   O12       1.0  0.62500  0.25000  0.69900  1.0000
  O   O13       1.0  0.12500  0.25000  0.80100  1.0000
  O   O14       1.0  0.38300  0.55100  0.84700  1.0000
  O   O15       1.0  0.38300  0.94900  0.84700  1.0000
  O   O16       1.0  0.14200  0.75000  0.93900  1.0000
  V   V1        1.0  0.67900  0.25000  0.00777  1.0000
  V   V2        1.0  0.17900  0.25000  0.49200  1.0000
  V   V3        1.0  0.82100  0.75000  0.50800  1.0000
  V   V4        1.0  0.32100  0.75000  0.99200  1.0000
