data_image0
_chemical_formula_structural       Br18Nb6Tl4
_chemical_formula_sum              "Br18 Nb6 Tl4"
_cell_length_a       9.98529
_cell_length_b       9.98529
_cell_length_c       10.1878
_cell_angle_alpha    105.045
_cell_angle_beta     105.045
_cell_angle_gamma    111.545

_space_group_name_H-M_alt    "P 1"
_space_group_IT_number       1

loop_
  _space_group_symop_operation_xyz
  'x, y, z'

loop_
  _atom_site_type_symbol
  _atom_site_label
  _atom_site_symmetry_multiplicity
  _atom_site_fract_x
  _atom_site_fract_y
  _atom_site_fract_z
  _atom_site_occupancy
  Br  Br1       1.0  0.78000  0.22000  0.00000  1.0000
  Br  Br2       1.0  0.22000  0.78000  0.00000  1.0000
  Br  Br3       1.0  0.39500  0.17300  0.01170  1.0000
  Br  Br4       1.0  0.17300  0.39500  0.01170  1.0000
  Br  Br5       1.0  0.75500  0.75500  0.29600  1.0000
  Br  Br6       1.0  0.92300  0.14300  0.32400  1.0000
  Br  Br7       1.0  0.14300  0.92300  0.32400  1.0000
  Br  Br8       1.0  0.51800  0.09300  0.32500  1.0000
  Br  Br9       1.0  0.09300  0.51800  0.32500  1.0000
  Br  Br10      1.0  0.32200  0.32200  0.33800  1.0000
  Br  Br11      1.0  0.67800  0.67800  0.66200  1.0000
  Br  Br12      1.0  0.90700  0.48200  0.67500  1.0000
  Br  Br13      1.0  0.48200  0.90700  0.67500  1.0000
  Br  Br14      1.0  0.85700  0.07700  0.67600  1.0000
  Br  Br15      1.0  0.07700  0.85700  0.67600  1.0000
  Br  Br16      1.0  0.24500  0.24500  0.70400  1.0000
  Br  Br17      1.0  0.82700  0.60500  0.98800  1.0000
  Br  Br18      1.0  0.60500  0.82700  0.98800  1.0000
  Nb  Nb1       1.0  0.89600  0.89600  0.12800  1.0000
  Nb  Nb2       1.0  0.21900  0.03990  0.13800  1.0000
  Nb  Nb3       1.0  0.03990  0.21900  0.13800  1.0000
  Nb  Nb4       1.0  0.96000  0.78100  0.86200  1.0000
  Nb  Nb5       1.0  0.78100  0.96000  0.86200  1.0000
  Nb  Nb6       1.0  0.10400  0.10400  0.87200  1.0000
  Tl  Tl1       1.0  0.75600  0.44700  0.33700  1.0000
  Tl  Tl2       1.0  0.44700  0.75600  0.33700  1.0000
  Tl  Tl3       1.0  0.55300  0.24400  0.66300  1.0000
  Tl  Tl4       1.0  0.24400  0.55300  0.66300  1.0000
