data_image0
_chemical_formula_structural       Mn8Na8O12
_chemical_formula_sum              "Mn8 Na8 O12"
_cell_length_a       6.39703
_cell_length_b       6.39703
_cell_length_c       9.45913
_cell_angle_alpha    90
_cell_angle_beta     90
_cell_angle_gamma    90

_space_group_name_H-M_alt    "P 1"
_space_group_IT_number       1

loop_
  _space_group_symop_operation_xyz
  'x, y, z'

loop_
  _atom_site_type_symbol
  _atom_site_label
  _atom_site_symmetry_multiplicity
  _atom_site_fract_x
  _atom_site_fract_y
  _atom_site_fract_z
  _atom_site_occupancy
  Mn  Mn1       1.0  0.75600  0.53900  0.11600  1.0000
  Mn  Mn2       1.0  0.25600  0.96100  0.13400  1.0000
  Mn  Mn3       1.0  0.03920  0.74400  0.36600  1.0000
  Mn  Mn4       1.0  0.46100  0.24400  0.38400  1.0000
  Mn  Mn5       1.0  0.24400  0.46100  0.61600  1.0000
  Mn  Mn6       1.0  0.74400  0.03920  0.63400  1.0000
  Mn  Mn7       1.0  0.96100  0.25600  0.86600  1.0000
  Mn  Mn8       1.0  0.53900  0.75600  0.88400  1.0000
  Na  Na1       1.0  0.76100  0.02060  0.11100  1.0000
  Na  Na2       1.0  0.26100  0.47900  0.13900  1.0000
  Na  Na3       1.0  0.52100  0.73900  0.36100  1.0000
  Na  Na4       1.0  0.97900  0.23900  0.38900  1.0000
  Na  Na5       1.0  0.23900  0.97900  0.61100  1.0000
  Na  Na6       1.0  0.73900  0.52100  0.63900  1.0000
  Na  Na7       1.0  0.47900  0.26100  0.86100  1.0000
  Na  Na8       1.0  0.02060  0.76100  0.88900  1.0000
  O   O1        1.0  0.19500  0.19500  0.00000  1.0000
  O   O2        1.0  0.50200  0.75400  0.10600  1.0000
  O   O3        1.0  0.00194  0.74600  0.14400  1.0000
  O   O4        1.0  0.69500  0.30500  0.25000  1.0000
  O   O5        1.0  0.25400  0.99800  0.35600  1.0000
  O   O6        1.0  0.24600  0.49800  0.39400  1.0000
  O   O7        1.0  0.80500  0.80500  0.50000  1.0000
  O   O8        1.0  0.49800  0.24600  0.60600  1.0000
  O   O9        1.0  0.99800  0.25400  0.64400  1.0000
  O   O10       1.0  0.30500  0.69500  0.75000  1.0000
  O   O11       1.0  0.74600  0.00194  0.85600  1.0000
  O   O12       1.0  0.75400  0.50200  0.89400  1.0000
