data_image0
_chemical_formula_structural       B2C8Na2O16
_chemical_formula_sum              "B2 C8 Na2 O16"
_cell_length_a       6.43941
_cell_length_b       6.43941
_cell_length_c       7.52723
_cell_angle_alpha    90
_cell_angle_beta     90
_cell_angle_gamma    106.46

_space_group_name_H-M_alt    "P 1"
_space_group_IT_number       1

loop_
  _space_group_symop_operation_xyz
  'x, y, z'

loop_
  _atom_site_type_symbol
  _atom_site_label
  _atom_site_symmetry_multiplicity
  _atom_site_fract_x
  _atom_site_fract_y
  _atom_site_fract_z
  _atom_site_occupancy
  B   B1        1.0  0.43000  0.57000  0.25000  1.0000
  B   B2        1.0  0.57000  0.43000  0.75000  1.0000
  C   C1        1.0  0.22200  0.77800  0.14900  1.0000
  C   C2        1.0  0.54100  0.26200  0.25000  1.0000
  C   C3        1.0  0.73800  0.45900  0.25000  1.0000
  C   C4        1.0  0.22200  0.77800  0.35100  1.0000
  C   C5        1.0  0.77800  0.22200  0.64900  1.0000
  C   C6        1.0  0.26200  0.54100  0.75000  1.0000
  C   C7        1.0  0.45900  0.73800  0.75000  1.0000
  C   C8        1.0  0.77800  0.22200  0.85100  1.0000
  Na  Na1       1.0  0.93200  0.06780  0.25000  1.0000
  Na  Na2       1.0  0.06780  0.93200  0.75000  1.0000
  O   O1        1.0  0.12500  0.87500  0.05680  1.0000
  O   O2        1.0  0.34500  0.65500  0.09360  1.0000
  O   O3        1.0  0.55200  0.07630  0.25000  1.0000
  O   O4        1.0  0.36300  0.32800  0.25000  1.0000
  O   O5        1.0  0.92400  0.44800  0.25000  1.0000
  O   O6        1.0  0.67200  0.63700  0.25000  1.0000
  O   O7        1.0  0.34500  0.65500  0.40600  1.0000
  O   O8        1.0  0.12500  0.87500  0.44300  1.0000
  O   O9        1.0  0.87500  0.12500  0.55700  1.0000
  O   O10       1.0  0.65500  0.34500  0.59400  1.0000
  O   O11       1.0  0.32800  0.36300  0.75000  1.0000
  O   O12       1.0  0.07630  0.55200  0.75000  1.0000
  O   O13       1.0  0.63700  0.67200  0.75000  1.0000
  O   O14       1.0  0.44800  0.92400  0.75000  1.0000
  O   O15       1.0  0.65500  0.34500  0.90600  1.0000
  O   O16       1.0  0.87500  0.12500  0.94300  1.0000
