data_image0
_chemical_formula_structural       Ga4K12Se12
_chemical_formula_sum              "Ga4 K12 Se12"
_cell_length_a       8.13999
_cell_length_b       13.1272
_cell_length_c       10.6129
_cell_angle_alpha    90
_cell_angle_beta     127.664
_cell_angle_gamma    90

_space_group_name_H-M_alt    "P 1"
_space_group_IT_number       1

loop_
  _space_group_symop_operation_xyz
  'x, y, z'

loop_
  _atom_site_type_symbol
  _atom_site_label
  _atom_site_symmetry_multiplicity
  _atom_site_fract_x
  _atom_site_fract_y
  _atom_site_fract_z
  _atom_site_occupancy
  Ga  Ga1       1.0  0.06700  0.06140  0.16500  1.0000
  Ga  Ga2       1.0  0.93300  0.56100  0.33500  1.0000
  Ga  Ga3       1.0  0.06700  0.43900  0.66500  1.0000
  Ga  Ga4       1.0  0.93300  0.93900  0.83500  1.0000
  K   K1        1.0  0.37500  0.12200  0.02580  1.0000
  K   K2        1.0  0.86900  0.31000  0.08390  1.0000
  K   K3        1.0  0.33900  0.40900  0.10400  1.0000
  K   K4        1.0  0.66100  0.90900  0.39600  1.0000
  K   K5        1.0  0.13100  0.81000  0.41600  1.0000
  K   K6        1.0  0.62500  0.62200  0.47400  1.0000
  K   K7        1.0  0.37500  0.37800  0.52600  1.0000
  K   K8        1.0  0.86900  0.19000  0.58400  1.0000
  K   K9        1.0  0.33900  0.09120  0.60400  1.0000
  K   K10       1.0  0.66100  0.59100  0.89600  1.0000
  K   K11       1.0  0.13100  0.69000  0.91600  1.0000
  K   K12       1.0  0.62500  0.87800  0.97400  1.0000
  Se  Se1       1.0  0.16000  0.89100  0.12500  1.0000
  Se  Se2       1.0  0.64800  0.68100  0.18700  1.0000
  Se  Se3       1.0  0.12800  0.54800  0.23400  1.0000
  Se  Se4       1.0  0.87200  0.04820  0.26600  1.0000
  Se  Se5       1.0  0.35200  0.18100  0.31300  1.0000
  Se  Se6       1.0  0.84000  0.39100  0.37500  1.0000
  Se  Se7       1.0  0.16000  0.60900  0.62500  1.0000
  Se  Se8       1.0  0.64800  0.81900  0.68700  1.0000
  Se  Se9       1.0  0.12800  0.95200  0.73400  1.0000
  Se  Se10      1.0  0.87200  0.45200  0.76600  1.0000
  Se  Se11      1.0  0.35200  0.31900  0.81300  1.0000
  Se  Se12      1.0  0.84000  0.10900  0.87500  1.0000
