data_image0
_chemical_formula_structural       Al4K12Te12
_chemical_formula_sum              "Al4 K12 Te12"
_cell_length_a       8.72641
_cell_length_b       13.9255
_cell_length_c       11.3624
_cell_angle_alpha    90
_cell_angle_beta     127.664
_cell_angle_gamma    90

_space_group_name_H-M_alt    "P 1"
_space_group_IT_number       1

loop_
  _space_group_symop_operation_xyz
  'x, y, z'

loop_
  _atom_site_type_symbol
  _atom_site_label
  _atom_site_symmetry_multiplicity
  _atom_site_fract_x
  _atom_site_fract_y
  _atom_site_fract_z
  _atom_site_occupancy
  Al  Al1       1.0  0.06480  0.06230  0.16200  1.0000
  Al  Al2       1.0  0.93500  0.56200  0.33800  1.0000
  Al  Al3       1.0  0.06480  0.43800  0.66200  1.0000
  Al  Al4       1.0  0.93500  0.93800  0.83800  1.0000
  K   K1        1.0  0.37000  0.11900  0.02430  1.0000
  K   K2        1.0  0.87700  0.31200  0.08790  1.0000
  K   K3        1.0  0.33700  0.40800  0.10200  1.0000
  K   K4        1.0  0.66300  0.90800  0.39800  1.0000
  K   K5        1.0  0.12300  0.81200  0.41200  1.0000
  K   K6        1.0  0.63000  0.61900  0.47600  1.0000
  K   K7        1.0  0.37000  0.38100  0.52400  1.0000
  K   K8        1.0  0.87700  0.18800  0.58800  1.0000
  K   K9        1.0  0.33700  0.09220  0.60200  1.0000
  K   K10       1.0  0.66300  0.59200  0.89800  1.0000
  K   K11       1.0  0.12300  0.68800  0.91200  1.0000
  K   K12       1.0  0.63000  0.88100  0.97600  1.0000
  Te  Te1       1.0  0.16400  0.88800  0.12900  1.0000
  Te  Te2       1.0  0.64500  0.68400  0.18600  1.0000
  Te  Te3       1.0  0.13000  0.55200  0.23300  1.0000
  Te  Te4       1.0  0.87000  0.05190  0.26700  1.0000
  Te  Te5       1.0  0.35500  0.18400  0.31400  1.0000
  Te  Te6       1.0  0.83600  0.38800  0.37100  1.0000
  Te  Te7       1.0  0.16400  0.61200  0.62900  1.0000
  Te  Te8       1.0  0.64500  0.81600  0.68600  1.0000
  Te  Te9       1.0  0.13000  0.94800  0.73300  1.0000
  Te  Te10      1.0  0.87000  0.44800  0.76700  1.0000
  Te  Te11      1.0  0.35500  0.31600  0.81400  1.0000
  Te  Te12      1.0  0.83600  0.11200  0.87100  1.0000
