data_image0
_chemical_formula_structural       Cl4Gd4O16S4
_chemical_formula_sum              "Cl4 Gd4 O16 S4"
_cell_length_a       9.36476
_cell_length_b       6.53559
_cell_length_c       6.75493
_cell_angle_alpha    90
_cell_angle_beta     104.967
_cell_angle_gamma    90

_space_group_name_H-M_alt    "P 1"
_space_group_IT_number       1

loop_
  _space_group_symop_operation_xyz
  'x, y, z'

loop_
  _atom_site_type_symbol
  _atom_site_label
  _atom_site_symmetry_multiplicity
  _atom_site_fract_x
  _atom_site_fract_y
  _atom_site_fract_z
  _atom_site_occupancy
  Cl  Cl1       1.0  0.97300  0.13900  0.19500  1.0000
  Cl  Cl2       1.0  0.02720  0.63900  0.30500  1.0000
  Cl  Cl3       1.0  0.97300  0.36100  0.69500  1.0000
  Cl  Cl4       1.0  0.02720  0.86100  0.80500  1.0000
  Gd  Gd1       1.0  0.23400  0.90200  0.17300  1.0000
  Gd  Gd2       1.0  0.76600  0.40200  0.32700  1.0000
  Gd  Gd3       1.0  0.23400  0.59800  0.67300  1.0000
  Gd  Gd4       1.0  0.76600  0.09810  0.82700  1.0000
  O   O1        1.0  0.27600  0.57300  0.03040  1.0000
  O   O2        1.0  0.65500  0.05970  0.11000  1.0000
  O   O3        1.0  0.28000  0.24400  0.19600  1.0000
  O   O4        1.0  0.50900  0.41200  0.20200  1.0000
  O   O5        1.0  0.49100  0.91200  0.29800  1.0000
  O   O6        1.0  0.72000  0.74400  0.30400  1.0000
  O   O7        1.0  0.34500  0.56000  0.39000  1.0000
  O   O8        1.0  0.72400  0.07280  0.47000  1.0000
  O   O9        1.0  0.27600  0.92700  0.53000  1.0000
  O   O10       1.0  0.65500  0.44000  0.61000  1.0000
  O   O11       1.0  0.28000  0.25600  0.69600  1.0000
  O   O12       1.0  0.50900  0.08850  0.70200  1.0000
  O   O13       1.0  0.49100  0.58800  0.79800  1.0000
  O   O14       1.0  0.72000  0.75600  0.80400  1.0000
  O   O15       1.0  0.34500  0.94000  0.89000  1.0000
  O   O16       1.0  0.72400  0.42700  0.97000  1.0000
  S   S1        1.0  0.35600  0.44000  0.20900  1.0000
  S   S2        1.0  0.64400  0.94000  0.29100  1.0000
  S   S3        1.0  0.35600  0.06000  0.70900  1.0000
  S   S4        1.0  0.64400  0.56000  0.79100  1.0000
