data_image0
_chemical_formula_structural       AsI3S24
_chemical_formula_sum              "As1 I3 S24"
_cell_length_a       4.5683
_cell_length_b       14.654
_cell_length_c       14.6542
_cell_angle_alpha    118.933
_cell_angle_beta     95.9637
_cell_angle_gamma    95.9642

_space_group_name_H-M_alt    "P 1"
_space_group_IT_number       1

loop_
  _space_group_symop_operation_xyz
  'x, y, z'

loop_
  _atom_site_type_symbol
  _atom_site_label
  _atom_site_symmetry_multiplicity
  _atom_site_fract_x
  _atom_site_fract_y
  _atom_site_fract_z
  _atom_site_occupancy
  As  As1       1.0  0.73500  0.00000  0.00000  1.0000
  I   I1        1.0  0.05080  0.15900  0.00000  1.0000
  I   I2        1.0  0.05080  0.00000  0.15900  1.0000
  I   I3        1.0  0.89200  0.84100  0.84100  1.0000
  S   S1        1.0  0.37000  0.39700  0.00000  1.0000
  S   S2        1.0  0.53700  0.72200  0.00000  1.0000
  S   S3        1.0  0.24500  0.51500  0.13200  1.0000
  S   S4        1.0  0.36500  0.74500  0.13300  1.0000
  S   S5        1.0  0.54400  0.65400  0.18800  1.0000
  S   S6        1.0  0.62000  0.38800  0.25500  1.0000
  S   S7        1.0  0.81400  0.27800  0.27800  1.0000
  S   S8        1.0  0.89100  0.53500  0.34600  1.0000
  S   S9        1.0  0.11300  0.86800  0.38300  1.0000
  S   S10       1.0  0.62000  0.25500  0.38800  1.0000
  S   S11       1.0  0.37000  0.00000  0.39700  1.0000
  S   S12       1.0  0.35600  0.81200  0.46500  1.0000
  S   S13       1.0  0.73000  0.61700  0.48500  1.0000
  S   S14       1.0  0.24500  0.13200  0.51500  1.0000
  S   S15       1.0  0.89100  0.34600  0.53500  1.0000
  S   S16       1.0  0.97300  0.60300  0.60300  1.0000
  S   S17       1.0  0.23200  0.86700  0.61200  1.0000
  S   S18       1.0  0.73000  0.48500  0.61700  1.0000
  S   S19       1.0  0.54400  0.18800  0.65400  1.0000
  S   S20       1.0  0.53700  0.00000  0.72200  1.0000
  S   S21       1.0  0.36500  0.13300  0.74500  1.0000
  S   S22       1.0  0.35600  0.46500  0.81200  1.0000
  S   S23       1.0  0.23200  0.61200  0.86700  1.0000
  S   S24       1.0  0.11300  0.38300  0.86800  1.0000
