data_image0
_chemical_formula_structural       Ba4P16Te8
_chemical_formula_sum              "Ba4 P16 Te8"
_cell_length_a       16.6376
_cell_length_b       6.52627
_cell_length_c       7.20093
_cell_angle_alpha    90
_cell_angle_beta     90
_cell_angle_gamma    90

_space_group_name_H-M_alt    "P 1"
_space_group_IT_number       1

loop_
  _space_group_symop_operation_xyz
  'x, y, z'

loop_
  _atom_site_type_symbol
  _atom_site_label
  _atom_site_symmetry_multiplicity
  _atom_site_fract_x
  _atom_site_fract_y
  _atom_site_fract_z
  _atom_site_occupancy
  Ba  Ba1       1.0  0.16200  0.25000  0.10100  1.0000
  Ba  Ba2       1.0  0.66200  0.25000  0.39900  1.0000
  Ba  Ba3       1.0  0.33800  0.75000  0.60100  1.0000
  Ba  Ba4       1.0  0.83800  0.75000  0.89900  1.0000
  P   P1        1.0  0.56500  0.00802  0.03620  1.0000
  P   P2        1.0  0.56500  0.49200  0.03620  1.0000
  P   P3        1.0  0.37800  0.25000  0.12000  1.0000
  P   P4        1.0  0.40400  0.75000  0.16900  1.0000
  P   P5        1.0  0.90400  0.75000  0.33100  1.0000
  P   P6        1.0  0.87800  0.25000  0.38000  1.0000
  P   P7        1.0  0.06530  0.00802  0.46400  1.0000
  P   P8        1.0  0.06530  0.49200  0.46400  1.0000
  P   P9        1.0  0.93500  0.50800  0.53600  1.0000
  P   P10       1.0  0.93500  0.99200  0.53600  1.0000
  P   P11       1.0  0.12200  0.75000  0.62000  1.0000
  P   P12       1.0  0.09590  0.25000  0.66900  1.0000
  P   P13       1.0  0.59600  0.25000  0.83100  1.0000
  P   P14       1.0  0.62200  0.75000  0.88000  1.0000
  P   P15       1.0  0.43500  0.50800  0.96400  1.0000
  P   P16       1.0  0.43500  0.99200  0.96400  1.0000
  Te  Te1       1.0  0.93600  0.25000  0.06090  1.0000
  Te  Te2       1.0  0.25300  0.75000  0.09310  1.0000
  Te  Te3       1.0  0.75300  0.75000  0.40700  1.0000
  Te  Te4       1.0  0.43600  0.25000  0.43900  1.0000
  Te  Te5       1.0  0.56400  0.75000  0.56100  1.0000
  Te  Te6       1.0  0.24700  0.25000  0.59300  1.0000
  Te  Te7       1.0  0.74700  0.25000  0.90700  1.0000
  Te  Te8       1.0  0.06350  0.75000  0.93900  1.0000
