data_image0
_chemical_formula_structural       Ce4Cs4Se16Si4
_chemical_formula_sum              "Ce4 Cs4 Se16 Si4"
_cell_length_a       6.81609
_cell_length_b       7.15999
_cell_length_c       18.8086
_cell_angle_alpha    90
_cell_angle_beta     90
_cell_angle_gamma    90

_space_group_name_H-M_alt    "P 1"
_space_group_IT_number       1

loop_
  _space_group_symop_operation_xyz
  'x, y, z'

loop_
  _atom_site_type_symbol
  _atom_site_label
  _atom_site_symmetry_multiplicity
  _atom_site_fract_x
  _atom_site_fract_y
  _atom_site_fract_z
  _atom_site_occupancy
  Ce  Ce1       1.0  0.29400  0.48200  0.22800  1.0000
  Ce  Ce2       1.0  0.70600  0.98200  0.27200  1.0000
  Ce  Ce3       1.0  0.20600  0.51800  0.72800  1.0000
  Ce  Ce4       1.0  0.79400  0.01780  0.77200  1.0000
  Cs  Cs1       1.0  0.00600  0.00727  0.03380  1.0000
  Cs  Cs2       1.0  0.99400  0.50700  0.46600  1.0000
  Cs  Cs3       1.0  0.49400  0.99300  0.53400  1.0000
  Cs  Cs4       1.0  0.50600  0.49300  0.96600  1.0000
  Se  Se1       1.0  0.05460  0.51200  0.09020  1.0000
  Se  Se2       1.0  0.56900  0.75100  0.14000  1.0000
  Se  Se3       1.0  0.60400  0.24700  0.14700  1.0000
  Se  Se4       1.0  0.12500  0.05850  0.22100  1.0000
  Se  Se5       1.0  0.87500  0.55800  0.27900  1.0000
  Se  Se6       1.0  0.39600  0.74700  0.35300  1.0000
  Se  Se7       1.0  0.43100  0.25100  0.36000  1.0000
  Se  Se8       1.0  0.94500  0.01210  0.41000  1.0000
  Se  Se9       1.0  0.44500  0.48800  0.59000  1.0000
  Se  Se10      1.0  0.93100  0.24900  0.64000  1.0000
  Se  Se11      1.0  0.89600  0.75300  0.64700  1.0000
  Se  Se12      1.0  0.37500  0.94200  0.72100  1.0000
  Se  Se13      1.0  0.62500  0.44200  0.77900  1.0000
  Se  Se14      1.0  0.10400  0.25300  0.85300  1.0000
  Se  Se15      1.0  0.06850  0.74900  0.86000  1.0000
  Se  Se16      1.0  0.55500  0.98800  0.91000  1.0000
  Si  Si1       1.0  0.78900  0.51400  0.16300  1.0000
  Si  Si2       1.0  0.21100  0.01390  0.33700  1.0000
  Si  Si3       1.0  0.71100  0.48600  0.66300  1.0000
  Si  Si4       1.0  0.28900  0.98600  0.83700  1.0000
