data_image0
_chemical_formula_structural       Ba4Sc8Te16
_chemical_formula_sum              "Ba4 Sc8 Te16"
_cell_length_a       13.3865
_cell_length_b       4.29901
_cell_length_c       15.6393
_cell_angle_alpha    90
_cell_angle_beta     90
_cell_angle_gamma    90

_space_group_name_H-M_alt    "P 1"
_space_group_IT_number       1

loop_
  _space_group_symop_operation_xyz
  'x, y, z'

loop_
  _atom_site_type_symbol
  _atom_site_label
  _atom_site_symmetry_multiplicity
  _atom_site_fract_x
  _atom_site_fract_y
  _atom_site_fract_z
  _atom_site_occupancy
  Ba  Ba1       1.0  0.26200  0.75000  0.17200  1.0000
  Ba  Ba2       1.0  0.76200  0.75000  0.32800  1.0000
  Ba  Ba3       1.0  0.23800  0.25000  0.67200  1.0000
  Ba  Ba4       1.0  0.73800  0.25000  0.82800  1.0000
  Sc  Sc1       1.0  0.58000  0.25000  0.09680  1.0000
  Sc  Sc2       1.0  0.94400  0.75000  0.11000  1.0000
  Sc  Sc3       1.0  0.44400  0.75000  0.39000  1.0000
  Sc  Sc4       1.0  0.08030  0.25000  0.40300  1.0000
  Sc  Sc5       1.0  0.92000  0.75000  0.59700  1.0000
  Sc  Sc6       1.0  0.55600  0.25000  0.61000  1.0000
  Sc  Sc7       1.0  0.05650  0.25000  0.89000  1.0000
  Sc  Sc8       1.0  0.42000  0.75000  0.90300  1.0000
  Te  Te1       1.0  0.37800  0.25000  0.02590  1.0000
  Te  Te2       1.0  0.08760  0.25000  0.07370  1.0000
  Te  Te3       1.0  0.79700  0.25000  0.15000  1.0000
  Te  Te4       1.0  0.52800  0.75000  0.21600  1.0000
  Te  Te5       1.0  0.02830  0.75000  0.28400  1.0000
  Te  Te6       1.0  0.29700  0.25000  0.35000  1.0000
  Te  Te7       1.0  0.58800  0.25000  0.42600  1.0000
  Te  Te8       1.0  0.87800  0.25000  0.47400  1.0000
  Te  Te9       1.0  0.12200  0.75000  0.52600  1.0000
  Te  Te10      1.0  0.41200  0.75000  0.57400  1.0000
  Te  Te11      1.0  0.70300  0.75000  0.65000  1.0000
  Te  Te12      1.0  0.97200  0.25000  0.71600  1.0000
  Te  Te13      1.0  0.47200  0.25000  0.78400  1.0000
  Te  Te14      1.0  0.20300  0.75000  0.85000  1.0000
  Te  Te15      1.0  0.91200  0.75000  0.92600  1.0000
  Te  Te16      1.0  0.62200  0.75000  0.97400  1.0000
