data_image0
_chemical_formula_structural       Nd6Pd12Sb10
_chemical_formula_sum              "Nd6 Pd12 Sb10"
_cell_length_a       13.5094
_cell_length_b       4.46542
_cell_length_c       10.1038
_cell_angle_alpha    90
_cell_angle_beta     90
_cell_angle_gamma    90

_space_group_name_H-M_alt    "P 1"
_space_group_IT_number       1

loop_
  _space_group_symop_operation_xyz
  'x, y, z'

loop_
  _atom_site_type_symbol
  _atom_site_label
  _atom_site_symmetry_multiplicity
  _atom_site_fract_x
  _atom_site_fract_y
  _atom_site_fract_z
  _atom_site_occupancy
  Nd  Nd1       1.0  0.75000  0.75000  0.24300  1.0000
  Nd  Nd2       1.0  0.07410  0.75000  0.24500  1.0000
  Nd  Nd3       1.0  0.42600  0.75000  0.24500  1.0000
  Nd  Nd4       1.0  0.57400  0.25000  0.75500  1.0000
  Nd  Nd5       1.0  0.92600  0.25000  0.75500  1.0000
  Nd  Nd6       1.0  0.25000  0.25000  0.75700  1.0000
  Pd  Pd1       1.0  0.09030  0.25000  0.00949  1.0000
  Pd  Pd2       1.0  0.41000  0.25000  0.00949  1.0000
  Pd  Pd3       1.0  0.25000  0.75000  0.01850  1.0000
  Pd  Pd4       1.0  0.56700  0.25000  0.39700  1.0000
  Pd  Pd5       1.0  0.93300  0.25000  0.39700  1.0000
  Pd  Pd6       1.0  0.25000  0.75000  0.47200  1.0000
  Pd  Pd7       1.0  0.75000  0.25000  0.52800  1.0000
  Pd  Pd8       1.0  0.06740  0.75000  0.60300  1.0000
  Pd  Pd9       1.0  0.43300  0.75000  0.60300  1.0000
  Pd  Pd10      1.0  0.75000  0.25000  0.98100  1.0000
  Pd  Pd11      1.0  0.59000  0.75000  0.99100  1.0000
  Pd  Pd12      1.0  0.91000  0.75000  0.99100  1.0000
  Sb  Sb1       1.0  0.58700  0.25000  0.13800  1.0000
  Sb  Sb2       1.0  0.91300  0.25000  0.13800  1.0000
  Sb  Sb3       1.0  0.25000  0.25000  0.17500  1.0000
  Sb  Sb4       1.0  0.12400  0.25000  0.47600  1.0000
  Sb  Sb5       1.0  0.37600  0.25000  0.47600  1.0000
  Sb  Sb6       1.0  0.62400  0.75000  0.52400  1.0000
  Sb  Sb7       1.0  0.87600  0.75000  0.52400  1.0000
  Sb  Sb8       1.0  0.75000  0.75000  0.82500  1.0000
  Sb  Sb9       1.0  0.08720  0.75000  0.86200  1.0000
  Sb  Sb10      1.0  0.41300  0.75000  0.86200  1.0000
