data_image0
_chemical_formula_structural       Br12La12Si4
_chemical_formula_sum              "Br12 La12 Si4"
_cell_length_a       10.6132
_cell_length_b       10.6132
_cell_length_c       10.6132
_cell_angle_alpha    109.471
_cell_angle_beta     109.471
_cell_angle_gamma    109.471

_space_group_name_H-M_alt    "P 1"
_space_group_IT_number       1

loop_
  _space_group_symop_operation_xyz
  'x, y, z'

loop_
  _atom_site_type_symbol
  _atom_site_label
  _atom_site_symmetry_multiplicity
  _atom_site_fract_x
  _atom_site_fract_y
  _atom_site_fract_z
  _atom_site_occupancy
  Br  Br1       1.0  0.75500  0.50900  0.00464  1.0000
  Br  Br2       1.0  0.25000  0.99500  0.00464  1.0000
  Br  Br3       1.0  0.50500  0.75500  0.00929  1.0000
  Br  Br4       1.0  0.99500  0.99100  0.24500  1.0000
  Br  Br5       1.0  0.25000  0.75500  0.24500  1.0000
  Br  Br6       1.0  0.50900  0.50500  0.25500  1.0000
  Br  Br7       1.0  0.74500  0.25000  0.25500  1.0000
  Br  Br8       1.0  0.74500  0.99500  0.49100  1.0000
  Br  Br9       1.0  0.99100  0.74500  0.49500  1.0000
  Br  Br10      1.0  0.50500  0.25000  0.49500  1.0000
  Br  Br11      1.0  0.75500  0.74500  0.75000  1.0000
  Br  Br12      1.0  0.99500  0.50500  0.75000  1.0000
  La  La1       1.0  0.24000  0.26000  0.25000  1.0000
  La  La2       1.0  0.00978  0.49000  0.25000  1.0000
  La  La3       1.0  0.01960  0.26000  0.51000  1.0000
  La  La4       1.0  0.49000  0.75000  0.51000  1.0000
  La  La5       1.0  0.26000  0.00978  0.52000  1.0000
  La  La6       1.0  0.26000  0.75000  0.74000  1.0000
  La  La7       1.0  0.48000  0.49000  0.74000  1.0000
  La  La8       1.0  0.75000  0.24000  0.76000  1.0000
  La  La9       1.0  0.00978  0.01960  0.76000  1.0000
  La  La10      1.0  0.49000  0.24000  0.98000  1.0000
  La  La11      1.0  0.75000  0.00978  0.99000  1.0000
  La  La12      1.0  0.24000  0.48000  0.99000  1.0000
  Si  Si1       1.0  0.00000  0.25000  0.00000  1.0000
  Si  Si2       1.0  0.25000  0.50000  0.50000  1.0000
  Si  Si3       1.0  0.50000  0.00000  0.75000  1.0000
  Si  Si4       1.0  0.25000  0.25000  0.75000  1.0000
