data_image0
_chemical_formula_structural       Br2S16Si4Sm6
_chemical_formula_sum              "Br2 S16 Si4 Sm6"
_cell_length_a       7.64289
_cell_length_b       8.71954
_cell_length_c       10.8566
_cell_angle_alpha    97.6307
_cell_angle_beta     90
_cell_angle_gamma    115.993

_space_group_name_H-M_alt    "P 1"
_space_group_IT_number       1

loop_
  _space_group_symop_operation_xyz
  'x, y, z'

loop_
  _atom_site_type_symbol
  _atom_site_label
  _atom_site_symmetry_multiplicity
  _atom_site_fract_x
  _atom_site_fract_y
  _atom_site_fract_z
  _atom_site_occupancy
  Br  Br1       1.0  0.00717  0.00000  0.25000  1.0000
  Br  Br2       1.0  0.99300  0.00000  0.75000  1.0000
  S   S1        1.0  0.40400  0.13200  0.04170  1.0000
  S   S2        1.0  0.71400  0.56800  0.08650  1.0000
  S   S3        1.0  0.89700  0.28800  0.14400  1.0000
  S   S4        1.0  0.25800  0.70600  0.16600  1.0000
  S   S5        1.0  0.55200  0.29400  0.33400  1.0000
  S   S6        1.0  0.60900  0.71200  0.35600  1.0000
  S   S7        1.0  0.14600  0.43200  0.41300  1.0000
  S   S8        1.0  0.27200  0.86800  0.45800  1.0000
  S   S9        1.0  0.72800  0.13200  0.54200  1.0000
  S   S10       1.0  0.85400  0.56800  0.58700  1.0000
  S   S11       1.0  0.39100  0.28800  0.64400  1.0000
  S   S12       1.0  0.44800  0.70600  0.66600  1.0000
  S   S13       1.0  0.74200  0.29400  0.83400  1.0000
  S   S14       1.0  0.10300  0.71200  0.85600  1.0000
  S   S15       1.0  0.28600  0.43200  0.91300  1.0000
  S   S16       1.0  0.59600  0.86800  0.95800  1.0000
  Si  Si1       1.0  0.69400  0.31700  0.02710  1.0000
  Si  Si2       1.0  0.37700  0.68300  0.47300  1.0000
  Si  Si3       1.0  0.62300  0.31700  0.52700  1.0000
  Si  Si4       1.0  0.30600  0.68300  0.97300  1.0000
  Sm  Sm1       1.0  0.32300  0.39800  0.18300  1.0000
  Sm  Sm2       1.0  0.61900  0.00000  0.25000  1.0000
  Sm  Sm3       1.0  0.92500  0.60200  0.31700  1.0000
  Sm  Sm4       1.0  0.07460  0.39800  0.68300  1.0000
  Sm  Sm5       1.0  0.38100  0.00000  0.75000  1.0000
  Sm  Sm6       1.0  0.67700  0.60200  0.81700  1.0000
