data_image0
_chemical_formula_structural       Co4Na4O16P4
_chemical_formula_sum              "Co4 Na4 O16 P4"
_cell_length_a       5.17815
_cell_length_b       9.90135
_cell_length_c       7.36068
_cell_angle_alpha    90
_cell_angle_beta     89.9307
_cell_angle_gamma    90

_space_group_name_H-M_alt    "P 1"
_space_group_IT_number       1

loop_
  _space_group_symop_operation_xyz
  'x, y, z'

loop_
  _atom_site_type_symbol
  _atom_site_label
  _atom_site_symmetry_multiplicity
  _atom_site_fract_x
  _atom_site_fract_y
  _atom_site_fract_z
  _atom_site_occupancy
  Co  Co1       1.0  0.70100  0.17100  0.00532  1.0000
  Co  Co2       1.0  0.79900  0.67100  0.49500  1.0000
  Co  Co3       1.0  0.20100  0.32900  0.50500  1.0000
  Co  Co4       1.0  0.29900  0.82900  0.99500  1.0000
  Na  Na1       1.0  0.21500  0.38500  0.01510  1.0000
  Na  Na2       1.0  0.28500  0.88500  0.48500  1.0000
  Na  Na3       1.0  0.71500  0.11500  0.51500  1.0000
  Na  Na4       1.0  0.78500  0.61500  0.98500  1.0000
  O   O1        1.0  0.66000  0.82700  0.07030  1.0000
  O   O2        1.0  0.78600  0.36000  0.08230  1.0000
  O   O3        1.0  0.09480  0.87100  0.20900  1.0000
  O   O4        1.0  0.75000  0.05660  0.21600  1.0000
  O   O5        1.0  0.75000  0.55700  0.28400  1.0000
  O   O6        1.0  0.40500  0.37100  0.29100  1.0000
  O   O7        1.0  0.71400  0.86000  0.41800  1.0000
  O   O8        1.0  0.84000  0.32700  0.43000  1.0000
  O   O9        1.0  0.16000  0.67300  0.57000  1.0000
  O   O10       1.0  0.28600  0.14000  0.58200  1.0000
  O   O11       1.0  0.59500  0.62900  0.70900  1.0000
  O   O12       1.0  0.25000  0.44300  0.71600  1.0000
  O   O13       1.0  0.25000  0.94300  0.78400  1.0000
  O   O14       1.0  0.90500  0.12900  0.79100  1.0000
  O   O15       1.0  0.21400  0.64000  0.91800  1.0000
  O   O16       1.0  0.34000  0.17300  0.93000  1.0000
  P   P1        1.0  0.80200  0.90300  0.22300  1.0000
  P   P2        1.0  0.69800  0.40300  0.27700  1.0000
  P   P3        1.0  0.30200  0.59700  0.72300  1.0000
  P   P4        1.0  0.19800  0.09670  0.77700  1.0000
