data_image0
_chemical_formula_structural       Ag6C2N6O12S2
_chemical_formula_sum              "Ag6 C2 N6 O12 S2"
_cell_length_a       6.35302
_cell_length_b       7.6594
_cell_length_c       7.93409
_cell_angle_alpha    103.771
_cell_angle_beta     93.7284
_cell_angle_gamma    90.1924

_space_group_name_H-M_alt    "P 1"
_space_group_IT_number       1

loop_
  _space_group_symop_operation_xyz
  'x, y, z'

loop_
  _atom_site_type_symbol
  _atom_site_label
  _atom_site_symmetry_multiplicity
  _atom_site_fract_x
  _atom_site_fract_y
  _atom_site_fract_z
  _atom_site_occupancy
  Ag  Ag1       1.0  0.45800  0.27100  0.13900  1.0000
  Ag  Ag2       1.0  0.97600  0.35400  0.17700  1.0000
  Ag  Ag3       1.0  0.50000  0.00000  0.50000  1.0000
  Ag  Ag4       1.0  0.00000  0.00000  0.50000  1.0000
  Ag  Ag5       1.0  0.02380  0.64600  0.82300  1.0000
  Ag  Ag6       1.0  0.54200  0.72900  0.86100  1.0000
  C   C1        1.0  0.27200  0.61300  0.43800  1.0000
  C   C2        1.0  0.72800  0.38700  0.56200  1.0000
  N   N1        1.0  0.17000  0.93700  0.13300  1.0000
  N   N2        1.0  0.68300  0.67700  0.21500  1.0000
  N   N3        1.0  0.26700  0.48800  0.31700  1.0000
  N   N4        1.0  0.73300  0.51200  0.68300  1.0000
  N   N5        1.0  0.31700  0.32300  0.78500  1.0000
  N   N6        1.0  0.83000  0.06300  0.86700  1.0000
  O   O1        1.0  0.76300  0.05050  0.01050  1.0000
  O   O2        1.0  0.72100  0.54400  0.08860  1.0000
  O   O3        1.0  0.06580  0.80100  0.14500  1.0000
  O   O4        1.0  0.56800  0.80100  0.18000  1.0000
  O   O5        1.0  0.20800  0.06790  0.26700  1.0000
  O   O6        1.0  0.75700  0.68400  0.36700  1.0000
  O   O7        1.0  0.24300  0.31600  0.63300  1.0000
  O   O8        1.0  0.79200  0.93200  0.73300  1.0000
  O   O9        1.0  0.43200  0.19900  0.82000  1.0000
  O   O10       1.0  0.93400  0.19900  0.85500  1.0000
  O   O11       1.0  0.27900  0.45600  0.91100  1.0000
  O   O12       1.0  0.23700  0.94900  0.99000  1.0000
  S   S1        1.0  0.73000  0.21500  0.39200  1.0000
  S   S2        1.0  0.27000  0.78500  0.60800  1.0000
