data_image0
_chemical_formula_structural       Sc8Sr4Te16
_chemical_formula_sum              "Sc8 Sr4 Te16"
_cell_length_a       13.2418
_cell_length_b       4.24869
_cell_length_c       15.4346
_cell_angle_alpha    90
_cell_angle_beta     90
_cell_angle_gamma    90

_space_group_name_H-M_alt    "P 1"
_space_group_IT_number       1

loop_
  _space_group_symop_operation_xyz
  'x, y, z'

loop_
  _atom_site_type_symbol
  _atom_site_label
  _atom_site_symmetry_multiplicity
  _atom_site_fract_x
  _atom_site_fract_y
  _atom_site_fract_z
  _atom_site_occupancy
  Sc  Sc1       1.0  0.58400  0.25000  0.09450  1.0000
  Sc  Sc2       1.0  0.94600  0.75000  0.11200  1.0000
  Sc  Sc3       1.0  0.44600  0.75000  0.38800  1.0000
  Sc  Sc4       1.0  0.08420  0.25000  0.40600  1.0000
  Sc  Sc5       1.0  0.91600  0.75000  0.59400  1.0000
  Sc  Sc6       1.0  0.55400  0.25000  0.61200  1.0000
  Sc  Sc7       1.0  0.05440  0.25000  0.88800  1.0000
  Sc  Sc8       1.0  0.41600  0.75000  0.90600  1.0000
  Sr  Sr1       1.0  0.26200  0.75000  0.17200  1.0000
  Sr  Sr2       1.0  0.76200  0.75000  0.32800  1.0000
  Sr  Sr3       1.0  0.23800  0.25000  0.67200  1.0000
  Sr  Sr4       1.0  0.73800  0.25000  0.82800  1.0000
  Te  Te1       1.0  0.37500  0.25000  0.03180  1.0000
  Te  Te2       1.0  0.09300  0.25000  0.07370  1.0000
  Te  Te3       1.0  0.79800  0.25000  0.15800  1.0000
  Te  Te4       1.0  0.53100  0.75000  0.21400  1.0000
  Te  Te5       1.0  0.03110  0.75000  0.28600  1.0000
  Te  Te6       1.0  0.29800  0.25000  0.34200  1.0000
  Te  Te7       1.0  0.59300  0.25000  0.42600  1.0000
  Te  Te8       1.0  0.87500  0.25000  0.46800  1.0000
  Te  Te9       1.0  0.12500  0.75000  0.53200  1.0000
  Te  Te10      1.0  0.40700  0.75000  0.57400  1.0000
  Te  Te11      1.0  0.70200  0.75000  0.65800  1.0000
  Te  Te12      1.0  0.96900  0.25000  0.71400  1.0000
  Te  Te13      1.0  0.46900  0.25000  0.78600  1.0000
  Te  Te14      1.0  0.20200  0.75000  0.84200  1.0000
  Te  Te15      1.0  0.90700  0.75000  0.92600  1.0000
  Te  Te16      1.0  0.62500  0.75000  0.96800  1.0000
