data_image0
_chemical_formula_structural       Ce4O18Si2Ti4
_chemical_formula_sum              "Ce4 O18 Si2 Ti4"
_cell_length_a       5.72818
_cell_length_b       7.601
_cell_length_c       8.98144
_cell_angle_alpha    109.859
_cell_angle_beta     108.596
_cell_angle_gamma    90

_space_group_name_H-M_alt    "P 1"
_space_group_IT_number       1

loop_
  _space_group_symop_operation_xyz
  'x, y, z'

loop_
  _atom_site_type_symbol
  _atom_site_label
  _atom_site_symmetry_multiplicity
  _atom_site_fract_x
  _atom_site_fract_y
  _atom_site_fract_z
  _atom_site_occupancy
  Ce  Ce1       1.0  0.10400  0.69500  0.20900  1.0000
  Ce  Ce2       1.0  0.21100  0.30100  0.42300  1.0000
  Ce  Ce3       1.0  0.78900  0.69900  0.57700  1.0000
  Ce  Ce4       1.0  0.89600  0.30500  0.79100  1.0000
  O   O1        1.0  0.27600  0.50000  0.00000  1.0000
  O   O2        1.0  0.72400  0.50000  0.00000  1.0000
  O   O3        1.0  0.02480  0.18400  0.04960  1.0000
  O   O4        1.0  0.52700  0.18600  0.05360  1.0000
  O   O5        1.0  0.37100  0.01360  0.23600  1.0000
  O   O6        1.0  0.86500  0.01360  0.23600  1.0000
  O   O7        1.0  0.65300  0.76200  0.30700  1.0000
  O   O8        1.0  0.41900  0.48300  0.32300  1.0000
  O   O9        1.0  0.90400  0.48300  0.32300  1.0000
  O   O10       1.0  0.24500  0.86500  0.48900  1.0000
  O   O11       1.0  0.75500  0.13500  0.51100  1.0000
  O   O12       1.0  0.09610  0.51700  0.67700  1.0000
  O   O13       1.0  0.58100  0.51700  0.67700  1.0000
  O   O14       1.0  0.34700  0.23800  0.69300  1.0000
  O   O15       1.0  0.13500  0.98600  0.76400  1.0000
  O   O16       1.0  0.62900  0.98600  0.76400  1.0000
  O   O17       1.0  0.47300  0.81400  0.94600  1.0000
  O   O18       1.0  0.97500  0.81600  0.95000  1.0000
  Si  Si1       1.0  0.66200  0.98100  0.32500  1.0000
  Si  Si2       1.0  0.33800  0.01900  0.67500  1.0000
  Ti  Ti1       1.0  0.24200  0.00000  0.00000  1.0000
  Ti  Ti2       1.0  0.75800  0.00000  0.00000  1.0000
  Ti  Ti3       1.0  0.58200  0.45300  0.16500  1.0000
  Ti  Ti4       1.0  0.41800  0.54700  0.83500  1.0000
