data_image0
_chemical_formula_structural       Nb4P2S20Tl2
_chemical_formula_sum              "Nb4 P2 S20 Tl2"
_cell_length_a       7.07113
_cell_length_b       7.54789
_cell_length_c       12.9667
_cell_angle_alpha    90
_cell_angle_beta     104.421
_cell_angle_gamma    90

_space_group_name_H-M_alt    "P 1"
_space_group_IT_number       1

loop_
  _space_group_symop_operation_xyz
  'x, y, z'

loop_
  _atom_site_type_symbol
  _atom_site_label
  _atom_site_symmetry_multiplicity
  _atom_site_fract_x
  _atom_site_fract_y
  _atom_site_fract_z
  _atom_site_occupancy
  Nb  Nb1       1.0  0.84200  0.44400  0.15900  1.0000
  Nb  Nb2       1.0  0.04660  0.56300  0.37000  1.0000
  Nb  Nb3       1.0  0.34200  0.55600  0.65900  1.0000
  Nb  Nb4       1.0  0.54700  0.43700  0.87000  1.0000
  P   P1        1.0  0.32100  0.90000  0.49100  1.0000
  P   P2        1.0  0.82100  0.10000  0.99100  1.0000
  S   S1        1.0  0.63800  0.66400  0.02360  1.0000
  S   S2        1.0  0.47700  0.45300  0.05500  1.0000
  S   S3        1.0  0.83800  0.09810  0.15200  1.0000
  S   S4        1.0  0.13400  0.64400  0.19600  1.0000
  S   S5        1.0  0.20100  0.39000  0.24800  1.0000
  S   S6        1.0  0.69900  0.63100  0.28200  1.0000
  S   S7        1.0  0.74300  0.37300  0.32600  1.0000
  S   S8        1.0  0.03360  0.89900  0.40200  1.0000
  S   S9        1.0  0.47700  0.08770  0.44300  1.0000
  S   S10       1.0  0.41200  0.64000  0.47200  1.0000
  S   S11       1.0  0.13800  0.33600  0.52400  1.0000
  S   S12       1.0  0.97700  0.54700  0.55500  1.0000
  S   S13       1.0  0.33800  0.90200  0.65200  1.0000
  S   S14       1.0  0.63400  0.35600  0.69600  1.0000
  S   S15       1.0  0.70100  0.61000  0.74800  1.0000
  S   S16       1.0  0.19900  0.36900  0.78200  1.0000
  S   S17       1.0  0.24300  0.62700  0.82600  1.0000
  S   S18       1.0  0.53400  0.10100  0.90200  1.0000
  S   S19       1.0  0.97700  0.91200  0.94300  1.0000
  S   S20       1.0  0.91200  0.36000  0.97200  1.0000
  Tl  Tl1       1.0  0.37000  0.00720  0.11000  1.0000
  Tl  Tl2       1.0  0.87000  0.99300  0.61000  1.0000
