data_image0
_chemical_formula_structural       Au12Ca12In4
_chemical_formula_sum              "Au12 Ca12 In4"
_cell_length_a       16.7119
_cell_length_b       4.6058
_cell_length_c       9.02277
_cell_angle_alpha    90
_cell_angle_beta     90
_cell_angle_gamma    90

_space_group_name_H-M_alt    "P 1"
_space_group_IT_number       1

loop_
  _space_group_symop_operation_xyz
  'x, y, z'

loop_
  _atom_site_type_symbol
  _atom_site_label
  _atom_site_symmetry_multiplicity
  _atom_site_fract_x
  _atom_site_fract_y
  _atom_site_fract_z
  _atom_site_occupancy
  Au  Au1       1.0  0.54800  0.25000  0.03300  1.0000
  Au  Au2       1.0  0.97000  0.25000  0.08620  1.0000
  Au  Au3       1.0  0.23800  0.75000  0.17400  1.0000
  Au  Au4       1.0  0.73800  0.75000  0.32600  1.0000
  Au  Au5       1.0  0.47000  0.25000  0.41400  1.0000
  Au  Au6       1.0  0.04770  0.25000  0.46700  1.0000
  Au  Au7       1.0  0.95200  0.75000  0.53300  1.0000
  Au  Au8       1.0  0.53000  0.75000  0.58600  1.0000
  Au  Au9       1.0  0.26200  0.25000  0.67400  1.0000
  Au  Au10      1.0  0.76200  0.25000  0.82600  1.0000
  Au  Au11      1.0  0.03020  0.75000  0.91400  1.0000
  Au  Au12      1.0  0.45200  0.75000  0.96700  1.0000
  Ca  Ca1       1.0  0.84500  0.75000  0.02550  1.0000
  Ca  Ca2       1.0  0.36600  0.25000  0.13100  1.0000
  Ca  Ca3       1.0  0.05550  0.75000  0.24900  1.0000
  Ca  Ca4       1.0  0.55500  0.75000  0.25100  1.0000
  Ca  Ca5       1.0  0.86600  0.25000  0.36900  1.0000
  Ca  Ca6       1.0  0.34500  0.75000  0.47500  1.0000
  Ca  Ca7       1.0  0.65500  0.25000  0.52500  1.0000
  Ca  Ca8       1.0  0.13400  0.75000  0.63100  1.0000
  Ca  Ca9       1.0  0.44500  0.25000  0.74900  1.0000
  Ca  Ca10      1.0  0.94500  0.25000  0.75100  1.0000
  Ca  Ca11      1.0  0.63400  0.75000  0.86900  1.0000
  Ca  Ca12      1.0  0.15500  0.25000  0.97500  1.0000
  In  In1       1.0  0.70700  0.25000  0.13600  1.0000
  In  In2       1.0  0.20700  0.25000  0.36400  1.0000
  In  In3       1.0  0.79300  0.75000  0.63600  1.0000
  In  In4       1.0  0.29300  0.75000  0.86400  1.0000
