data_image0
_chemical_formula_structural       Cu18Ge8Sr2
_chemical_formula_sum              "Cu18 Ge8 Sr2"
_cell_length_a       8.31914
_cell_length_b       8.31914
_cell_length_c       8.39037
_cell_angle_alpha    119.72
_cell_angle_beta     119.72
_cell_angle_gamma    90

_space_group_name_H-M_alt    "P 1"
_space_group_IT_number       1

loop_
  _space_group_symop_operation_xyz
  'x, y, z'

loop_
  _atom_site_type_symbol
  _atom_site_label
  _atom_site_symmetry_multiplicity
  _atom_site_fract_x
  _atom_site_fract_y
  _atom_site_fract_z
  _atom_site_occupancy
  Cu  Cu1       1.0  0.50000  0.00000  0.00000  1.0000
  Cu  Cu2       1.0  0.20300  0.06180  0.00000  1.0000
  Cu  Cu3       1.0  0.93800  0.20300  0.00000  1.0000
  Cu  Cu4       1.0  0.43800  0.29700  0.00000  1.0000
  Cu  Cu5       1.0  0.70300  0.43800  0.00000  1.0000
  Cu  Cu6       1.0  0.00000  0.50000  0.00000  1.0000
  Cu  Cu7       1.0  0.29700  0.56200  0.00000  1.0000
  Cu  Cu8       1.0  0.56200  0.70300  0.00000  1.0000
  Cu  Cu9       1.0  0.06180  0.79700  0.00000  1.0000
  Cu  Cu10      1.0  0.79700  0.93800  0.00000  1.0000
  Cu  Cu11      1.0  0.79700  0.06050  0.35700  1.0000
  Cu  Cu12      1.0  0.56000  0.29700  0.35700  1.0000
  Cu  Cu13      1.0  0.06050  0.56000  0.35700  1.0000
  Cu  Cu14      1.0  0.29700  0.79700  0.35700  1.0000
  Cu  Cu15      1.0  0.70300  0.20300  0.64300  1.0000
  Cu  Cu16      1.0  0.94000  0.44000  0.64300  1.0000
  Cu  Cu17      1.0  0.44000  0.70300  0.64300  1.0000
  Cu  Cu18      1.0  0.20300  0.94000  0.64300  1.0000
  Ge  Ge1       1.0  0.80000  0.30000  0.24200  1.0000
  Ge  Ge2       1.0  0.30000  0.44200  0.24200  1.0000
  Ge  Ge3       1.0  0.94200  0.80000  0.24200  1.0000
  Ge  Ge4       1.0  0.44200  0.94200  0.24200  1.0000
  Ge  Ge5       1.0  0.55800  0.05770  0.75800  1.0000
  Ge  Ge6       1.0  0.05770  0.20000  0.75800  1.0000
  Ge  Ge7       1.0  0.70000  0.55800  0.75800  1.0000
  Ge  Ge8       1.0  0.20000  0.70000  0.75800  1.0000
  Sr  Sr1       1.0  0.25000  0.25000  0.50000  1.0000
  Sr  Sr2       1.0  0.75000  0.75000  0.50000  1.0000
