data_image0
_chemical_formula_structural       Ba4N8O8Si8
_chemical_formula_sum              "Ba4 N8 O8 Si8"
_cell_length_a       14.4066
_cell_length_b       5.31645
_cell_length_c       4.84311
_cell_angle_alpha    90
_cell_angle_beta     90
_cell_angle_gamma    90

_space_group_name_H-M_alt    "P 1"
_space_group_IT_number       1

loop_
  _space_group_symop_operation_xyz
  'x, y, z'

loop_
  _atom_site_type_symbol
  _atom_site_label
  _atom_site_symmetry_multiplicity
  _atom_site_fract_x
  _atom_site_fract_y
  _atom_site_fract_z
  _atom_site_occupancy
  Ba  Ba1       1.0  0.00000  0.24300  0.25000  1.0000
  Ba  Ba2       1.0  0.50000  0.74300  0.25000  1.0000
  Ba  Ba3       1.0  0.50000  0.25700  0.75000  1.0000
  Ba  Ba4       1.0  0.00000  0.75700  0.75000  1.0000
  N   N1        1.0  0.21900  0.36700  0.15500  1.0000
  N   N2        1.0  0.28100  0.86700  0.15500  1.0000
  N   N3        1.0  0.78100  0.36700  0.34500  1.0000
  N   N4        1.0  0.71900  0.86700  0.34500  1.0000
  N   N5        1.0  0.28100  0.13300  0.65500  1.0000
  N   N6        1.0  0.21900  0.63300  0.65500  1.0000
  N   N7        1.0  0.71900  0.13300  0.84500  1.0000
  N   N8        1.0  0.78100  0.63300  0.84500  1.0000
  O   O1        1.0  0.40800  0.24400  0.24400  1.0000
  O   O2        1.0  0.09250  0.74400  0.24400  1.0000
  O   O3        1.0  0.59200  0.24400  0.25600  1.0000
  O   O4        1.0  0.90800  0.74400  0.25600  1.0000
  O   O5        1.0  0.09250  0.25600  0.74400  1.0000
  O   O6        1.0  0.40800  0.75600  0.74400  1.0000
  O   O7        1.0  0.90800  0.25600  0.75600  1.0000
  O   O8        1.0  0.59200  0.75600  0.75600  1.0000
  Si  Si1       1.0  0.69900  0.16300  0.20000  1.0000
  Si  Si2       1.0  0.80100  0.66300  0.20000  1.0000
  Si  Si3       1.0  0.30100  0.16300  0.30000  1.0000
  Si  Si4       1.0  0.19900  0.66300  0.30000  1.0000
  Si  Si5       1.0  0.80100  0.33700  0.70000  1.0000
  Si  Si6       1.0  0.69900  0.83700  0.70000  1.0000
  Si  Si7       1.0  0.19900  0.33700  0.80000  1.0000
  Si  Si8       1.0  0.30100  0.83700  0.80000  1.0000
