data_image0
_chemical_formula_structural       Br2La6S16Si4
_chemical_formula_sum              "Br2 La6 S16 Si4"
_cell_length_a       7.87125
_cell_length_b       8.86562
_cell_length_c       11.0214
_cell_angle_alpha    96.6238
_cell_angle_beta     90
_cell_angle_gamma    116.354

_space_group_name_H-M_alt    "P 1"
_space_group_IT_number       1

loop_
  _space_group_symop_operation_xyz
  'x, y, z'

loop_
  _atom_site_type_symbol
  _atom_site_label
  _atom_site_symmetry_multiplicity
  _atom_site_fract_x
  _atom_site_fract_y
  _atom_site_fract_z
  _atom_site_occupancy
  Br  Br1       1.0  0.00544  0.00000  0.25000  1.0000
  Br  Br2       1.0  0.99500  0.00000  0.75000  1.0000
  La  La1       1.0  0.31500  0.38900  0.18300  1.0000
  La  La2       1.0  0.60700  0.00000  0.25000  1.0000
  La  La3       1.0  0.92500  0.61100  0.31700  1.0000
  La  La4       1.0  0.07460  0.38900  0.68300  1.0000
  La  La5       1.0  0.39300  0.00000  0.75000  1.0000
  La  La6       1.0  0.68500  0.61100  0.81700  1.0000
  S   S1        1.0  0.41300  0.13300  0.04790  1.0000
  S   S2        1.0  0.71100  0.56600  0.08490  1.0000
  S   S3        1.0  0.89100  0.29200  0.14500  1.0000
  S   S4        1.0  0.25600  0.70200  0.15900  1.0000
  S   S5        1.0  0.55400  0.29800  0.34100  1.0000
  S   S6        1.0  0.59900  0.70800  0.35500  1.0000
  S   S7        1.0  0.14500  0.43400  0.41500  1.0000
  S   S8        1.0  0.28000  0.86700  0.45200  1.0000
  S   S9        1.0  0.72000  0.13300  0.54800  1.0000
  S   S10       1.0  0.85500  0.56600  0.58500  1.0000
  S   S11       1.0  0.40100  0.29200  0.64500  1.0000
  S   S12       1.0  0.44600  0.70200  0.65900  1.0000
  S   S13       1.0  0.74400  0.29800  0.84100  1.0000
  S   S14       1.0  0.10900  0.70800  0.85500  1.0000
  S   S15       1.0  0.28900  0.43400  0.91500  1.0000
  S   S16       1.0  0.58700  0.86700  0.95200  1.0000
  Si  Si1       1.0  0.69400  0.32000  0.03020  1.0000
  Si  Si2       1.0  0.37400  0.68000  0.47000  1.0000
  Si  Si3       1.0  0.62600  0.32000  0.53000  1.0000
  Si  Si4       1.0  0.30600  0.68000  0.97000  1.0000
