data_image0
_chemical_formula_structural       Hg12I8S8
_chemical_formula_sum              "Hg12 I8 S8"
_cell_length_a       9.71418
_cell_length_b       9.99294
_cell_length_c       11.9411
_cell_angle_alpha    114.735
_cell_angle_beta     114.001
_cell_angle_gamma    90

_space_group_name_H-M_alt    "P 1"
_space_group_IT_number       1

loop_
  _space_group_symop_operation_xyz
  'x, y, z'

loop_
  _atom_site_type_symbol
  _atom_site_label
  _atom_site_symmetry_multiplicity
  _atom_site_fract_x
  _atom_site_fract_y
  _atom_site_fract_z
  _atom_site_occupancy
  Hg  Hg1       1.0  0.35000  0.35000  0.20000  1.0000
  Hg  Hg2       1.0  0.35000  0.85000  0.20000  1.0000
  Hg  Hg3       1.0  0.07200  0.11600  0.23300  1.0000
  Hg  Hg4       1.0  0.66100  0.61600  0.23300  1.0000
  Hg  Hg5       1.0  0.74800  0.02100  0.50000  1.0000
  Hg  Hg6       1.0  0.74800  0.47900  0.50000  1.0000
  Hg  Hg7       1.0  0.25200  0.52100  0.50000  1.0000
  Hg  Hg8       1.0  0.25200  0.97900  0.50000  1.0000
  Hg  Hg9       1.0  0.33900  0.38400  0.76700  1.0000
  Hg  Hg10      1.0  0.92800  0.88400  0.76700  1.0000
  Hg  Hg11      1.0  0.65000  0.15000  0.80000  1.0000
  Hg  Hg12      1.0  0.65000  0.65000  0.80000  1.0000
  I   I1        1.0  0.25900  0.00023  0.00047  1.0000
  I   I2        1.0  0.24100  0.50000  0.00047  1.0000
  I   I3        1.0  0.51900  0.25000  0.50000  1.0000
  I   I4        1.0  0.99400  0.25000  0.50000  1.0000
  I   I5        1.0  0.00627  0.75000  0.50000  1.0000
  I   I6        1.0  0.48100  0.75000  0.50000  1.0000
  I   I7        1.0  0.75900  0.50000  0.00000  1.0000
  I   I8        1.0  0.74100  0.00000  0.00000  1.0000
  S   S1        1.0  0.12300  0.36700  0.24900  1.0000
  S   S2        1.0  0.62500  0.38100  0.24900  1.0000
  S   S3        1.0  0.62500  0.86700  0.24900  1.0000
  S   S4        1.0  0.12300  0.88100  0.24900  1.0000
  S   S5        1.0  0.87700  0.11900  0.75100  1.0000
  S   S6        1.0  0.37500  0.13300  0.75100  1.0000
  S   S7        1.0  0.37500  0.61900  0.75100  1.0000
  S   S8        1.0  0.87700  0.63300  0.75100  1.0000
