data_image0
_chemical_formula_structural       K12Se12Sn4
_chemical_formula_sum              "K12 Se12 Sn4"
_cell_length_a       9.23333
_cell_length_b       13.0254
_cell_length_c       9.04409
_cell_angle_alpha    90
_cell_angle_beta     115.968
_cell_angle_gamma    90

_space_group_name_H-M_alt    "P 1"
_space_group_IT_number       1

loop_
  _space_group_symop_operation_xyz
  'x, y, z'

loop_
  _atom_site_type_symbol
  _atom_site_label
  _atom_site_symmetry_multiplicity
  _atom_site_fract_x
  _atom_site_fract_y
  _atom_site_fract_z
  _atom_site_occupancy
  K   K1        1.0  0.00181  0.16400  0.01360  1.0000
  K   K2        1.0  0.55800  0.78800  0.18900  1.0000
  K   K3        1.0  0.22400  0.56900  0.21100  1.0000
  K   K4        1.0  0.77600  0.06890  0.28900  1.0000
  K   K5        1.0  0.44200  0.28800  0.31100  1.0000
  K   K6        1.0  0.99800  0.66400  0.48600  1.0000
  K   K7        1.0  0.00181  0.33600  0.51400  1.0000
  K   K8        1.0  0.55800  0.71200  0.68900  1.0000
  K   K9        1.0  0.22400  0.93100  0.71100  1.0000
  K   K10       1.0  0.77600  0.43100  0.78900  1.0000
  K   K11       1.0  0.44200  0.21200  0.81100  1.0000
  K   K12       1.0  0.99800  0.83600  0.98600  1.0000
  Se  Se1       1.0  0.82800  0.62800  0.07000  1.0000
  Se  Se2       1.0  0.34500  0.02890  0.09570  1.0000
  Se  Se3       1.0  0.75800  0.30900  0.12000  1.0000
  Se  Se4       1.0  0.24200  0.80900  0.38000  1.0000
  Se  Se5       1.0  0.65500  0.52900  0.40400  1.0000
  Se  Se6       1.0  0.17200  0.12800  0.43000  1.0000
  Se  Se7       1.0  0.82800  0.87200  0.57000  1.0000
  Se  Se8       1.0  0.34500  0.47100  0.59600  1.0000
  Se  Se9       1.0  0.75800  0.19100  0.62000  1.0000
  Se  Se10      1.0  0.24200  0.69100  0.88000  1.0000
  Se  Se11      1.0  0.65500  0.97100  0.90400  1.0000
  Se  Se12      1.0  0.17200  0.37200  0.93000  1.0000
  Sn  Sn1       1.0  0.66000  0.49200  0.12900  1.0000
  Sn  Sn2       1.0  0.34000  0.99200  0.37100  1.0000
  Sn  Sn3       1.0  0.66000  0.00824  0.62900  1.0000
  Sn  Sn4       1.0  0.34000  0.50800  0.87100  1.0000
