data_image0
_chemical_formula_structural       Ba4O18P4Te2
_chemical_formula_sum              "Ba4 O18 P4 Te2"
_cell_length_a       6.91902
_cell_length_b       7.375
_cell_length_c       8.8326
_cell_angle_alpha    77.0203
_cell_angle_beta     79.7554
_cell_angle_gamma    75.5752

_space_group_name_H-M_alt    "P 1"
_space_group_IT_number       1

loop_
  _space_group_symop_operation_xyz
  'x, y, z'

loop_
  _atom_site_type_symbol
  _atom_site_label
  _atom_site_symmetry_multiplicity
  _atom_site_fract_x
  _atom_site_fract_y
  _atom_site_fract_z
  _atom_site_occupancy
  Ba  Ba1       1.0  0.10400  0.38200  0.24500  1.0000
  Ba  Ba2       1.0  0.37000  0.80500  0.41900  1.0000
  Ba  Ba3       1.0  0.63000  0.19500  0.58100  1.0000
  Ba  Ba4       1.0  0.89600  0.61800  0.75500  1.0000
  O   O1        1.0  0.80300  0.46700  0.05790  1.0000
  O   O2        1.0  0.37700  0.07300  0.10300  1.0000
  O   O3        1.0  0.44600  0.65200  0.14500  1.0000
  O   O4        1.0  0.53200  0.29500  0.20500  1.0000
  O   O5        1.0  0.73500  0.88000  0.21600  1.0000
  O   O6        1.0  0.93600  0.06370  0.32100  1.0000
  O   O7        1.0  0.67500  0.48300  0.34600  1.0000
  O   O8        1.0  0.04450  0.70300  0.35300  1.0000
  O   O9        1.0  0.28100  0.15000  0.49600  1.0000
  O   O10       1.0  0.71900  0.85000  0.50400  1.0000
  O   O11       1.0  0.95600  0.29700  0.64700  1.0000
  O   O12       1.0  0.32500  0.51700  0.65400  1.0000
  O   O13       1.0  0.06350  0.93600  0.67900  1.0000
  O   O14       1.0  0.26500  0.12000  0.78400  1.0000
  O   O15       1.0  0.46800  0.70500  0.79500  1.0000
  O   O16       1.0  0.55400  0.34800  0.85500  1.0000
  O   O17       1.0  0.62300  0.92700  0.89700  1.0000
  O   O18       1.0  0.19700  0.53300  0.94200  1.0000
  P   P1        1.0  0.62400  0.47800  0.18500  1.0000
  P   P2        1.0  0.86700  0.87500  0.35100  1.0000
  P   P3        1.0  0.13300  0.12500  0.64900  1.0000
  P   P4        1.0  0.37600  0.52200  0.81500  1.0000
  Te  Te1       1.0  0.65200  0.11100  0.04230  1.0000
  Te  Te2       1.0  0.34800  0.88900  0.95800  1.0000
