data_image0
_chemical_formula_structural       Ag4Na4O12S8
_chemical_formula_sum              "Ag4 Na4 O12 S8"
_cell_length_a       9.14226
_cell_length_b       6.09883
_cell_length_c       8.3751
_cell_angle_alpha    90
_cell_angle_beta     105.817
_cell_angle_gamma    90

_space_group_name_H-M_alt    "P 1"
_space_group_IT_number       1

loop_
  _space_group_symop_operation_xyz
  'x, y, z'

loop_
  _atom_site_type_symbol
  _atom_site_label
  _atom_site_symmetry_multiplicity
  _atom_site_fract_x
  _atom_site_fract_y
  _atom_site_fract_z
  _atom_site_occupancy
  Ag  Ag1       1.0  0.55800  0.48700  0.22000  1.0000
  Ag  Ag2       1.0  0.44200  0.98700  0.28000  1.0000
  Ag  Ag3       1.0  0.55800  0.01320  0.72000  1.0000
  Ag  Ag4       1.0  0.44200  0.51300  0.78000  1.0000
  Na  Na1       1.0  0.94100  0.13800  0.17000  1.0000
  Na  Na2       1.0  0.05900  0.63800  0.33000  1.0000
  Na  Na3       1.0  0.94100  0.36200  0.67000  1.0000
  Na  Na4       1.0  0.05900  0.86200  0.83000  1.0000
  O   O1        1.0  0.92400  0.80200  0.03460  1.0000
  O   O2        1.0  0.82100  0.47700  0.13400  1.0000
  O   O3        1.0  0.19500  0.48300  0.16300  1.0000
  O   O4        1.0  0.80500  0.98300  0.33700  1.0000
  O   O5        1.0  0.17900  0.97700  0.36600  1.0000
  O   O6        1.0  0.07620  0.30200  0.46500  1.0000
  O   O7        1.0  0.92400  0.69800  0.53500  1.0000
  O   O8        1.0  0.82100  0.02270  0.63400  1.0000
  O   O9        1.0  0.19500  0.01680  0.66300  1.0000
  O   O10       1.0  0.80500  0.51700  0.83700  1.0000
  O   O11       1.0  0.17900  0.52300  0.86600  1.0000
  O   O12       1.0  0.07620  0.19800  0.96500  1.0000
  S   S1        1.0  0.19400  0.37100  0.00884  1.0000
  S   S2        1.0  0.40200  0.21200  0.03430  1.0000
  S   S3        1.0  0.59800  0.71200  0.46600  1.0000
  S   S4        1.0  0.80600  0.87100  0.49100  1.0000
  S   S5        1.0  0.19400  0.12900  0.50900  1.0000
  S   S6        1.0  0.40200  0.28800  0.53400  1.0000
  S   S7        1.0  0.59800  0.78800  0.96600  1.0000
  S   S8        1.0  0.80600  0.62900  0.99100  1.0000
