data_image0
_chemical_formula_structural       Ge4I12La12
_chemical_formula_sum              "Ge4 I12 La12"
_cell_length_a       11.0276
_cell_length_b       11.0276
_cell_length_c       11.0276
_cell_angle_alpha    109.471
_cell_angle_beta     109.471
_cell_angle_gamma    109.471

_space_group_name_H-M_alt    "P 1"
_space_group_IT_number       1

loop_
  _space_group_symop_operation_xyz
  'x, y, z'

loop_
  _atom_site_type_symbol
  _atom_site_label
  _atom_site_symmetry_multiplicity
  _atom_site_fract_x
  _atom_site_fract_y
  _atom_site_fract_z
  _atom_site_occupancy
  Ge  Ge1       1.0  0.25000  0.00000  0.00000  1.0000
  Ge  Ge2       1.0  0.25000  0.75000  0.25000  1.0000
  Ge  Ge3       1.0  0.50000  0.50000  0.25000  1.0000
  Ge  Ge4       1.0  0.00000  0.75000  0.50000  1.0000
  I   I1        1.0  0.75800  0.24200  0.25000  1.0000
  I   I2        1.0  0.99200  0.00803  0.25000  1.0000
  I   I3        1.0  0.75800  0.01610  0.50800  1.0000
  I   I4        1.0  0.25000  0.49200  0.50800  1.0000
  I   I5        1.0  0.50800  0.25800  0.51600  1.0000
  I   I6        1.0  0.99200  0.48400  0.74200  1.0000
  I   I7        1.0  0.25000  0.25800  0.74200  1.0000
  I   I8        1.0  0.74200  0.75000  0.75800  1.0000
  I   I9        1.0  0.51600  0.00803  0.75800  1.0000
  I   I10       1.0  0.74200  0.49200  0.98400  1.0000
  I   I11       1.0  0.98400  0.24200  0.99200  1.0000
  I   I12       1.0  0.50800  0.75000  0.99200  1.0000
  La  La1       1.0  0.02850  0.76400  0.01420  1.0000
  La  La2       1.0  0.48600  0.25000  0.01420  1.0000
  La  La3       1.0  0.26400  0.51400  0.02850  1.0000
  La  La4       1.0  0.47200  0.98600  0.23600  1.0000
  La  La5       1.0  0.26400  0.25000  0.23600  1.0000
  La  La6       1.0  0.01420  0.52800  0.26400  1.0000
  La  La7       1.0  0.75000  0.73600  0.26400  1.0000
  La  La8       1.0  0.48600  0.73600  0.47200  1.0000
  La  La9       1.0  0.23600  0.97200  0.48600  1.0000
  La  La10      1.0  0.75000  0.51400  0.48600  1.0000
  La  La11      1.0  0.23600  0.76400  0.75000  1.0000
  La  La12      1.0  0.01420  0.98600  0.75000  1.0000
