data_image0
_chemical_formula_structural       I2Pr6S16Si4
_chemical_formula_sum              "I2 Pr6 S16 Si4"
_cell_length_a       7.90405
_cell_length_b       8.93883
_cell_length_c       10.9178
_cell_angle_alpha    97.2393
_cell_angle_beta     90
_cell_angle_gamma    116.239

_space_group_name_H-M_alt    "P 1"
_space_group_IT_number       1

loop_
  _space_group_symop_operation_xyz
  'x, y, z'

loop_
  _atom_site_type_symbol
  _atom_site_label
  _atom_site_symmetry_multiplicity
  _atom_site_fract_x
  _atom_site_fract_y
  _atom_site_fract_z
  _atom_site_occupancy
  I   I1        1.0  0.01350  0.00000  0.25000  1.0000
  I   I2        1.0  0.98700  0.00000  0.75000  1.0000
  Pr  Pr1       1.0  0.32100  0.39800  0.18100  1.0000
  Pr  Pr2       1.0  0.59800  0.00000  0.25000  1.0000
  Pr  Pr3       1.0  0.92400  0.60200  0.31900  1.0000
  Pr  Pr4       1.0  0.07620  0.39800  0.68100  1.0000
  Pr  Pr5       1.0  0.40200  0.00000  0.75000  1.0000
  Pr  Pr6       1.0  0.67900  0.60200  0.81900  1.0000
  S   S1        1.0  0.41500  0.13600  0.04270  1.0000
  S   S2        1.0  0.71200  0.56400  0.08580  1.0000
  S   S3        1.0  0.89000  0.29000  0.14700  1.0000
  S   S4        1.0  0.25100  0.70100  0.16200  1.0000
  S   S5        1.0  0.55000  0.29900  0.33800  1.0000
  S   S6        1.0  0.60000  0.71000  0.35300  1.0000
  S   S7        1.0  0.14900  0.43600  0.41400  1.0000
  S   S8        1.0  0.27800  0.86400  0.45700  1.0000
  S   S9        1.0  0.72200  0.13600  0.54300  1.0000
  S   S10       1.0  0.85100  0.56400  0.58600  1.0000
  S   S11       1.0  0.40000  0.29000  0.64700  1.0000
  S   S12       1.0  0.45000  0.70100  0.66200  1.0000
  S   S13       1.0  0.74900  0.29900  0.83800  1.0000
  S   S14       1.0  0.11000  0.71000  0.85300  1.0000
  S   S15       1.0  0.28800  0.43600  0.91400  1.0000
  S   S16       1.0  0.58500  0.86400  0.95700  1.0000
  Si  Si1       1.0  0.69700  0.31900  0.02930  1.0000
  Si  Si2       1.0  0.37800  0.68100  0.47100  1.0000
  Si  Si3       1.0  0.62200  0.31900  0.52900  1.0000
  Si  Si4       1.0  0.30300  0.68100  0.97100  1.0000
