data_image0
_chemical_formula_structural       As4Cs4Se18Sn2
_chemical_formula_sum              "As4 Cs4 Se18 Sn2"
_cell_length_a       7.38514
_cell_length_b       17.9544
_cell_length_c       7.98316
_cell_angle_alpha    90
_cell_angle_beta     115.514
_cell_angle_gamma    90

_space_group_name_H-M_alt    "P 1"
_space_group_IT_number       1

loop_
  _space_group_symop_operation_xyz
  'x, y, z'

loop_
  _atom_site_type_symbol
  _atom_site_label
  _atom_site_symmetry_multiplicity
  _atom_site_fract_x
  _atom_site_fract_y
  _atom_site_fract_z
  _atom_site_occupancy
  As  As1       1.0  0.20000  0.64300  0.07150  1.0000
  As  As2       1.0  0.36600  0.04910  0.16600  1.0000
  As  As3       1.0  0.63400  0.54900  0.83400  1.0000
  As  As4       1.0  0.80000  0.14300  0.92800  1.0000
  Cs  Cs1       1.0  0.30200  0.43400  0.23500  1.0000
  Cs  Cs2       1.0  0.91700  0.70700  0.48800  1.0000
  Cs  Cs3       1.0  0.08310  0.20700  0.51200  1.0000
  Cs  Cs4       1.0  0.69800  0.93400  0.76500  1.0000
  Se  Se1       1.0  0.44800  0.70400  0.00286  1.0000
  Se  Se2       1.0  0.97700  0.74500  0.00289  1.0000
  Se  Se3       1.0  0.72300  0.52300  0.16500  1.0000
  Se  Se4       1.0  0.70900  0.88300  0.21600  1.0000
  Se  Se5       1.0  0.80900  0.39500  0.22400  1.0000
  Se  Se6       1.0  0.19600  0.95300  0.24200  1.0000
  Se  Se7       1.0  0.71400  0.00591  0.32800  1.0000
  Se  Se8       1.0  0.38100  0.64900  0.42200  1.0000
  Se  Se9       1.0  0.39200  0.77900  0.46700  1.0000
  Se  Se10      1.0  0.60800  0.27900  0.53300  1.0000
  Se  Se11      1.0  0.61900  0.14900  0.57800  1.0000
  Se  Se12      1.0  0.28600  0.50600  0.67200  1.0000
  Se  Se13      1.0  0.80400  0.45300  0.75800  1.0000
  Se  Se14      1.0  0.19100  0.89500  0.77600  1.0000
  Se  Se15      1.0  0.29100  0.38300  0.78400  1.0000
  Se  Se16      1.0  0.27700  0.02300  0.83500  1.0000
  Se  Se17      1.0  0.02280  0.24500  0.99700  1.0000
  Se  Se18      1.0  0.55200  0.20400  0.99700  1.0000
  Sn  Sn1       1.0  0.32800  0.83200  0.12100  1.0000
  Sn  Sn2       1.0  0.67200  0.33200  0.87900  1.0000
