data_image0
_chemical_formula_structural       Ba2Cu18Si8
_chemical_formula_sum              "Ba2 Cu18 Si8"
_cell_length_a       8.19861
_cell_length_b       8.19861
_cell_length_c       8.23746
_cell_angle_alpha    119.844
_cell_angle_beta     119.844
_cell_angle_gamma    90

_space_group_name_H-M_alt    "P 1"
_space_group_IT_number       1

loop_
  _space_group_symop_operation_xyz
  'x, y, z'

loop_
  _atom_site_type_symbol
  _atom_site_label
  _atom_site_symmetry_multiplicity
  _atom_site_fract_x
  _atom_site_fract_y
  _atom_site_fract_z
  _atom_site_occupancy
  Ba  Ba1       1.0  0.25000  0.25000  0.50000  1.0000
  Ba  Ba2       1.0  0.75000  0.75000  0.50000  1.0000
  Cu  Cu1       1.0  0.50000  0.00000  0.00000  1.0000
  Cu  Cu2       1.0  0.20500  0.06370  0.00000  1.0000
  Cu  Cu3       1.0  0.93600  0.20500  0.00000  1.0000
  Cu  Cu4       1.0  0.43600  0.29500  0.00000  1.0000
  Cu  Cu5       1.0  0.70500  0.43600  0.00000  1.0000
  Cu  Cu6       1.0  0.00000  0.50000  0.00000  1.0000
  Cu  Cu7       1.0  0.29500  0.56400  0.00000  1.0000
  Cu  Cu8       1.0  0.56400  0.70500  0.00000  1.0000
  Cu  Cu9       1.0  0.06370  0.79500  0.00000  1.0000
  Cu  Cu10      1.0  0.79500  0.93600  0.00000  1.0000
  Cu  Cu11      1.0  0.80400  0.05960  0.36400  1.0000
  Cu  Cu12      1.0  0.56000  0.30400  0.36400  1.0000
  Cu  Cu13      1.0  0.05960  0.56000  0.36400  1.0000
  Cu  Cu14      1.0  0.30400  0.80400  0.36400  1.0000
  Cu  Cu15      1.0  0.69600  0.19600  0.63600  1.0000
  Cu  Cu16      1.0  0.94000  0.44000  0.63600  1.0000
  Cu  Cu17      1.0  0.44000  0.69600  0.63600  1.0000
  Cu  Cu18      1.0  0.19600  0.94000  0.63600  1.0000
  Si  Si1       1.0  0.79100  0.29100  0.23100  1.0000
  Si  Si2       1.0  0.29100  0.44000  0.23100  1.0000
  Si  Si3       1.0  0.94000  0.79100  0.23100  1.0000
  Si  Si4       1.0  0.44000  0.94000  0.23100  1.0000
  Si  Si5       1.0  0.56000  0.06040  0.76900  1.0000
  Si  Si6       1.0  0.06040  0.20900  0.76900  1.0000
  Si  Si7       1.0  0.70900  0.56000  0.76900  1.0000
  Si  Si8       1.0  0.20900  0.70900  0.76900  1.0000
