data_image0
_chemical_formula_structural       C4Cl8Hg8N8
_chemical_formula_sum              "C4 Cl8 Hg8 N8"
_cell_length_a       8.21055
_cell_length_b       9.12913
_cell_length_c       7.92711
_cell_angle_alpha    90
_cell_angle_beta     106.087
_cell_angle_gamma    90

_space_group_name_H-M_alt    "P 1"
_space_group_IT_number       1

loop_
  _space_group_symop_operation_xyz
  'x, y, z'

loop_
  _atom_site_type_symbol
  _atom_site_label
  _atom_site_symmetry_multiplicity
  _atom_site_fract_x
  _atom_site_fract_y
  _atom_site_fract_z
  _atom_site_occupancy
  C   C1        1.0  0.86500  0.58900  0.07630  1.0000
  C   C2        1.0  0.13500  0.08930  0.42400  1.0000
  C   C3        1.0  0.86500  0.91100  0.57600  1.0000
  C   C4        1.0  0.13500  0.41100  0.92400  1.0000
  Cl  Cl1       1.0  0.80300  0.02140  0.07610  1.0000
  Cl  Cl2       1.0  0.51000  0.25300  0.24700  1.0000
  Cl  Cl3       1.0  0.49000  0.75300  0.25300  1.0000
  Cl  Cl4       1.0  0.19700  0.52100  0.42400  1.0000
  Cl  Cl5       1.0  0.80300  0.47900  0.57600  1.0000
  Cl  Cl6       1.0  0.51000  0.24700  0.74700  1.0000
  Cl  Cl7       1.0  0.49000  0.74700  0.75300  1.0000
  Cl  Cl8       1.0  0.19700  0.97900  0.92400  1.0000
  Hg  Hg1       1.0  0.50000  0.00000  0.00000  1.0000
  Hg  Hg2       1.0  0.50000  0.50000  0.00000  1.0000
  Hg  Hg3       1.0  0.10900  0.81900  0.23200  1.0000
  Hg  Hg4       1.0  0.89100  0.31900  0.26800  1.0000
  Hg  Hg5       1.0  0.50000  0.00000  0.50000  1.0000
  Hg  Hg6       1.0  0.50000  0.50000  0.50000  1.0000
  Hg  Hg7       1.0  0.10900  0.68100  0.73200  1.0000
  Hg  Hg8       1.0  0.89100  0.18100  0.76800  1.0000
  N   N1        1.0  0.96500  0.67500  0.04510  1.0000
  N   N2        1.0  0.76700  0.49100  0.10000  1.0000
  N   N3        1.0  0.23300  0.99100  0.40000  1.0000
  N   N4        1.0  0.03520  0.17500  0.45500  1.0000
  N   N5        1.0  0.96500  0.82500  0.54500  1.0000
  N   N6        1.0  0.76700  0.00949  0.60000  1.0000
  N   N7        1.0  0.23300  0.50900  0.90000  1.0000
  N   N8        1.0  0.03520  0.32500  0.95500  1.0000
