data_image0
_chemical_formula_structural       Cs4S16Si4Sm4
_chemical_formula_sum              "Cs4 S16 Si4 Sm4"
_cell_length_a       6.45273
_cell_length_b       6.76599
_cell_length_c       17.9382
_cell_angle_alpha    90
_cell_angle_beta     90
_cell_angle_gamma    90

_space_group_name_H-M_alt    "P 1"
_space_group_IT_number       1

loop_
  _space_group_symop_operation_xyz
  'x, y, z'

loop_
  _atom_site_type_symbol
  _atom_site_label
  _atom_site_symmetry_multiplicity
  _atom_site_fract_x
  _atom_site_fract_y
  _atom_site_fract_z
  _atom_site_occupancy
  Cs  Cs1       1.0  0.99900  0.00730  0.03310  1.0000
  Cs  Cs2       1.0  0.00122  0.50700  0.46700  1.0000
  Cs  Cs3       1.0  0.50100  0.99300  0.53300  1.0000
  Cs  Cs4       1.0  0.49900  0.49300  0.96700  1.0000
  S   S1        1.0  0.05090  0.51200  0.09590  1.0000
  S   S2        1.0  0.57000  0.74600  0.14500  1.0000
  S   S3        1.0  0.60700  0.25200  0.15400  1.0000
  S   S4        1.0  0.11500  0.06910  0.22100  1.0000
  S   S5        1.0  0.88500  0.56900  0.27900  1.0000
  S   S6        1.0  0.39300  0.75200  0.34600  1.0000
  S   S7        1.0  0.43000  0.24600  0.35500  1.0000
  S   S8        1.0  0.94900  0.01190  0.40400  1.0000
  S   S9        1.0  0.44900  0.48800  0.59600  1.0000
  S   S10       1.0  0.93000  0.25400  0.64500  1.0000
  S   S11       1.0  0.89300  0.74800  0.65400  1.0000
  S   S12       1.0  0.38500  0.93100  0.72100  1.0000
  S   S13       1.0  0.61500  0.43100  0.77900  1.0000
  S   S14       1.0  0.10700  0.24800  0.84600  1.0000
  S   S15       1.0  0.06970  0.75400  0.85500  1.0000
  S   S16       1.0  0.55100  0.98800  0.90400  1.0000
  Si  Si1       1.0  0.79000  0.51600  0.16700  1.0000
  Si  Si2       1.0  0.21000  0.01580  0.33300  1.0000
  Si  Si3       1.0  0.71000  0.48400  0.66700  1.0000
  Si  Si4       1.0  0.29000  0.98400  0.83300  1.0000
  Sm  Sm1       1.0  0.29200  0.48000  0.22900  1.0000
  Sm  Sm2       1.0  0.70800  0.98000  0.27100  1.0000
  Sm  Sm3       1.0  0.20800  0.52000  0.72900  1.0000
  Sm  Sm4       1.0  0.79200  0.02050  0.77100  1.0000
