data_image0
_chemical_formula_structural       Al4Ba10Ge14
_chemical_formula_sum              "Al4 Ba10 Ge14"
_cell_length_a       6.7844
_cell_length_b       6.7844
_cell_length_c       18.6535
_cell_angle_alpha    98.5769
_cell_angle_beta     98.5769
_cell_angle_gamma    100.17

_space_group_name_H-M_alt    "P 1"
_space_group_IT_number       1

loop_
  _space_group_symop_operation_xyz
  'x, y, z'

loop_
  _atom_site_type_symbol
  _atom_site_label
  _atom_site_symmetry_multiplicity
  _atom_site_fract_x
  _atom_site_fract_y
  _atom_site_fract_z
  _atom_site_occupancy
  Al  Al1       1.0  0.77500  0.77500  0.07130  1.0000
  Al  Al2       1.0  0.07500  0.07500  0.26700  1.0000
  Al  Al3       1.0  0.92500  0.92500  0.73300  1.0000
  Al  Al4       1.0  0.22500  0.22500  0.92900  1.0000
  Ba  Ba1       1.0  0.75100  0.24900  0.00000  1.0000
  Ba  Ba2       1.0  0.24900  0.75100  0.00000  1.0000
  Ba  Ba3       1.0  0.57000  0.12300  0.21000  1.0000
  Ba  Ba4       1.0  0.12300  0.57000  0.21000  1.0000
  Ba  Ba5       1.0  0.76100  0.76100  0.35500  1.0000
  Ba  Ba6       1.0  0.71000  0.29000  0.50000  1.0000
  Ba  Ba7       1.0  0.29000  0.71000  0.50000  1.0000
  Ba  Ba8       1.0  0.23900  0.23900  0.64500  1.0000
  Ba  Ba9       1.0  0.87700  0.43000  0.79000  1.0000
  Ba  Ba10      1.0  0.43000  0.87700  0.79000  1.0000
  Ge  Ge1       1.0  0.29700  0.29700  0.06710  1.0000
  Ge  Ge2       1.0  0.06110  0.06110  0.13200  1.0000
  Ge  Ge3       1.0  0.58700  0.58700  0.15400  1.0000
  Ge  Ge4       1.0  0.36300  0.36300  0.35600  1.0000
  Ge  Ge5       1.0  0.96000  0.33500  0.35800  1.0000
  Ge  Ge6       1.0  0.33500  0.96000  0.35800  1.0000
  Ge  Ge7       1.0  0.18000  0.18000  0.45300  1.0000
  Ge  Ge8       1.0  0.82000  0.82000  0.54700  1.0000
  Ge  Ge9       1.0  0.66500  0.03980  0.64200  1.0000
  Ge  Ge10      1.0  0.03980  0.66500  0.64200  1.0000
  Ge  Ge11      1.0  0.63700  0.63700  0.64400  1.0000
  Ge  Ge12      1.0  0.41300  0.41300  0.84600  1.0000
  Ge  Ge13      1.0  0.93900  0.93900  0.86800  1.0000
  Ge  Ge14      1.0  0.70300  0.70300  0.93300  1.0000
