data_image0
_chemical_formula_structural       K8O16Ru4
_chemical_formula_sum              "K8 O16 Ru4"
_cell_length_a       7.7021
_cell_length_b       6.07315
_cell_length_c       10.4735
_cell_angle_alpha    90
_cell_angle_beta     90
_cell_angle_gamma    90

_space_group_name_H-M_alt    "P 1"
_space_group_IT_number       1

loop_
  _space_group_symop_operation_xyz
  'x, y, z'

loop_
  _atom_site_type_symbol
  _atom_site_label
  _atom_site_symmetry_multiplicity
  _atom_site_fract_x
  _atom_site_fract_y
  _atom_site_fract_z
  _atom_site_occupancy
  K   K1        1.0  0.65300  0.75000  0.07340  1.0000
  K   K2        1.0  0.99800  0.25000  0.20600  1.0000
  K   K3        1.0  0.49800  0.25000  0.29400  1.0000
  K   K4        1.0  0.15300  0.75000  0.42700  1.0000
  K   K5        1.0  0.84700  0.25000  0.57300  1.0000
  K   K6        1.0  0.50200  0.75000  0.70600  1.0000
  K   K7        1.0  0.00240  0.75000  0.79400  1.0000
  K   K8        1.0  0.34700  0.25000  0.92700  1.0000
  O   O1        1.0  0.98300  0.75000  0.05740  1.0000
  O   O2        1.0  0.66600  0.25000  0.06460  1.0000
  O   O3        1.0  0.28100  0.51200  0.17200  1.0000
  O   O4        1.0  0.28100  0.98800  0.17200  1.0000
  O   O5        1.0  0.78100  0.51200  0.32800  1.0000
  O   O6        1.0  0.78100  0.98800  0.32800  1.0000
  O   O7        1.0  0.16600  0.25000  0.43500  1.0000
  O   O8        1.0  0.48300  0.75000  0.44300  1.0000
  O   O9        1.0  0.51700  0.25000  0.55700  1.0000
  O   O10       1.0  0.83400  0.75000  0.56500  1.0000
  O   O11       1.0  0.21900  0.01160  0.67200  1.0000
  O   O12       1.0  0.21900  0.48800  0.67200  1.0000
  O   O13       1.0  0.71900  0.01160  0.82800  1.0000
  O   O14       1.0  0.71900  0.48800  0.82800  1.0000
  O   O15       1.0  0.33400  0.75000  0.93500  1.0000
  O   O16       1.0  0.01710  0.25000  0.94300  1.0000
  Ru  Ru1       1.0  0.21200  0.75000  0.08330  1.0000
  Ru  Ru2       1.0  0.71200  0.75000  0.41700  1.0000
  Ru  Ru3       1.0  0.28800  0.25000  0.58300  1.0000
  Ru  Ru4       1.0  0.78800  0.25000  0.91700  1.0000
