data_image0
_chemical_formula_structural       Eu4Se16Tb8
_chemical_formula_sum              "Eu4 Se16 Tb8"
_cell_length_a       12.4098
_cell_length_b       4.13116
_cell_length_c       14.9299
_cell_angle_alpha    90
_cell_angle_beta     90
_cell_angle_gamma    90

_space_group_name_H-M_alt    "P 1"
_space_group_IT_number       1

loop_
  _space_group_symop_operation_xyz
  'x, y, z'

loop_
  _atom_site_type_symbol
  _atom_site_label
  _atom_site_symmetry_multiplicity
  _atom_site_fract_x
  _atom_site_fract_y
  _atom_site_fract_z
  _atom_site_occupancy
  Eu  Eu1       1.0  0.74300  0.75000  0.16400  1.0000
  Eu  Eu2       1.0  0.24300  0.75000  0.33600  1.0000
  Eu  Eu3       1.0  0.75700  0.25000  0.66400  1.0000
  Eu  Eu4       1.0  0.25700  0.25000  0.83600  1.0000
  Se  Se1       1.0  0.63600  0.25000  0.03010  1.0000
  Se  Se2       1.0  0.91100  0.25000  0.08140  1.0000
  Se  Se3       1.0  0.20900  0.25000  0.18100  1.0000
  Se  Se4       1.0  0.47800  0.75000  0.21600  1.0000
  Se  Se5       1.0  0.97800  0.75000  0.28400  1.0000
  Se  Se6       1.0  0.70900  0.25000  0.31900  1.0000
  Se  Se7       1.0  0.41100  0.25000  0.41900  1.0000
  Se  Se8       1.0  0.13600  0.25000  0.47000  1.0000
  Se  Se9       1.0  0.86400  0.75000  0.53000  1.0000
  Se  Se10      1.0  0.58900  0.75000  0.58100  1.0000
  Se  Se11      1.0  0.29100  0.75000  0.68100  1.0000
  Se  Se12      1.0  0.02170  0.25000  0.71600  1.0000
  Se  Se13      1.0  0.52200  0.25000  0.78400  1.0000
  Se  Se14      1.0  0.79100  0.75000  0.81900  1.0000
  Se  Se15      1.0  0.08900  0.75000  0.91900  1.0000
  Se  Se16      1.0  0.36400  0.75000  0.97000  1.0000
  Tb  Tb1       1.0  0.41900  0.25000  0.09870  1.0000
  Tb  Tb2       1.0  0.06990  0.75000  0.10900  1.0000
  Tb  Tb3       1.0  0.57000  0.75000  0.39100  1.0000
  Tb  Tb4       1.0  0.91900  0.25000  0.40100  1.0000
  Tb  Tb5       1.0  0.08110  0.75000  0.59900  1.0000
  Tb  Tb6       1.0  0.43000  0.25000  0.60900  1.0000
  Tb  Tb7       1.0  0.93000  0.25000  0.89100  1.0000
  Tb  Tb8       1.0  0.58100  0.75000  0.90100  1.0000
