data_image0
_chemical_formula_structural       Br12La12Ni4
_chemical_formula_sum              "Br12 La12 Ni4"
_cell_length_a       10.4927
_cell_length_b       10.4927
_cell_length_c       10.4927
_cell_angle_alpha    108.044
_cell_angle_beta     112.366
_cell_angle_gamma    108.044

_space_group_name_H-M_alt    "P 1"
_space_group_IT_number       1

loop_
  _space_group_symop_operation_xyz
  'x, y, z'

loop_
  _atom_site_type_symbol
  _atom_site_label
  _atom_site_symmetry_multiplicity
  _atom_site_fract_x
  _atom_site_fract_y
  _atom_site_fract_z
  _atom_site_occupancy
  Br  Br1       1.0  0.10900  0.74500  0.11000  1.0000
  Br  Br2       1.0  0.88300  0.00000  0.11700  1.0000
  Br  Br3       1.0  0.63300  0.26600  0.13300  1.0000
  Br  Br4       1.0  0.38500  0.49900  0.14000  1.0000
  Br  Br5       1.0  0.11400  0.49900  0.35900  1.0000
  Br  Br6       1.0  0.36500  0.25500  0.36400  1.0000
  Br  Br7       1.0  0.86700  0.73400  0.36700  1.0000
  Br  Br8       1.0  0.86000  0.50100  0.61500  1.0000
  Br  Br9       1.0  0.63600  0.74500  0.63500  1.0000
  Br  Br10      1.0  0.11700  0.00000  0.88300  1.0000
  Br  Br11      1.0  0.64100  0.50100  0.88600  1.0000
  Br  Br12      1.0  0.89000  0.25500  0.89100  1.0000
  La  La1       1.0  0.60500  0.76200  0.11000  1.0000
  La  La2       1.0  0.40300  0.99500  0.14000  1.0000
  La  La3       1.0  0.38700  0.77400  0.38700  1.0000
  La  La4       1.0  0.89000  0.23800  0.39500  1.0000
  La  La5       1.0  0.14500  0.00537  0.40800  1.0000
  La  La6       1.0  0.86000  0.00537  0.59700  1.0000
  La  La7       1.0  0.61300  0.22600  0.61300  1.0000
  La  La8       1.0  0.36300  0.50000  0.63700  1.0000
  La  La9       1.0  0.15800  0.76200  0.65300  1.0000
  La  La10      1.0  0.34700  0.23800  0.84200  1.0000
  La  La11      1.0  0.59200  0.99500  0.85500  1.0000
  La  La12      1.0  0.13700  0.50000  0.86300  1.0000
  Ni  Ni1       1.0  0.62700  0.00000  0.37300  1.0000
  Ni  Ni2       1.0  0.12300  0.24600  0.62300  1.0000
  Ni  Ni3       1.0  0.37300  0.00000  0.62700  1.0000
  Ni  Ni4       1.0  0.37700  0.75400  0.87700  1.0000
