data_image0
_chemical_formula_structural       Ni4Sm8Sn16
_chemical_formula_sum              "Ni4 Sm8 Sn16"
_cell_length_a       17.0488
_cell_length_b       4.49965
_cell_length_c       8.9688
_cell_angle_alpha    90
_cell_angle_beta     90
_cell_angle_gamma    90

_space_group_name_H-M_alt    "P 1"
_space_group_IT_number       1

loop_
  _space_group_symop_operation_xyz
  'x, y, z'

loop_
  _atom_site_type_symbol
  _atom_site_label
  _atom_site_symmetry_multiplicity
  _atom_site_fract_x
  _atom_site_fract_y
  _atom_site_fract_z
  _atom_site_occupancy
  Ni  Ni1       1.0  0.06190  0.75000  0.14500  1.0000
  Ni  Ni2       1.0  0.56200  0.75000  0.35500  1.0000
  Ni  Ni3       1.0  0.43800  0.25000  0.64500  1.0000
  Ni  Ni4       1.0  0.93800  0.25000  0.85500  1.0000
  Sm  Sm1       1.0  0.85300  0.75000  0.10900  1.0000
  Sm  Sm2       1.0  0.64800  0.25000  0.13400  1.0000
  Sm  Sm3       1.0  0.14800  0.25000  0.36600  1.0000
  Sm  Sm4       1.0  0.35300  0.75000  0.39100  1.0000
  Sm  Sm5       1.0  0.64700  0.25000  0.60900  1.0000
  Sm  Sm6       1.0  0.85200  0.75000  0.63400  1.0000
  Sm  Sm7       1.0  0.35200  0.75000  0.86600  1.0000
  Sm  Sm8       1.0  0.14700  0.25000  0.89100  1.0000
  Sn  Sn1       1.0  0.49200  0.75000  0.10800  1.0000
  Sn  Sn2       1.0  0.32500  0.25000  0.12700  1.0000
  Sn  Sn3       1.0  0.99100  0.25000  0.12900  1.0000
  Sn  Sn4       1.0  0.21000  0.75000  0.13000  1.0000
  Sn  Sn5       1.0  0.71000  0.75000  0.37000  1.0000
  Sn  Sn6       1.0  0.49100  0.25000  0.37100  1.0000
  Sn  Sn7       1.0  0.82500  0.25000  0.37300  1.0000
  Sn  Sn8       1.0  0.99200  0.75000  0.39200  1.0000
  Sn  Sn9       1.0  0.00834  0.25000  0.60800  1.0000
  Sn  Sn10      1.0  0.17500  0.75000  0.62700  1.0000
  Sn  Sn11      1.0  0.50900  0.75000  0.62900  1.0000
  Sn  Sn12      1.0  0.29000  0.25000  0.63000  1.0000
  Sn  Sn13      1.0  0.79000  0.25000  0.87000  1.0000
  Sn  Sn14      1.0  0.00904  0.75000  0.87100  1.0000
  Sn  Sn15      1.0  0.67500  0.75000  0.87300  1.0000
  Sn  Sn16      1.0  0.50800  0.25000  0.89200  1.0000
