data_image0
_chemical_formula_structural       I2Nd6S16Si4
_chemical_formula_sum              "I2 Nd6 S16 Si4"
_cell_length_a       7.85729
_cell_length_b       8.89402
_cell_length_c       10.8644
_cell_angle_alpha    97.3591
_cell_angle_beta     90
_cell_angle_gamma    116.214

_space_group_name_H-M_alt    "P 1"
_space_group_IT_number       1

loop_
  _space_group_symop_operation_xyz
  'x, y, z'

loop_
  _atom_site_type_symbol
  _atom_site_label
  _atom_site_symmetry_multiplicity
  _atom_site_fract_x
  _atom_site_fract_y
  _atom_site_fract_z
  _atom_site_occupancy
  I   I1        1.0  0.01380  0.00000  0.25000  1.0000
  I   I2        1.0  0.98600  0.00000  0.75000  1.0000
  Nd  Nd1       1.0  0.32300  0.39900  0.18200  1.0000
  Nd  Nd2       1.0  0.60000  0.00000  0.25000  1.0000
  Nd  Nd3       1.0  0.92400  0.60100  0.31800  1.0000
  Nd  Nd4       1.0  0.07620  0.39900  0.68200  1.0000
  Nd  Nd5       1.0  0.40000  0.00000  0.75000  1.0000
  Nd  Nd6       1.0  0.67700  0.60100  0.81800  1.0000
  S   S1        1.0  0.41300  0.13500  0.04170  1.0000
  S   S2        1.0  0.71300  0.56400  0.08590  1.0000
  S   S3        1.0  0.89100  0.29000  0.14800  1.0000
  S   S4        1.0  0.25100  0.70200  0.16300  1.0000
  S   S5        1.0  0.55000  0.29800  0.33700  1.0000
  S   S6        1.0  0.60200  0.71000  0.35200  1.0000
  S   S7        1.0  0.14800  0.43600  0.41400  1.0000
  S   S8        1.0  0.27700  0.86500  0.45800  1.0000
  S   S9        1.0  0.72300  0.13500  0.54200  1.0000
  S   S10       1.0  0.85200  0.56400  0.58600  1.0000
  S   S11       1.0  0.39800  0.29000  0.64800  1.0000
  S   S12       1.0  0.45000  0.70200  0.66300  1.0000
  S   S13       1.0  0.74900  0.29800  0.83700  1.0000
  S   S14       1.0  0.10900  0.71000  0.85200  1.0000
  S   S15       1.0  0.28700  0.43600  0.91400  1.0000
  S   S16       1.0  0.58700  0.86500  0.95800  1.0000
  Si  Si1       1.0  0.69700  0.31900  0.02870  1.0000
  Si  Si2       1.0  0.37800  0.68100  0.47100  1.0000
  Si  Si3       1.0  0.62200  0.31900  0.52900  1.0000
  Si  Si4       1.0  0.30300  0.68100  0.97100  1.0000
