data_image0
_chemical_formula_structural       B4Ce6Cl6O12
_chemical_formula_sum              "B4 Ce6 Cl6 O12"
_cell_length_a       9.23966
_cell_length_b       9.23962
_cell_length_c       5.79106
_cell_angle_alpha    90
_cell_angle_beta     90
_cell_angle_gamma    119.992

_space_group_name_H-M_alt    "P 1"
_space_group_IT_number       1

loop_
  _space_group_symop_operation_xyz
  'x, y, z'

loop_
  _atom_site_type_symbol
  _atom_site_label
  _atom_site_symmetry_multiplicity
  _atom_site_fract_x
  _atom_site_fract_y
  _atom_site_fract_z
  _atom_site_occupancy
  B   B1        1.0  0.33300  0.66700  0.01510  1.0000
  B   B2        1.0  0.33300  0.66700  0.48500  1.0000
  B   B3        1.0  0.66700  0.33300  0.51500  1.0000
  B   B4        1.0  0.66700  0.33300  0.98500  1.0000
  Ce  Ce1       1.0  0.38500  0.05220  0.25000  1.0000
  Ce  Ce2       1.0  0.94800  0.33300  0.25000  1.0000
  Ce  Ce3       1.0  0.66700  0.61500  0.25000  1.0000
  Ce  Ce4       1.0  0.33300  0.38500  0.75000  1.0000
  Ce  Ce5       1.0  0.05220  0.66700  0.75000  1.0000
  Ce  Ce6       1.0  0.61500  0.94800  0.75000  1.0000
  Cl  Cl1       1.0  0.20200  0.23800  0.25000  1.0000
  Cl  Cl2       1.0  0.03590  0.79800  0.25000  1.0000
  Cl  Cl3       1.0  0.76200  0.96400  0.25000  1.0000
  Cl  Cl4       1.0  0.23800  0.03590  0.75000  1.0000
  Cl  Cl5       1.0  0.96400  0.20200  0.75000  1.0000
  Cl  Cl6       1.0  0.79800  0.76200  0.75000  1.0000
  O   O1        1.0  0.63600  0.17100  0.00142  1.0000
  O   O2        1.0  0.82900  0.46500  0.00142  1.0000
  O   O3        1.0  0.53500  0.36400  0.00142  1.0000
  O   O4        1.0  0.53500  0.36400  0.49900  1.0000
  O   O5        1.0  0.82900  0.46500  0.49900  1.0000
  O   O6        1.0  0.63600  0.17100  0.49900  1.0000
  O   O7        1.0  0.17100  0.53500  0.50100  1.0000
  O   O8        1.0  0.36400  0.82900  0.50100  1.0000
  O   O9        1.0  0.46500  0.63600  0.50100  1.0000
  O   O10       1.0  0.46500  0.63600  0.99900  1.0000
  O   O11       1.0  0.17100  0.53500  0.99900  1.0000
  O   O12       1.0  0.36400  0.82900  0.99900  1.0000
