data_image0
_chemical_formula_structural       Eu8S16Sn4
_chemical_formula_sum              "Eu8 S16 Sn4"
_cell_length_a       11.0962
_cell_length_b       8.73559
_cell_length_c       7.47811
_cell_angle_alpha    90
_cell_angle_beta     90
_cell_angle_gamma    90

_space_group_name_H-M_alt    "P 1"
_space_group_IT_number       1

loop_
  _space_group_symop_operation_xyz
  'x, y, z'

loop_
  _atom_site_type_symbol
  _atom_site_label
  _atom_site_symmetry_multiplicity
  _atom_site_fract_x
  _atom_site_fract_y
  _atom_site_fract_z
  _atom_site_occupancy
  Eu  Eu1       1.0  0.31000  0.00347  0.12100  1.0000
  Eu  Eu2       1.0  0.31000  0.49700  0.12100  1.0000
  Eu  Eu3       1.0  0.81000  0.00347  0.37900  1.0000
  Eu  Eu4       1.0  0.81000  0.49700  0.37900  1.0000
  Eu  Eu5       1.0  0.19000  0.50300  0.62100  1.0000
  Eu  Eu6       1.0  0.19000  0.99700  0.62100  1.0000
  Eu  Eu7       1.0  0.69000  0.50300  0.87900  1.0000
  Eu  Eu8       1.0  0.69000  0.99700  0.87900  1.0000
  S   S1        1.0  0.81200  0.75000  0.09790  1.0000
  S   S2        1.0  0.80200  0.25000  0.10200  1.0000
  S   S3        1.0  0.56300  0.51400  0.22600  1.0000
  S   S4        1.0  0.56300  0.98600  0.22600  1.0000
  S   S5        1.0  0.06340  0.51400  0.27400  1.0000
  S   S6        1.0  0.06340  0.98600  0.27400  1.0000
  S   S7        1.0  0.30200  0.25000  0.39800  1.0000
  S   S8        1.0  0.31200  0.75000  0.40200  1.0000
  S   S9        1.0  0.68800  0.25000  0.59800  1.0000
  S   S10       1.0  0.69800  0.75000  0.60200  1.0000
  S   S11       1.0  0.93700  0.01450  0.72600  1.0000
  S   S12       1.0  0.93700  0.48600  0.72600  1.0000
  S   S13       1.0  0.43700  0.01450  0.77400  1.0000
  S   S14       1.0  0.43700  0.48600  0.77400  1.0000
  S   S15       1.0  0.19800  0.75000  0.89800  1.0000
  S   S16       1.0  0.18800  0.25000  0.90200  1.0000
  Sn  Sn1       1.0  0.03060  0.75000  0.11100  1.0000
  Sn  Sn2       1.0  0.53100  0.75000  0.38900  1.0000
  Sn  Sn3       1.0  0.46900  0.25000  0.61100  1.0000
  Sn  Sn4       1.0  0.96900  0.25000  0.88900  1.0000
