data_image0
_chemical_formula_structural       K8O16P4
_chemical_formula_sum              "K8 O16 P4"
_cell_length_a       5.8579
_cell_length_b       10.1244
_cell_length_c       7.30119
_cell_angle_alpha    90
_cell_angle_beta     99.4507
_cell_angle_gamma    90

_space_group_name_H-M_alt    "P 1"
_space_group_IT_number       1

loop_
  _space_group_symop_operation_xyz
  'x, y, z'

loop_
  _atom_site_type_symbol
  _atom_site_label
  _atom_site_symmetry_multiplicity
  _atom_site_fract_x
  _atom_site_fract_y
  _atom_site_fract_z
  _atom_site_occupancy
  K   K1        1.0  0.76400  0.72900  0.02780  1.0000
  K   K2        1.0  0.74800  0.08450  0.17100  1.0000
  K   K3        1.0  0.25200  0.58400  0.32900  1.0000
  K   K4        1.0  0.23600  0.22900  0.47200  1.0000
  K   K5        1.0  0.76400  0.77100  0.52800  1.0000
  K   K6        1.0  0.74800  0.41600  0.67100  1.0000
  K   K7        1.0  0.25200  0.91600  0.82900  1.0000
  K   K8        1.0  0.23600  0.27100  0.97200  1.0000
  O   O1        1.0  0.61100  0.46100  0.00064  1.0000
  O   O2        1.0  0.22100  0.05420  0.17500  1.0000
  O   O3        1.0  0.93500  0.34700  0.18300  1.0000
  O   O4        1.0  0.45700  0.84200  0.20000  1.0000
  O   O5        1.0  0.54300  0.34200  0.30000  1.0000
  O   O6        1.0  0.06550  0.84700  0.31700  1.0000
  O   O7        1.0  0.77900  0.55400  0.32500  1.0000
  O   O8        1.0  0.38900  0.96100  0.49900  1.0000
  O   O9        1.0  0.61100  0.03870  0.50100  1.0000
  O   O10       1.0  0.22100  0.44600  0.67500  1.0000
  O   O11       1.0  0.93500  0.15300  0.68300  1.0000
  O   O12       1.0  0.45700  0.65800  0.70000  1.0000
  O   O13       1.0  0.54300  0.15800  0.80000  1.0000
  O   O14       1.0  0.06550  0.65300  0.81700  1.0000
  O   O15       1.0  0.77900  0.94600  0.82500  1.0000
  O   O16       1.0  0.38900  0.53900  0.99900  1.0000
  P   P1        1.0  0.72500  0.42400  0.22300  1.0000
  P   P2        1.0  0.27500  0.92400  0.27700  1.0000
  P   P3        1.0  0.72500  0.07650  0.72300  1.0000
  P   P4        1.0  0.27500  0.57600  0.77700  1.0000
