data_image0
_chemical_formula_structural       Ce4Cs4S16Si4
_chemical_formula_sum              "Ce4 Cs4 S16 Si4"
_cell_length_a       18.1043
_cell_length_b       6.76493
_cell_length_c       6.53089
_cell_angle_alpha    90
_cell_angle_beta     90
_cell_angle_gamma    90

_space_group_name_H-M_alt    "P 1"
_space_group_IT_number       1

loop_
  _space_group_symop_operation_xyz
  'x, y, z'

loop_
  _atom_site_type_symbol
  _atom_site_label
  _atom_site_symmetry_multiplicity
  _atom_site_fract_x
  _atom_site_fract_y
  _atom_site_fract_z
  _atom_site_occupancy
  Ce  Ce1       1.0  0.02200  0.75000  0.20700  1.0000
  Ce  Ce2       1.0  0.52200  0.75000  0.29300  1.0000
  Ce  Ce3       1.0  0.47800  0.25000  0.70700  1.0000
  Ce  Ce4       1.0  0.97800  0.25000  0.79300  1.0000
  Cs  Cs1       1.0  0.71600  0.25000  0.00243  1.0000
  Cs  Cs2       1.0  0.21600  0.25000  0.49800  1.0000
  Cs  Cs3       1.0  0.78400  0.75000  0.50200  1.0000
  Cs  Cs4       1.0  0.28400  0.75000  0.99800  1.0000
  S   S1        1.0  0.65600  0.75000  0.04720  1.0000
  S   S2        1.0  0.89500  0.00059  0.09040  1.0000
  S   S3        1.0  0.89500  0.49900  0.09040  1.0000
  S   S4        1.0  0.52700  0.25000  0.13200  1.0000
  S   S5        1.0  0.02750  0.25000  0.36800  1.0000
  S   S6        1.0  0.39500  0.00059  0.41000  1.0000
  S   S7        1.0  0.39500  0.49900  0.41000  1.0000
  S   S8        1.0  0.15600  0.75000  0.45300  1.0000
  S   S9        1.0  0.84400  0.25000  0.54700  1.0000
  S   S10       1.0  0.60500  0.50100  0.59000  1.0000
  S   S11       1.0  0.60500  0.99900  0.59000  1.0000
  S   S12       1.0  0.97300  0.75000  0.63200  1.0000
  S   S13       1.0  0.47300  0.75000  0.86800  1.0000
  S   S14       1.0  0.10500  0.50100  0.91000  1.0000
  S   S15       1.0  0.10500  0.99900  0.91000  1.0000
  S   S16       1.0  0.34400  0.25000  0.95300  1.0000
  Si  Si1       1.0  0.41300  0.25000  0.21300  1.0000
  Si  Si2       1.0  0.91300  0.25000  0.28700  1.0000
  Si  Si3       1.0  0.08720  0.75000  0.71300  1.0000
  Si  Si4       1.0  0.58700  0.75000  0.78700  1.0000
