data_image0
_chemical_formula_structural       K3NaO8Ru2
_chemical_formula_sum              "K3 Na1 O8 Ru2"
_cell_length_a       5.90868
_cell_length_b       5.90868
_cell_length_c       7.65143
_cell_angle_alpha    89.9996
_cell_angle_beta     90.0004
_cell_angle_gamma    119.999

_space_group_name_H-M_alt    "P 1"
_space_group_IT_number       1

loop_
  _space_group_symop_operation_xyz
  'x, y, z'

loop_
  _atom_site_type_symbol
  _atom_site_label
  _atom_site_symmetry_multiplicity
  _atom_site_fract_x
  _atom_site_fract_y
  _atom_site_fract_z
  _atom_site_occupancy
  K   K1        1.0  0.00000  0.00000  0.00000  1.0000
  K   K2        1.0  0.66700  0.33300  0.35400  1.0000
  K   K3        1.0  0.33300  0.66700  0.64600  1.0000
  Na  Na1       1.0  0.00000  0.00000  0.50000  1.0000
  O   O1        1.0  0.66700  0.33300  0.02260  1.0000
  O   O2        1.0  0.65600  0.82800  0.30500  1.0000
  O   O3        1.0  0.17200  0.34400  0.30500  1.0000
  O   O4        1.0  0.17200  0.82800  0.30500  1.0000
  O   O5        1.0  0.82800  0.17200  0.69500  1.0000
  O   O6        1.0  0.34400  0.17200  0.69500  1.0000
  O   O7        1.0  0.82800  0.65600  0.69500  1.0000
  O   O8        1.0  0.33300  0.66700  0.97700  1.0000
  Ru  Ru1       1.0  0.33300  0.66700  0.20900  1.0000
  Ru  Ru2       1.0  0.66700  0.33300  0.79100  1.0000
