data_image0
_chemical_formula_structural       Gd6Pd12Sb10
_chemical_formula_sum              "Gd6 Pd12 Sb10"
_cell_length_a       13.3524
_cell_length_b       4.42408
_cell_length_c       10.0314
_cell_angle_alpha    90
_cell_angle_beta     90
_cell_angle_gamma    90

_space_group_name_H-M_alt    "P 1"
_space_group_IT_number       1

loop_
  _space_group_symop_operation_xyz
  'x, y, z'

loop_
  _atom_site_type_symbol
  _atom_site_label
  _atom_site_symmetry_multiplicity
  _atom_site_fract_x
  _atom_site_fract_y
  _atom_site_fract_z
  _atom_site_occupancy
  Gd  Gd1       1.0  0.75000  0.75000  0.24400  1.0000
  Gd  Gd2       1.0  0.07070  0.75000  0.24400  1.0000
  Gd  Gd3       1.0  0.42900  0.75000  0.24400  1.0000
  Gd  Gd4       1.0  0.57100  0.25000  0.75600  1.0000
  Gd  Gd5       1.0  0.92900  0.25000  0.75600  1.0000
  Gd  Gd6       1.0  0.25000  0.25000  0.75600  1.0000
  Pd  Pd1       1.0  0.09170  0.25000  0.01330  1.0000
  Pd  Pd2       1.0  0.40800  0.25000  0.01330  1.0000
  Pd  Pd3       1.0  0.25000  0.75000  0.02430  1.0000
  Pd  Pd4       1.0  0.56900  0.25000  0.39600  1.0000
  Pd  Pd5       1.0  0.93100  0.25000  0.39600  1.0000
  Pd  Pd6       1.0  0.25000  0.75000  0.45900  1.0000
  Pd  Pd7       1.0  0.75000  0.25000  0.54100  1.0000
  Pd  Pd8       1.0  0.06930  0.75000  0.60400  1.0000
  Pd  Pd9       1.0  0.43100  0.75000  0.60400  1.0000
  Pd  Pd10      1.0  0.75000  0.25000  0.97600  1.0000
  Pd  Pd11      1.0  0.59200  0.75000  0.98700  1.0000
  Pd  Pd12      1.0  0.90800  0.75000  0.98700  1.0000
  Sb  Sb1       1.0  0.58900  0.25000  0.13800  1.0000
  Sb  Sb2       1.0  0.91100  0.25000  0.13800  1.0000
  Sb  Sb3       1.0  0.25000  0.25000  0.18400  1.0000
  Sb  Sb4       1.0  0.12400  0.25000  0.47400  1.0000
  Sb  Sb5       1.0  0.37600  0.25000  0.47400  1.0000
  Sb  Sb6       1.0  0.62400  0.75000  0.52600  1.0000
  Sb  Sb7       1.0  0.87600  0.75000  0.52600  1.0000
  Sb  Sb8       1.0  0.75000  0.75000  0.81600  1.0000
  Sb  Sb9       1.0  0.08910  0.75000  0.86200  1.0000
  Sb  Sb10      1.0  0.41100  0.75000  0.86200  1.0000
