data_image0
_chemical_formula_structural       Eu4Ga18Ir6
_chemical_formula_sum              "Eu4 Ga18 Ir6"
_cell_length_a       7.56686
_cell_length_b       7.56686
_cell_length_c       9.71672
_cell_angle_alpha    90
_cell_angle_beta     90
_cell_angle_gamma    119.471

_space_group_name_H-M_alt    "P 1"
_space_group_IT_number       1

loop_
  _space_group_symop_operation_xyz
  'x, y, z'

loop_
  _atom_site_type_symbol
  _atom_site_label
  _atom_site_symmetry_multiplicity
  _atom_site_fract_x
  _atom_site_fract_y
  _atom_site_fract_z
  _atom_site_occupancy
  Eu  Eu1       1.0  0.99700  0.67000  0.25000  1.0000
  Eu  Eu2       1.0  0.67000  0.99700  0.25000  1.0000
  Eu  Eu3       1.0  0.33000  0.00304  0.75000  1.0000
  Eu  Eu4       1.0  0.00304  0.33000  0.75000  1.0000
  Ga  Ga1       1.0  0.66600  0.66600  0.05880  1.0000
  Ga  Ga2       1.0  0.33500  0.00180  0.07570  1.0000
  Ga  Ga3       1.0  0.00180  0.33500  0.07570  1.0000
  Ga  Ga4       1.0  0.12900  0.12900  0.25000  1.0000
  Ga  Ga5       1.0  0.54600  0.33600  0.25000  1.0000
  Ga  Ga6       1.0  0.33600  0.54600  0.25000  1.0000
  Ga  Ga7       1.0  0.33500  0.00180  0.42400  1.0000
  Ga  Ga8       1.0  0.00180  0.33500  0.42400  1.0000
  Ga  Ga9       1.0  0.66600  0.66600  0.44100  1.0000
  Ga  Ga10      1.0  0.33400  0.33400  0.55900  1.0000
  Ga  Ga11      1.0  0.99800  0.66500  0.57600  1.0000
  Ga  Ga12      1.0  0.66500  0.99800  0.57600  1.0000
  Ga  Ga13      1.0  0.66400  0.45400  0.75000  1.0000
  Ga  Ga14      1.0  0.45400  0.66400  0.75000  1.0000
  Ga  Ga15      1.0  0.87100  0.87100  0.75000  1.0000
  Ga  Ga16      1.0  0.99800  0.66500  0.92400  1.0000
  Ga  Ga17      1.0  0.66500  0.99800  0.92400  1.0000
  Ga  Ga18      1.0  0.33400  0.33400  0.94100  1.0000
  Ir  Ir1       1.0  0.00000  0.00000  0.00000  1.0000
  Ir  Ir2       1.0  0.67100  0.32900  0.00000  1.0000
  Ir  Ir3       1.0  0.32900  0.67100  0.00000  1.0000
  Ir  Ir4       1.0  0.00000  0.00000  0.50000  1.0000
  Ir  Ir5       1.0  0.67100  0.32900  0.50000  1.0000
  Ir  Ir6       1.0  0.32900  0.67100  0.50000  1.0000
