data_image0
_chemical_formula_structural       As4I12La12
_chemical_formula_sum              "As4 I12 La12"
_cell_length_a       10.9557
_cell_length_b       10.9557
_cell_length_c       10.9557
_cell_angle_alpha    109.471
_cell_angle_beta     109.471
_cell_angle_gamma    109.471

_space_group_name_H-M_alt    "P 1"
_space_group_IT_number       1

loop_
  _space_group_symop_operation_xyz
  'x, y, z'

loop_
  _atom_site_type_symbol
  _atom_site_label
  _atom_site_symmetry_multiplicity
  _atom_site_fract_x
  _atom_site_fract_y
  _atom_site_fract_z
  _atom_site_occupancy
  As  As1       1.0  0.25000  0.00000  0.00000  1.0000
  As  As2       1.0  0.50000  0.25000  0.50000  1.0000
  As  As3       1.0  0.25000  0.25000  0.75000  1.0000
  As  As4       1.0  0.00000  0.50000  0.75000  1.0000
  I   I1        1.0  0.99100  0.25000  0.00880  1.0000
  I   I2        1.0  0.51800  0.75900  0.00880  1.0000
  I   I3        1.0  0.75900  0.50900  0.01760  1.0000
  I   I4        1.0  0.75900  0.25000  0.24100  1.0000
  I   I5        1.0  0.98200  0.99100  0.24100  1.0000
  I   I6        1.0  0.50900  0.51800  0.25900  1.0000
  I   I7        1.0  0.25000  0.74100  0.25900  1.0000
  I   I8        1.0  0.99100  0.74100  0.48200  1.0000
  I   I9        1.0  0.25000  0.50900  0.49100  1.0000
  I   I10       1.0  0.74100  0.98200  0.49100  1.0000
  I   I11       1.0  0.50900  0.99100  0.75000  1.0000
  I   I12       1.0  0.74100  0.75900  0.75000  1.0000
  La  La1       1.0  0.48500  0.01510  0.25000  1.0000
  La  La2       1.0  0.26500  0.23500  0.25000  1.0000
  La  La3       1.0  0.26500  0.03020  0.51500  1.0000
  La  La4       1.0  0.75000  0.48500  0.51500  1.0000
  La  La5       1.0  0.01510  0.26500  0.53000  1.0000
  La  La6       1.0  0.75000  0.26500  0.73500  1.0000
  La  La7       1.0  0.48500  0.47000  0.73500  1.0000
  La  La8       1.0  0.03020  0.01510  0.76500  1.0000
  La  La9       1.0  0.23500  0.75000  0.76500  1.0000
  La  La10      1.0  0.23500  0.48500  0.97000  1.0000
  La  La11      1.0  0.47000  0.23500  0.98500  1.0000
  La  La12      1.0  0.01510  0.75000  0.98500  1.0000
