data_image0
_chemical_formula_structural       Cl10P8S8Ta2
_chemical_formula_sum              "Cl10 P8 S8 Ta2"
_cell_length_a       6.69166
_cell_length_b       9.26601
_cell_length_c       13.3754
_cell_angle_alpha    100.353
_cell_angle_beta     92.8209
_cell_angle_gamma    110.936

_space_group_name_H-M_alt    "P 1"
_space_group_IT_number       1

loop_
  _space_group_symop_operation_xyz
  'x, y, z'

loop_
  _atom_site_type_symbol
  _atom_site_label
  _atom_site_symmetry_multiplicity
  _atom_site_fract_x
  _atom_site_fract_y
  _atom_site_fract_z
  _atom_site_occupancy
  Cl  Cl1       1.0  0.64600  0.24700  0.05650  1.0000
  Cl  Cl2       1.0  0.25400  0.38100  0.05770  1.0000
  Cl  Cl3       1.0  0.14600  0.00511  0.11400  1.0000
  Cl  Cl4       1.0  0.60000  0.21200  0.29400  1.0000
  Cl  Cl5       1.0  0.20400  0.34100  0.29400  1.0000
  Cl  Cl6       1.0  0.79600  0.65900  0.70600  1.0000
  Cl  Cl7       1.0  0.40000  0.78800  0.70600  1.0000
  Cl  Cl8       1.0  0.85400  0.99500  0.88600  1.0000
  Cl  Cl9       1.0  0.74600  0.61900  0.94200  1.0000
  Cl  Cl10      1.0  0.35400  0.75300  0.94400  1.0000
  P   P1        1.0  0.67800  0.56000  0.24900  1.0000
  P   P2        1.0  0.13000  0.82900  0.32900  1.0000
  P   P3        1.0  0.84400  0.92700  0.33600  1.0000
  P   P4        1.0  0.73000  0.61100  0.43000  1.0000
  P   P5        1.0  0.27000  0.38900  0.57000  1.0000
  P   P6        1.0  0.15600  0.07280  0.66400  1.0000
  P   P7        1.0  0.87000  0.17100  0.67100  1.0000
  P   P8        1.0  0.32200  0.44000  0.75100  1.0000
  S   S1        1.0  0.99300  0.62500  0.21000  1.0000
  S   S2        1.0  0.61300  0.75500  0.21800  1.0000
  S   S3        1.0  0.07050  0.70400  0.45000  1.0000
  S   S4        1.0  0.69300  0.83300  0.45900  1.0000
  S   S5        1.0  0.30700  0.16700  0.54100  1.0000
  S   S6        1.0  0.93000  0.29600  0.55000  1.0000
  S   S7        1.0  0.38700  0.24500  0.78200  1.0000
  S   S8        1.0  0.00726  0.37500  0.79000  1.0000
  Ta  Ta1       1.0  0.39100  0.25900  0.16600  1.0000
  Ta  Ta2       1.0  0.60900  0.74100  0.83400  1.0000
