data_image0
_chemical_formula_structural       F14K2O8Re4
_chemical_formula_sum              "F14 K2 O8 Re4"
_cell_length_a       5.15613
_cell_length_b       4.7674
_cell_length_c       14.0331
_cell_angle_alpha    89.9968
_cell_angle_beta     96.1113
_cell_angle_gamma    90.0033

_space_group_name_H-M_alt    "P 1"
_space_group_IT_number       1

loop_
  _space_group_symop_operation_xyz
  'x, y, z'

loop_
  _atom_site_type_symbol
  _atom_site_label
  _atom_site_symmetry_multiplicity
  _atom_site_fract_x
  _atom_site_fract_y
  _atom_site_fract_z
  _atom_site_occupancy
  F   F1        1.0  0.42700  0.42600  0.08910  1.0000
  F   F2        1.0  0.10700  0.07160  0.16500  1.0000
  F   F3        1.0  0.56900  0.87900  0.16900  1.0000
  F   F4        1.0  0.25000  0.58700  0.25000  1.0000
  F   F5        1.0  0.93100  0.87900  0.33100  1.0000
  F   F6        1.0  0.39300  0.07170  0.33500  1.0000
  F   F7        1.0  0.07310  0.42600  0.41100  1.0000
  F   F8        1.0  0.92700  0.57400  0.58900  1.0000
  F   F9        1.0  0.60700  0.92800  0.66500  1.0000
  F   F10       1.0  0.06930  0.12100  0.66900  1.0000
  F   F11       1.0  0.75000  0.41300  0.75000  1.0000
  F   F12       1.0  0.43100  0.12100  0.83100  1.0000
  F   F13       1.0  0.89300  0.92800  0.83500  1.0000
  F   F14       1.0  0.57300  0.57400  0.91100  1.0000
  K   K1        1.0  0.75000  0.34500  0.25000  1.0000
  K   K2        1.0  0.25000  0.65500  0.75000  1.0000
  O   O1        1.0  0.74600  0.10100  0.00389  1.0000
  O   O2        1.0  0.93800  0.58600  0.09170  1.0000
  O   O3        1.0  0.56100  0.58600  0.40800  1.0000
  O   O4        1.0  0.75400  0.10100  0.49600  1.0000
  O   O5        1.0  0.24600  0.89900  0.50400  1.0000
  O   O6        1.0  0.43900  0.41400  0.59200  1.0000
  O   O7        1.0  0.06150  0.41400  0.90800  1.0000
  O   O8        1.0  0.25400  0.89900  0.99600  1.0000
  Re  Re1       1.0  0.23400  0.75500  0.10600  1.0000
  Re  Re2       1.0  0.26600  0.75500  0.39400  1.0000
  Re  Re3       1.0  0.73400  0.24500  0.60600  1.0000
  Re  Re4       1.0  0.76600  0.24500  0.89400  1.0000
