data_image0
_chemical_formula_structural       Ag2F20P2Xe4
_chemical_formula_sum              "Ag2 F20 P2 Xe4"
_cell_length_a       8.45754
_cell_length_b       8.10243
_cell_length_c       8.10243
_cell_angle_alpha    90
_cell_angle_beta     118.621
_cell_angle_gamma    118.621

_space_group_name_H-M_alt    "P 1"
_space_group_IT_number       1

loop_
  _space_group_symop_operation_xyz
  'x, y, z'

loop_
  _atom_site_type_symbol
  _atom_site_label
  _atom_site_symmetry_multiplicity
  _atom_site_fract_x
  _atom_site_fract_y
  _atom_site_fract_z
  _atom_site_occupancy
  Ag  Ag1       1.0  0.50000  0.25000  0.25000  1.0000
  Ag  Ag2       1.0  0.50000  0.75000  0.75000  1.0000
  F   F1        1.0  0.50000  0.83900  0.06940  1.0000
  F   F2        1.0  0.23700  0.61900  0.11900  1.0000
  F   F3        1.0  0.50000  0.56900  0.16100  1.0000
  F   F4        1.0  0.21500  0.21500  0.22100  1.0000
  F   F5        1.0  0.78500  0.27900  0.28500  1.0000
  F   F6        1.0  0.50000  0.93100  0.33900  1.0000
  F   F7        1.0  0.76300  0.88100  0.38100  1.0000
  F   F8        1.0  0.50000  0.66100  0.43100  1.0000
  F   F9        1.0  0.21500  0.71500  0.49400  1.0000
  F   F10       1.0  0.78500  0.50600  0.50000  1.0000
  F   F11       1.0  0.50000  0.16100  0.56900  1.0000
  F   F12       1.0  0.23700  0.11900  0.61900  1.0000
  F   F13       1.0  0.50000  0.43100  0.66100  1.0000
  F   F14       1.0  0.21500  0.50000  0.72100  1.0000
  F   F15       1.0  0.78500  0.00558  0.78500  1.0000
  F   F16       1.0  0.50000  0.06920  0.83900  1.0000
  F   F17       1.0  0.76300  0.38100  0.88100  1.0000
  F   F18       1.0  0.50000  0.33900  0.93100  1.0000
  F   F19       1.0  0.21500  0.00031  0.99400  1.0000
  F   F20       1.0  0.78500  0.77900  1.00000  1.0000
  P   P1        1.0  0.50000  0.75000  0.25000  1.0000
  P   P2        1.0  0.50000  0.25000  0.75000  1.0000
  Xe  Xe1       1.0  0.00000  0.74800  0.24800  1.0000
  Xe  Xe2       1.0  0.00000  0.24800  0.25200  1.0000
  Xe  Xe3       1.0  0.00000  0.75200  0.74800  1.0000
  Xe  Xe4       1.0  0.00000  0.25200  0.75200  1.0000
