data_image0
_chemical_formula_structural       Ce8Co2S14
_chemical_formula_sum              "Ce8 Co2 S14"
_cell_length_a       9.99854
_cell_length_b       9.99737
_cell_length_c       6.87826
_cell_angle_alpha    90.0005
_cell_angle_beta     89.9999
_cell_angle_gamma    119.996

_space_group_name_H-M_alt    "P 1"
_space_group_IT_number       1

loop_
  _space_group_symop_operation_xyz
  'x, y, z'

loop_
  _atom_site_type_symbol
  _atom_site_label
  _atom_site_symmetry_multiplicity
  _atom_site_fract_x
  _atom_site_fract_y
  _atom_site_fract_z
  _atom_site_occupancy
  Ce  Ce1       1.0  0.66700  0.33300  0.18000  1.0000
  Ce  Ce2       1.0  0.21600  0.84300  0.22300  1.0000
  Ce  Ce3       1.0  0.62700  0.78400  0.22400  1.0000
  Ce  Ce4       1.0  0.15700  0.37300  0.22400  1.0000
  Ce  Ce5       1.0  0.33300  0.66700  0.68000  1.0000
  Ce  Ce6       1.0  0.78400  0.15700  0.72300  1.0000
  Ce  Ce7       1.0  0.37300  0.21600  0.72300  1.0000
  Ce  Ce8       1.0  0.84300  0.62700  0.72300  1.0000
  Co  Co1       1.0  0.00000  0.00000  0.03110  1.0000
  Co  Co2       1.0  0.00013  0.00000  0.53600  1.0000
  S   S1        1.0  0.33300  0.66700  0.07000  1.0000
  S   S2        1.0  0.87400  0.09880  0.33100  1.0000
  S   S3        1.0  0.90100  0.77500  0.33100  1.0000
  S   S4        1.0  0.22500  0.12600  0.33100  1.0000
  S   S5        1.0  0.48900  0.93100  0.46600  1.0000
  S   S6        1.0  0.06920  0.55900  0.46700  1.0000
  S   S7        1.0  0.44100  0.51100  0.46700  1.0000
  S   S8        1.0  0.66700  0.33300  0.57000  1.0000
  S   S9        1.0  0.12700  0.90100  0.83000  1.0000
  S   S10       1.0  0.09880  0.22500  0.83000  1.0000
  S   S11       1.0  0.77400  0.87300  0.83000  1.0000
  S   S12       1.0  0.51000  0.06880  0.96600  1.0000
  S   S13       1.0  0.93100  0.44100  0.96700  1.0000
  S   S14       1.0  0.55900  0.48900  0.96700  1.0000
