data_image0
_chemical_formula_structural       Eu4Ga18Rh6
_chemical_formula_sum              "Eu4 Ga18 Rh6"
_cell_length_a       7.54579
_cell_length_b       7.54579
_cell_length_c       9.75343
_cell_angle_alpha    90
_cell_angle_beta     90
_cell_angle_gamma    119.163

_space_group_name_H-M_alt    "P 1"
_space_group_IT_number       1

loop_
  _space_group_symop_operation_xyz
  'x, y, z'

loop_
  _atom_site_type_symbol
  _atom_site_label
  _atom_site_symmetry_multiplicity
  _atom_site_fract_x
  _atom_site_fract_y
  _atom_site_fract_z
  _atom_site_occupancy
  Eu  Eu1       1.0  0.99800  0.67100  0.25000  1.0000
  Eu  Eu2       1.0  0.67100  0.99800  0.25000  1.0000
  Eu  Eu3       1.0  0.32900  0.00227  0.75000  1.0000
  Eu  Eu4       1.0  0.00227  0.32900  0.75000  1.0000
  Ga  Ga1       1.0  0.66500  0.66500  0.05780  1.0000
  Ga  Ga2       1.0  0.33600  0.00420  0.07450  1.0000
  Ga  Ga3       1.0  0.00420  0.33600  0.07450  1.0000
  Ga  Ga4       1.0  0.12900  0.12900  0.25000  1.0000
  Ga  Ga5       1.0  0.54700  0.33700  0.25000  1.0000
  Ga  Ga6       1.0  0.33700  0.54700  0.25000  1.0000
  Ga  Ga7       1.0  0.33600  0.00420  0.42600  1.0000
  Ga  Ga8       1.0  0.00420  0.33600  0.42600  1.0000
  Ga  Ga9       1.0  0.66500  0.66500  0.44200  1.0000
  Ga  Ga10      1.0  0.33500  0.33500  0.55800  1.0000
  Ga  Ga11      1.0  0.99600  0.66400  0.57400  1.0000
  Ga  Ga12      1.0  0.66400  0.99600  0.57400  1.0000
  Ga  Ga13      1.0  0.66300  0.45300  0.75000  1.0000
  Ga  Ga14      1.0  0.45300  0.66300  0.75000  1.0000
  Ga  Ga15      1.0  0.87100  0.87100  0.75000  1.0000
  Ga  Ga16      1.0  0.99600  0.66400  0.92600  1.0000
  Ga  Ga17      1.0  0.66400  0.99600  0.92600  1.0000
  Ga  Ga18      1.0  0.33500  0.33500  0.94200  1.0000
  Rh  Rh1       1.0  0.00000  0.00000  0.00000  1.0000
  Rh  Rh2       1.0  0.67200  0.32800  0.00000  1.0000
  Rh  Rh3       1.0  0.32800  0.67200  0.00000  1.0000
  Rh  Rh4       1.0  0.00000  0.00000  0.50000  1.0000
  Rh  Rh5       1.0  0.67200  0.32800  0.50000  1.0000
  Rh  Rh6       1.0  0.32800  0.67200  0.50000  1.0000
