data_image0
_chemical_formula_structural       Br16Co4Rb8
_chemical_formula_sum              "Br16 Co4 Rb8"
_cell_length_a       9.83731
_cell_length_b       13.4894
_cell_length_c       7.6626
_cell_angle_alpha    90
_cell_angle_beta     90
_cell_angle_gamma    90

_space_group_name_H-M_alt    "P 1"
_space_group_IT_number       1

loop_
  _space_group_symop_operation_xyz
  'x, y, z'

loop_
  _atom_site_type_symbol
  _atom_site_label
  _atom_site_symmetry_multiplicity
  _atom_site_fract_x
  _atom_site_fract_y
  _atom_site_fract_z
  _atom_site_occupancy
  Br  Br1       1.0  0.31600  0.65800  0.00329  1.0000
  Br  Br2       1.0  0.81600  0.84200  0.00329  1.0000
  Br  Br3       1.0  0.51700  0.08850  0.25000  1.0000
  Br  Br4       1.0  0.01660  0.41200  0.25000  1.0000
  Br  Br5       1.0  0.67800  0.58600  0.25000  1.0000
  Br  Br6       1.0  0.17800  0.91400  0.25000  1.0000
  Br  Br7       1.0  0.31600  0.65800  0.49700  1.0000
  Br  Br8       1.0  0.81600  0.84200  0.49700  1.0000
  Br  Br9       1.0  0.18400  0.15800  0.50300  1.0000
  Br  Br10      1.0  0.68400  0.34200  0.50300  1.0000
  Br  Br11      1.0  0.82200  0.08640  0.75000  1.0000
  Br  Br12      1.0  0.32200  0.41400  0.75000  1.0000
  Br  Br13      1.0  0.98300  0.58800  0.75000  1.0000
  Br  Br14      1.0  0.48300  0.91200  0.75000  1.0000
  Br  Br15      1.0  0.18400  0.15800  0.99700  1.0000
  Br  Br16      1.0  0.68400  0.34200  0.99700  1.0000
  Co  Co1       1.0  0.27400  0.07780  0.25000  1.0000
  Co  Co2       1.0  0.77400  0.42200  0.25000  1.0000
  Co  Co3       1.0  0.22600  0.57800  0.75000  1.0000
  Co  Co4       1.0  0.72600  0.92200  0.75000  1.0000
  Rb  Rb1       1.0  0.87500  0.09070  0.25000  1.0000
  Rb  Rb2       1.0  0.37500  0.40900  0.25000  1.0000
  Rb  Rb3       1.0  0.01320  0.67000  0.25000  1.0000
  Rb  Rb4       1.0  0.51300  0.83000  0.25000  1.0000
  Rb  Rb5       1.0  0.48700  0.17000  0.75000  1.0000
  Rb  Rb6       1.0  0.98700  0.33000  0.75000  1.0000
  Rb  Rb7       1.0  0.62500  0.59100  0.75000  1.0000
  Rb  Rb8       1.0  0.12500  0.90900  0.75000  1.0000
