data_image0
_chemical_formula_structural       Cl2Pr6S16Si4
_chemical_formula_sum              "Cl2 Pr6 S16 Si4"
_cell_length_a       7.72142
_cell_length_b       8.75644
_cell_length_c       11.0178
_cell_angle_alpha    96.8144
_cell_angle_beta     90
_cell_angle_gamma    116.161

_space_group_name_H-M_alt    "P 1"
_space_group_IT_number       1

loop_
  _space_group_symop_operation_xyz
  'x, y, z'

loop_
  _atom_site_type_symbol
  _atom_site_label
  _atom_site_symmetry_multiplicity
  _atom_site_fract_x
  _atom_site_fract_y
  _atom_site_fract_z
  _atom_site_occupancy
  Cl  Cl1       1.0  0.00641  0.00000  0.25000  1.0000
  Cl  Cl2       1.0  0.99400  0.00000  0.75000  1.0000
  Pr  Pr1       1.0  0.07300  0.39100  0.18500  1.0000
  Pr  Pr2       1.0  0.37800  0.00000  0.25000  1.0000
  Pr  Pr3       1.0  0.68200  0.60900  0.31500  1.0000
  Pr  Pr4       1.0  0.31800  0.39100  0.68500  1.0000
  Pr  Pr5       1.0  0.62200  0.00000  0.75000  1.0000
  Pr  Pr6       1.0  0.92700  0.60900  0.81500  1.0000
  S   S1        1.0  0.72300  0.13100  0.04830  1.0000
  S   S2        1.0  0.85700  0.56900  0.08530  1.0000
  S   S3        1.0  0.39600  0.29300  0.14200  1.0000
  S   S4        1.0  0.44300  0.70600  0.16100  1.0000
  S   S5        1.0  0.73800  0.29400  0.33900  1.0000
  S   S6        1.0  0.10300  0.70700  0.35800  1.0000
  S   S7        1.0  0.28900  0.43100  0.41500  1.0000
  S   S8        1.0  0.59300  0.86900  0.45200  1.0000
  S   S9        1.0  0.40700  0.13100  0.54800  1.0000
  S   S10       1.0  0.71100  0.56900  0.58500  1.0000
  S   S11       1.0  0.89700  0.29300  0.64200  1.0000
  S   S12       1.0  0.26200  0.70600  0.66100  1.0000
  S   S13       1.0  0.55700  0.29400  0.83900  1.0000
  S   S14       1.0  0.60400  0.70700  0.85800  1.0000
  S   S15       1.0  0.14300  0.43100  0.91500  1.0000
  S   S16       1.0  0.27700  0.86900  0.95200  1.0000
  Si  Si1       1.0  0.62700  0.32000  0.02910  1.0000
  Si  Si2       1.0  0.30800  0.68000  0.47100  1.0000
  Si  Si3       1.0  0.69200  0.32000  0.52900  1.0000
  Si  Si4       1.0  0.37300  0.68000  0.97100  1.0000
