data_image0
_chemical_formula_structural       Ce12N4S12
_chemical_formula_sum              "Ce12 N4 S12"
_cell_length_a       12.254
_cell_length_b       4.14472
_cell_length_c       13.3007
_cell_angle_alpha    90
_cell_angle_beta     90
_cell_angle_gamma    90

_space_group_name_H-M_alt    "P 1"
_space_group_IT_number       1

loop_
  _space_group_symop_operation_xyz
  'x, y, z'

loop_
  _atom_site_type_symbol
  _atom_site_label
  _atom_site_symmetry_multiplicity
  _atom_site_fract_x
  _atom_site_fract_y
  _atom_site_fract_z
  _atom_site_occupancy
  Ce  Ce1       1.0  0.40600  0.75000  0.12500  1.0000
  Ce  Ce2       1.0  0.77100  0.75000  0.13000  1.0000
  Ce  Ce3       1.0  0.03560  0.25000  0.15100  1.0000
  Ce  Ce4       1.0  0.53600  0.25000  0.34900  1.0000
  Ce  Ce5       1.0  0.27100  0.75000  0.37000  1.0000
  Ce  Ce6       1.0  0.90600  0.75000  0.37500  1.0000
  Ce  Ce7       1.0  0.09360  0.25000  0.62500  1.0000
  Ce  Ce8       1.0  0.72900  0.25000  0.63000  1.0000
  Ce  Ce9       1.0  0.46400  0.75000  0.65100  1.0000
  Ce  Ce10      1.0  0.96400  0.75000  0.84900  1.0000
  Ce  Ce11      1.0  0.22900  0.25000  0.87000  1.0000
  Ce  Ce12      1.0  0.59400  0.25000  0.87500  1.0000
  N   N1        1.0  0.94800  0.75000  0.20200  1.0000
  N   N2        1.0  0.44800  0.75000  0.29800  1.0000
  N   N3        1.0  0.55200  0.25000  0.70200  1.0000
  N   N4        1.0  0.05240  0.25000  0.79800  1.0000
  S   S1        1.0  0.14600  0.75000  0.00123  1.0000
  S   S2        1.0  0.57400  0.25000  0.10700  1.0000
  S   S3        1.0  0.26500  0.25000  0.20400  1.0000
  S   S4        1.0  0.76500  0.25000  0.29600  1.0000
  S   S5        1.0  0.07400  0.25000  0.39300  1.0000
  S   S6        1.0  0.64600  0.75000  0.49900  1.0000
  S   S7        1.0  0.35400  0.25000  0.50100  1.0000
  S   S8        1.0  0.92600  0.75000  0.60700  1.0000
  S   S9        1.0  0.23500  0.75000  0.70400  1.0000
  S   S10       1.0  0.73500  0.75000  0.79600  1.0000
  S   S11       1.0  0.42600  0.75000  0.89300  1.0000
  S   S12       1.0  0.85400  0.25000  0.99900  1.0000
