data_image0
_chemical_formula_structural       Al6OSi8Sr13
_chemical_formula_sum              "Al6 O1 Si8 Sr13"
_cell_length_a       4.82757
_cell_length_b       11.6883
_cell_length_c       14.5885
_cell_angle_alpha    93.101
_cell_angle_beta     99.5238
_cell_angle_gamma    101.918

_space_group_name_H-M_alt    "P 1"
_space_group_IT_number       1

loop_
  _space_group_symop_operation_xyz
  'x, y, z'

loop_
  _atom_site_type_symbol
  _atom_site_label
  _atom_site_symmetry_multiplicity
  _atom_site_fract_x
  _atom_site_fract_y
  _atom_site_fract_z
  _atom_site_occupancy
  Al  Al1       1.0  0.48300  0.91400  0.05250  1.0000
  Al  Al2       1.0  0.75700  0.32300  0.19100  1.0000
  Al  Al3       1.0  0.72200  0.15000  0.29500  1.0000
  Al  Al4       1.0  0.27800  0.85000  0.70500  1.0000
  Al  Al5       1.0  0.24300  0.67700  0.80900  1.0000
  Al  Al6       1.0  0.51700  0.08620  0.94700  1.0000
  O   O1        1.0  0.50000  0.50000  0.50000  1.0000
  Si  Si1       1.0  0.65500  0.29500  0.01620  1.0000
  Si  Si2       1.0  0.58400  0.93900  0.22900  1.0000
  Si  Si3       1.0  0.89700  0.52700  0.26600  1.0000
  Si  Si4       1.0  0.83300  0.20000  0.46600  1.0000
  Si  Si5       1.0  0.16700  0.80000  0.53400  1.0000
  Si  Si6       1.0  0.10300  0.47300  0.73400  1.0000
  Si  Si7       1.0  0.41600  0.06150  0.77100  1.0000
  Si  Si8       1.0  0.34500  0.70500  0.98400  1.0000
  Sr  Sr1       1.0  0.29300  0.47800  0.10800  1.0000
  Sr  Sr2       1.0  0.11900  0.11800  0.12100  1.0000
  Sr  Sr3       1.0  0.95300  0.75900  0.14800  1.0000
  Sr  Sr4       1.0  0.35700  0.35400  0.35900  1.0000
  Sr  Sr5       1.0  0.53700  0.69200  0.38300  1.0000
  Sr  Sr6       1.0  0.19700  0.00316  0.39100  1.0000
  Sr  Sr7       1.0  0.00000  0.50000  0.50000  1.0000
  Sr  Sr8       1.0  0.80300  0.99700  0.60900  1.0000
  Sr  Sr9       1.0  0.46300  0.30800  0.61700  1.0000
  Sr  Sr10      1.0  0.64300  0.64600  0.64100  1.0000
  Sr  Sr11      1.0  0.04680  0.24100  0.85200  1.0000
  Sr  Sr12      1.0  0.88100  0.88200  0.87900  1.0000
  Sr  Sr13      1.0  0.70700  0.52200  0.89200  1.0000
