data_image0
_chemical_formula_structural       Ba4K4Nb4S16
_chemical_formula_sum              "Ba4 K4 Nb4 S16"
_cell_length_a       9.28946
_cell_length_b       7.03697
_cell_length_c       12.6652
_cell_angle_alpha    90
_cell_angle_beta     90
_cell_angle_gamma    90

_space_group_name_H-M_alt    "P 1"
_space_group_IT_number       1

loop_
  _space_group_symop_operation_xyz
  'x, y, z'

loop_
  _atom_site_type_symbol
  _atom_site_label
  _atom_site_symmetry_multiplicity
  _atom_site_fract_x
  _atom_site_fract_y
  _atom_site_fract_z
  _atom_site_occupancy
  Ba  Ba1       1.0  0.52100  0.75000  0.17400  1.0000
  Ba  Ba2       1.0  0.02100  0.75000  0.32600  1.0000
  Ba  Ba3       1.0  0.97900  0.25000  0.67400  1.0000
  Ba  Ba4       1.0  0.47900  0.25000  0.82600  1.0000
  K   K1        1.0  0.13700  0.25000  0.08540  1.0000
  K   K2        1.0  0.63700  0.25000  0.41500  1.0000
  K   K3        1.0  0.36300  0.75000  0.58500  1.0000
  K   K4        1.0  0.86300  0.75000  0.91500  1.0000
  Nb  Nb1       1.0  0.73100  0.25000  0.07800  1.0000
  Nb  Nb2       1.0  0.23100  0.25000  0.42200  1.0000
  Nb  Nb3       1.0  0.76900  0.75000  0.57800  1.0000
  Nb  Nb4       1.0  0.26900  0.75000  0.92200  1.0000
  S   S1        1.0  0.48400  0.25000  0.08440  1.0000
  S   S2        1.0  0.19200  0.75000  0.09370  1.0000
  S   S3        1.0  0.82000  0.51000  0.16100  1.0000
  S   S4        1.0  0.82000  0.99000  0.16100  1.0000
  S   S5        1.0  0.32000  0.51000  0.33900  1.0000
  S   S6        1.0  0.32000  0.99000  0.33900  1.0000
  S   S7        1.0  0.69200  0.75000  0.40600  1.0000
  S   S8        1.0  0.98400  0.25000  0.41600  1.0000
  S   S9        1.0  0.01560  0.75000  0.58400  1.0000
  S   S10       1.0  0.30800  0.25000  0.59400  1.0000
  S   S11       1.0  0.68000  0.01010  0.66100  1.0000
  S   S12       1.0  0.68000  0.49000  0.66100  1.0000
  S   S13       1.0  0.18000  0.01010  0.83900  1.0000
  S   S14       1.0  0.18000  0.49000  0.83900  1.0000
  S   S15       1.0  0.80800  0.25000  0.90600  1.0000
  S   S16       1.0  0.51600  0.75000  0.91600  1.0000
