data_image0
_chemical_formula_structural       Al4Eu8Na4P12
_chemical_formula_sum              "Al4 Eu8 Na4 P12"
_cell_length_a       7.97801
_cell_length_b       7.97801
_cell_length_c       11.3948
_cell_angle_alpha    105.148
_cell_angle_beta     105.148
_cell_angle_gamma    67.8663

_space_group_name_H-M_alt    "P 1"
_space_group_IT_number       1

loop_
  _space_group_symop_operation_xyz
  'x, y, z'

loop_
  _atom_site_type_symbol
  _atom_site_label
  _atom_site_symmetry_multiplicity
  _atom_site_fract_x
  _atom_site_fract_y
  _atom_site_fract_z
  _atom_site_occupancy
  Al  Al1       1.0  0.16700  0.16700  0.23600  1.0000
  Al  Al2       1.0  0.03050  0.03050  0.38400  1.0000
  Al  Al3       1.0  0.96900  0.96900  0.61600  1.0000
  Al  Al4       1.0  0.83300  0.83300  0.76400  1.0000
  Eu  Eu1       1.0  0.75500  0.24500  0.00000  1.0000
  Eu  Eu2       1.0  0.24500  0.75500  0.00000  1.0000
  Eu  Eu3       1.0  0.58300  0.04220  0.18300  1.0000
  Eu  Eu4       1.0  0.04220  0.58300  0.18300  1.0000
  Eu  Eu5       1.0  0.50000  0.00000  0.50000  1.0000
  Eu  Eu6       1.0  0.00000  0.50000  0.50000  1.0000
  Eu  Eu7       1.0  0.95800  0.41700  0.81700  1.0000
  Eu  Eu8       1.0  0.41700  0.95800  0.81700  1.0000
  Na  Na1       1.0  0.52200  0.52200  0.26200  1.0000
  Na  Na2       1.0  0.69900  0.30100  0.50000  1.0000
  Na  Na3       1.0  0.30100  0.69900  0.50000  1.0000
  Na  Na4       1.0  0.47800  0.47800  0.73800  1.0000
  P   P1        1.0  0.34000  0.34000  0.00609  1.0000
  P   P2        1.0  0.17500  0.17500  0.02190  1.0000
  P   P3        1.0  0.85800  0.27100  0.27000  1.0000
  P   P4        1.0  0.27100  0.85800  0.27000  1.0000
  P   P5        1.0  0.34100  0.34100  0.37000  1.0000
  P   P6        1.0  0.85700  0.85700  0.39900  1.0000
  P   P7        1.0  0.14300  0.14300  0.60100  1.0000
  P   P8        1.0  0.65900  0.65900  0.63000  1.0000
  P   P9        1.0  0.72900  0.14200  0.73000  1.0000
  P   P10       1.0  0.14200  0.72900  0.73000  1.0000
  P   P11       1.0  0.82500  0.82500  0.97800  1.0000
  P   P12       1.0  0.66000  0.66000  0.99400  1.0000
