data_image0
_chemical_formula_structural       Ag8F4O12P4
_chemical_formula_sum              "Ag8 F4 O12 P4"
_cell_length_a       5.36723
_cell_length_b       5.36723
_cell_length_c       14.7158
_cell_angle_alpha    89.3883
_cell_angle_beta     89.3883
_cell_angle_gamma    62.1012

_space_group_name_H-M_alt    "P 1"
_space_group_IT_number       1

loop_
  _space_group_symop_operation_xyz
  'x, y, z'

loop_
  _atom_site_type_symbol
  _atom_site_label
  _atom_site_symmetry_multiplicity
  _atom_site_fract_x
  _atom_site_fract_y
  _atom_site_fract_z
  _atom_site_occupancy
  Ag  Ag1       1.0  0.00000  0.00000  0.00000  1.0000
  Ag  Ag2       1.0  0.60700  0.68900  0.16800  1.0000
  Ag  Ag3       1.0  0.97800  0.02250  0.25000  1.0000
  Ag  Ag4       1.0  0.31100  0.39300  0.33200  1.0000
  Ag  Ag5       1.0  0.00000  0.00000  0.50000  1.0000
  Ag  Ag6       1.0  0.68900  0.60700  0.66800  1.0000
  Ag  Ag7       1.0  0.02250  0.97800  0.75000  1.0000
  Ag  Ag8       1.0  0.39300  0.31100  0.83200  1.0000
  F   F1        1.0  0.42100  0.27900  0.02040  1.0000
  F   F2        1.0  0.72100  0.57900  0.48000  1.0000
  F   F3        1.0  0.27900  0.42100  0.52000  1.0000
  F   F4        1.0  0.57900  0.72100  0.98000  1.0000
  O   O1        1.0  0.01670  0.29900  0.11000  1.0000
  O   O2        1.0  0.18600  0.66900  0.13000  1.0000
  O   O3        1.0  0.49500  0.16100  0.18400  1.0000
  O   O4        1.0  0.83900  0.50500  0.31600  1.0000
  O   O5        1.0  0.33100  0.81400  0.37000  1.0000
  O   O6        1.0  0.70100  0.98300  0.39000  1.0000
  O   O7        1.0  0.29900  0.01670  0.61000  1.0000
  O   O8        1.0  0.66900  0.18600  0.63000  1.0000
  O   O9        1.0  0.16100  0.49500  0.68400  1.0000
  O   O10       1.0  0.50500  0.83900  0.81600  1.0000
  O   O11       1.0  0.81400  0.33100  0.87000  1.0000
  O   O12       1.0  0.98300  0.70100  0.89000  1.0000
  P   P1        1.0  0.26800  0.35700  0.11800  1.0000
  P   P2        1.0  0.64300  0.73200  0.38200  1.0000
  P   P3        1.0  0.35700  0.26800  0.61800  1.0000
  P   P4        1.0  0.73200  0.64300  0.88200  1.0000
