data_image0
_chemical_formula_structural       I2S16Si4Tb6
_chemical_formula_sum              "I2 S16 Si4 Tb6"
_cell_length_a       7.66712
_cell_length_b       8.7389
_cell_length_c       10.6782
_cell_angle_alpha    98.155
_cell_angle_beta     90
_cell_angle_gamma    116.02

_space_group_name_H-M_alt    "P 1"
_space_group_IT_number       1

loop_
  _space_group_symop_operation_xyz
  'x, y, z'

loop_
  _atom_site_type_symbol
  _atom_site_label
  _atom_site_symmetry_multiplicity
  _atom_site_fract_x
  _atom_site_fract_y
  _atom_site_fract_z
  _atom_site_occupancy
  I   I1        1.0  0.01830  0.00000  0.25000  1.0000
  I   I2        1.0  0.98200  0.00000  0.75000  1.0000
  S   S1        1.0  0.40400  0.13400  0.03460  1.0000
  S   S2        1.0  0.71500  0.56600  0.08700  1.0000
  S   S3        1.0  0.89600  0.28700  0.14600  1.0000
  S   S4        1.0  0.25500  0.70500  0.17100  1.0000
  S   S5        1.0  0.55000  0.29500  0.32900  1.0000
  S   S6        1.0  0.60900  0.71300  0.35400  1.0000
  S   S7        1.0  0.14900  0.43400  0.41300  1.0000
  S   S8        1.0  0.27000  0.86600  0.46500  1.0000
  S   S9        1.0  0.73000  0.13400  0.53500  1.0000
  S   S10       1.0  0.85100  0.56600  0.58700  1.0000
  S   S11       1.0  0.39100  0.28700  0.64600  1.0000
  S   S12       1.0  0.45000  0.70500  0.67100  1.0000
  S   S13       1.0  0.74500  0.29500  0.82900  1.0000
  S   S14       1.0  0.10400  0.71300  0.85400  1.0000
  S   S15       1.0  0.28500  0.43400  0.91300  1.0000
  S   S16       1.0  0.59600  0.86600  0.96500  1.0000
  Si  Si1       1.0  0.69600  0.31600  0.02520  1.0000
  Si  Si2       1.0  0.38000  0.68400  0.47500  1.0000
  Si  Si3       1.0  0.62000  0.31600  0.52500  1.0000
  Si  Si4       1.0  0.30400  0.68400  0.97500  1.0000
  Tb  Tb1       1.0  0.32700  0.40300  0.18100  1.0000
  Tb  Tb2       1.0  0.61200  0.00000  0.25000  1.0000
  Tb  Tb3       1.0  0.92400  0.59700  0.31900  1.0000
  Tb  Tb4       1.0  0.07580  0.40300  0.68100  1.0000
  Tb  Tb5       1.0  0.38800  0.00000  0.75000  1.0000
  Tb  Tb6       1.0  0.67300  0.59700  0.81900  1.0000
