data_image0
_chemical_formula_structural       Ca2Cu18Sn8
_chemical_formula_sum              "Ca2 Cu18 Sn8"
_cell_length_a       8.64478
_cell_length_b       8.64478
_cell_length_c       8.71183
_cell_angle_alpha    119.746
_cell_angle_beta     119.746
_cell_angle_gamma    90

_space_group_name_H-M_alt    "P 1"
_space_group_IT_number       1

loop_
  _space_group_symop_operation_xyz
  'x, y, z'

loop_
  _atom_site_type_symbol
  _atom_site_label
  _atom_site_symmetry_multiplicity
  _atom_site_fract_x
  _atom_site_fract_y
  _atom_site_fract_z
  _atom_site_occupancy
  Ca  Ca1       1.0  0.25000  0.25000  0.50000  1.0000
  Ca  Ca2       1.0  0.75000  0.75000  0.50000  1.0000
  Cu  Cu1       1.0  0.50000  0.00000  0.00000  1.0000
  Cu  Cu2       1.0  0.20100  0.05470  0.00000  1.0000
  Cu  Cu3       1.0  0.94500  0.20100  0.00000  1.0000
  Cu  Cu4       1.0  0.44500  0.29900  0.00000  1.0000
  Cu  Cu5       1.0  0.70100  0.44500  0.00000  1.0000
  Cu  Cu6       1.0  0.00000  0.50000  0.00000  1.0000
  Cu  Cu7       1.0  0.29900  0.55500  0.00000  1.0000
  Cu  Cu8       1.0  0.55500  0.70100  0.00000  1.0000
  Cu  Cu9       1.0  0.05470  0.79900  0.00000  1.0000
  Cu  Cu10      1.0  0.79900  0.94500  0.00000  1.0000
  Cu  Cu11      1.0  0.78200  0.06610  0.34800  1.0000
  Cu  Cu12      1.0  0.56600  0.28200  0.34800  1.0000
  Cu  Cu13      1.0  0.06610  0.56600  0.34800  1.0000
  Cu  Cu14      1.0  0.28200  0.78200  0.34800  1.0000
  Cu  Cu15      1.0  0.71800  0.21800  0.65200  1.0000
  Cu  Cu16      1.0  0.93400  0.43400  0.65200  1.0000
  Cu  Cu17      1.0  0.43400  0.71800  0.65200  1.0000
  Cu  Cu18      1.0  0.21800  0.93400  0.65200  1.0000
  Sn  Sn1       1.0  0.81300  0.31300  0.25300  1.0000
  Sn  Sn2       1.0  0.31300  0.44000  0.25300  1.0000
  Sn  Sn3       1.0  0.94000  0.81300  0.25300  1.0000
  Sn  Sn4       1.0  0.44000  0.94000  0.25300  1.0000
  Sn  Sn5       1.0  0.56000  0.05950  0.74700  1.0000
  Sn  Sn6       1.0  0.05950  0.18700  0.74700  1.0000
  Sn  Sn7       1.0  0.68700  0.56000  0.74700  1.0000
  Sn  Sn8       1.0  0.18700  0.68700  0.74700  1.0000
