data_image0
_chemical_formula_structural       Al4Bi4Cl16Te4
_chemical_formula_sum              "Al4 Bi4 Cl16 Te4"
_cell_length_a       10.4999
_cell_length_b       10.4999
_cell_length_c       10.4999
_cell_angle_alpha    113.191
_cell_angle_beta     107.644
_cell_angle_gamma    107.644

_space_group_name_H-M_alt    "P 1"
_space_group_IT_number       1

loop_
  _space_group_symop_operation_xyz
  'x, y, z'

loop_
  _atom_site_type_symbol
  _atom_site_label
  _atom_site_symmetry_multiplicity
  _atom_site_fract_x
  _atom_site_fract_y
  _atom_site_fract_z
  _atom_site_occupancy
  Al  Al1       1.0  0.72700  0.01190  0.13700  1.0000
  Al  Al2       1.0  0.27300  0.41000  0.28500  1.0000
  Al  Al3       1.0  0.87500  0.86300  0.59000  1.0000
  Al  Al4       1.0  0.12500  0.71500  0.98800  1.0000
  Bi  Bi1       1.0  0.27900  0.06850  0.46300  1.0000
  Bi  Bi2       1.0  0.72100  0.18400  0.79000  1.0000
  Bi  Bi3       1.0  0.60600  0.53700  0.81600  1.0000
  Bi  Bi4       1.0  0.39400  0.21000  0.93100  1.0000
  Cl  Cl1       1.0  0.96100  0.78100  0.03820  1.0000
  Cl  Cl2       1.0  0.59000  0.77800  0.08720  1.0000
  Cl  Cl3       1.0  0.61100  0.15100  0.17100  1.0000
  Cl  Cl4       1.0  0.41000  0.49800  0.18800  1.0000
  Cl  Cl5       1.0  0.05830  0.40300  0.19300  1.0000
  Cl  Cl6       1.0  0.25800  0.18000  0.21900  1.0000
  Cl  Cl7       1.0  0.30900  0.81200  0.22200  1.0000
  Cl  Cl8       1.0  0.94200  0.13400  0.34500  1.0000
  Cl  Cl9       1.0  0.98100  0.82900  0.44000  1.0000
  Cl  Cl10      1.0  0.69100  0.91300  0.50200  1.0000
  Cl  Cl11      1.0  0.38900  0.56000  0.54000  1.0000
  Cl  Cl12      1.0  0.79000  0.65500  0.59700  1.0000
  Cl  Cl13      1.0  0.03920  0.07740  0.82000  1.0000
  Cl  Cl14      1.0  0.01950  0.46000  0.84900  1.0000
  Cl  Cl15      1.0  0.21000  0.80700  0.86600  1.0000
  Cl  Cl16      1.0  0.74200  0.96200  0.92300  1.0000
  Te  Te1       1.0  0.71300  0.44400  0.04640  1.0000
  Te  Te2       1.0  0.60200  0.26900  0.55600  1.0000
  Te  Te3       1.0  0.39800  0.95400  0.66700  1.0000
  Te  Te4       1.0  0.28700  0.33300  0.73100  1.0000
