data_image0
_chemical_formula_structural       Ba4K4P4Se16
_chemical_formula_sum              "Ba4 K4 P4 Se16"
_cell_length_a       12.4581
_cell_length_b       7.09189
_cell_length_c       10.4231
_cell_angle_alpha    90
_cell_angle_beta     90
_cell_angle_gamma    90

_space_group_name_H-M_alt    "P 1"
_space_group_IT_number       1

loop_
  _space_group_symop_operation_xyz
  'x, y, z'

loop_
  _atom_site_type_symbol
  _atom_site_label
  _atom_site_symmetry_multiplicity
  _atom_site_fract_x
  _atom_site_fract_y
  _atom_site_fract_z
  _atom_site_occupancy
  Ba  Ba1       1.0  0.85600  0.75000  0.11500  1.0000
  Ba  Ba2       1.0  0.35600  0.75000  0.38500  1.0000
  Ba  Ba3       1.0  0.64400  0.25000  0.61500  1.0000
  Ba  Ba4       1.0  0.14400  0.25000  0.88500  1.0000
  K   K1        1.0  0.62700  0.25000  0.16700  1.0000
  K   K2        1.0  0.12700  0.25000  0.33300  1.0000
  K   K3        1.0  0.87300  0.75000  0.66700  1.0000
  K   K4        1.0  0.37300  0.75000  0.83300  1.0000
  P   P1        1.0  0.17900  0.75000  0.10500  1.0000
  P   P2        1.0  0.67900  0.75000  0.39500  1.0000
  P   P3        1.0  0.32100  0.25000  0.60500  1.0000
  P   P4        1.0  0.82100  0.25000  0.89500  1.0000
  Se  Se1       1.0  0.91900  0.25000  0.07480  1.0000
  Se  Se2       1.0  0.28400  0.00327  0.10800  1.0000
  Se  Se3       1.0  0.28400  0.49700  0.10800  1.0000
  Se  Se4       1.0  0.58100  0.75000  0.21600  1.0000
  Se  Se5       1.0  0.08150  0.75000  0.28400  1.0000
  Se  Se6       1.0  0.78400  0.00327  0.39200  1.0000
  Se  Se7       1.0  0.78400  0.49700  0.39200  1.0000
  Se  Se8       1.0  0.41900  0.25000  0.42500  1.0000
  Se  Se9       1.0  0.58100  0.75000  0.57500  1.0000
  Se  Se10      1.0  0.21600  0.50300  0.60800  1.0000
  Se  Se11      1.0  0.21600  0.99700  0.60800  1.0000
  Se  Se12      1.0  0.91900  0.25000  0.71600  1.0000
  Se  Se13      1.0  0.41900  0.25000  0.78400  1.0000
  Se  Se14      1.0  0.71600  0.50300  0.89200  1.0000
  Se  Se15      1.0  0.71600  0.99700  0.89200  1.0000
  Se  Se16      1.0  0.08090  0.75000  0.92500  1.0000
