data_image0
_chemical_formula_structural       F4Mo4O16Y4
_chemical_formula_sum              "F4 Mo4 O16 Y4"
_cell_length_a       5.16707
_cell_length_b       12.2309
_cell_length_c       6.63013
_cell_angle_alpha    90.0029
_cell_angle_beta     113.198
_cell_angle_gamma    89.9985

_space_group_name_H-M_alt    "P 1"
_space_group_IT_number       1

loop_
  _space_group_symop_operation_xyz
  'x, y, z'

loop_
  _atom_site_type_symbol
  _atom_site_label
  _atom_site_symmetry_multiplicity
  _atom_site_fract_x
  _atom_site_fract_y
  _atom_site_fract_z
  _atom_site_occupancy
  F   F1        1.0  0.45000  0.10100  0.03620  1.0000
  F   F2        1.0  0.55000  0.60100  0.46400  1.0000
  F   F3        1.0  0.45000  0.39900  0.53600  1.0000
  F   F4        1.0  0.55000  0.89900  0.96400  1.0000
  Mo  Mo1       1.0  0.07690  0.64400  0.12900  1.0000
  Mo  Mo2       1.0  0.92300  0.14400  0.37100  1.0000
  Mo  Mo3       1.0  0.07690  0.85600  0.62900  1.0000
  Mo  Mo4       1.0  0.92300  0.35600  0.87100  1.0000
  O   O1        1.0  0.30800  0.56500  0.03640  1.0000
  O   O2        1.0  0.24300  0.34300  0.09660  1.0000
  O   O3        1.0  0.99700  0.06970  0.16100  1.0000
  O   O4        1.0  0.19400  0.77900  0.21000  1.0000
  O   O5        1.0  0.80600  0.27900  0.29100  1.0000
  O   O6        1.0  0.00248  0.57000  0.33900  1.0000
  O   O7        1.0  0.75700  0.84300  0.40300  1.0000
  O   O8        1.0  0.69200  0.06450  0.46400  1.0000
  O   O9        1.0  0.30800  0.93500  0.53700  1.0000
  O   O10       1.0  0.24300  0.15700  0.59700  1.0000
  O   O11       1.0  0.99700  0.43000  0.66100  1.0000
  O   O12       1.0  0.19300  0.72100  0.70900  1.0000
  O   O13       1.0  0.80700  0.22100  0.79000  1.0000
  O   O14       1.0  0.00257  0.93000  0.83900  1.0000
  O   O15       1.0  0.75700  0.65700  0.90300  1.0000
  O   O16       1.0  0.69200  0.43500  0.96400  1.0000
  Y   Y1        1.0  0.36200  0.94900  0.20000  1.0000
  Y   Y2        1.0  0.63800  0.44900  0.30000  1.0000
  Y   Y3        1.0  0.36200  0.55100  0.70000  1.0000
  Y   Y4        1.0  0.63800  0.05100  0.80000  1.0000
