data_image0
_chemical_formula_structural       Nb4P2Rb2S20
_chemical_formula_sum              "Nb4 P2 Rb2 S20"
_cell_length_a       7.23352
_cell_length_b       7.66743
_cell_length_c       12.8816
_cell_angle_alpha    90
_cell_angle_beta     104.592
_cell_angle_gamma    90

_space_group_name_H-M_alt    "P 1"
_space_group_IT_number       1

loop_
  _space_group_symop_operation_xyz
  'x, y, z'

loop_
  _atom_site_type_symbol
  _atom_site_label
  _atom_site_symmetry_multiplicity
  _atom_site_fract_x
  _atom_site_fract_y
  _atom_site_fract_z
  _atom_site_occupancy
  Nb  Nb1       1.0  0.15700  0.43900  0.02680  1.0000
  Nb  Nb2       1.0  0.45200  0.43800  0.31500  1.0000
  Nb  Nb3       1.0  0.65700  0.56100  0.52700  1.0000
  Nb  Nb4       1.0  0.95200  0.56200  0.81500  1.0000
  P   P1        1.0  0.18500  0.10100  0.19900  1.0000
  P   P2        1.0  0.68500  0.89900  0.69900  1.0000
  Rb  Rb1       1.0  0.63200  0.00726  0.04170  1.0000
  Rb  Rb2       1.0  0.13200  0.99300  0.54200  1.0000
  S   S1        1.0  0.16500  0.09810  0.03570  1.0000
  S   S2        1.0  0.51600  0.45200  0.12900  1.0000
  S   S3        1.0  0.35700  0.65900  0.16000  1.0000
  S   S4        1.0  0.09330  0.35700  0.21600  1.0000
  S   S5        1.0  0.03120  0.91500  0.24500  1.0000
  S   S6        1.0  0.46400  0.10500  0.28900  1.0000
  S   S7        1.0  0.74900  0.62800  0.35600  1.0000
  S   S8        1.0  0.79400  0.37500  0.40200  1.0000
  S   S9        1.0  0.30400  0.61400  0.43700  1.0000
  S   S10       1.0  0.37200  0.36600  0.49300  1.0000
  S   S11       1.0  0.66500  0.90200  0.53600  1.0000
  S   S12       1.0  0.01560  0.54800  0.62900  1.0000
  S   S13       1.0  0.85700  0.34100  0.66000  1.0000
  S   S14       1.0  0.59300  0.64300  0.71600  1.0000
  S   S15       1.0  0.53100  0.08480  0.74500  1.0000
  S   S16       1.0  0.96400  0.89500  0.78900  1.0000
  S   S17       1.0  0.24900  0.37200  0.85600  1.0000
  S   S18       1.0  0.29400  0.62500  0.90200  1.0000
  S   S19       1.0  0.80400  0.38600  0.93700  1.0000
  S   S20       1.0  0.87200  0.63400  0.99300  1.0000
