data_image0
_chemical_formula_structural       La4Rb4S16Si4
_chemical_formula_sum              "La4 Rb4 S16 Si4"
_cell_length_a       17.4253
_cell_length_b       6.65745
_cell_length_c       6.56674
_cell_angle_alpha    90
_cell_angle_beta     90
_cell_angle_gamma    90

_space_group_name_H-M_alt    "P 1"
_space_group_IT_number       1

loop_
  _space_group_symop_operation_xyz
  'x, y, z'

loop_
  _atom_site_type_symbol
  _atom_site_label
  _atom_site_symmetry_multiplicity
  _atom_site_fract_x
  _atom_site_fract_y
  _atom_site_fract_z
  _atom_site_occupancy
  La  La1       1.0  0.02430  0.75000  0.21100  1.0000
  La  La2       1.0  0.52400  0.75000  0.28900  1.0000
  La  La3       1.0  0.47600  0.25000  0.71100  1.0000
  La  La4       1.0  0.97600  0.25000  0.78900  1.0000
  Rb  Rb1       1.0  0.28400  0.75000  0.02010  1.0000
  Rb  Rb2       1.0  0.78400  0.75000  0.48000  1.0000
  Rb  Rb3       1.0  0.21600  0.25000  0.52000  1.0000
  Rb  Rb4       1.0  0.71600  0.25000  0.98000  1.0000
  S   S1        1.0  0.66300  0.75000  0.04260  1.0000
  S   S2        1.0  0.89100  0.50200  0.09000  1.0000
  S   S3        1.0  0.89100  0.99800  0.09000  1.0000
  S   S4        1.0  0.52900  0.25000  0.13300  1.0000
  S   S5        1.0  0.02870  0.25000  0.36700  1.0000
  S   S6        1.0  0.39100  0.50200  0.41000  1.0000
  S   S7        1.0  0.39100  0.99800  0.41000  1.0000
  S   S8        1.0  0.16300  0.75000  0.45700  1.0000
  S   S9        1.0  0.83700  0.25000  0.54300  1.0000
  S   S10       1.0  0.60900  0.00166  0.59000  1.0000
  S   S11       1.0  0.60900  0.49800  0.59000  1.0000
  S   S12       1.0  0.97100  0.75000  0.63300  1.0000
  S   S13       1.0  0.47100  0.75000  0.86700  1.0000
  S   S14       1.0  0.10900  0.00166  0.91000  1.0000
  S   S15       1.0  0.10900  0.49800  0.91000  1.0000
  S   S16       1.0  0.33700  0.25000  0.95700  1.0000
  Si  Si1       1.0  0.41000  0.25000  0.21400  1.0000
  Si  Si2       1.0  0.91000  0.25000  0.28600  1.0000
  Si  Si3       1.0  0.09020  0.75000  0.71400  1.0000
  Si  Si4       1.0  0.59000  0.75000  0.78600  1.0000
