data_image0
_chemical_formula_structural       Cs4Dy4S16Si4
_chemical_formula_sum              "Cs4 Dy4 S16 Si4"
_cell_length_a       6.37282
_cell_length_b       6.71205
_cell_length_c       17.8456
_cell_angle_alpha    90
_cell_angle_beta     90
_cell_angle_gamma    90

_space_group_name_H-M_alt    "P 1"
_space_group_IT_number       1

loop_
  _space_group_symop_operation_xyz
  'x, y, z'

loop_
  _atom_site_type_symbol
  _atom_site_label
  _atom_site_symmetry_multiplicity
  _atom_site_fract_x
  _atom_site_fract_y
  _atom_site_fract_z
  _atom_site_occupancy
  Cs  Cs1       1.0  0.00053  0.00753  0.03210  1.0000
  Cs  Cs2       1.0  0.99900  0.50800  0.46800  1.0000
  Cs  Cs3       1.0  0.49900  0.99200  0.53200  1.0000
  Cs  Cs4       1.0  0.50100  0.49200  0.96800  1.0000
  Dy  Dy1       1.0  0.29200  0.47900  0.22900  1.0000
  Dy  Dy2       1.0  0.70800  0.97900  0.27100  1.0000
  Dy  Dy3       1.0  0.20800  0.52100  0.72900  1.0000
  Dy  Dy4       1.0  0.79200  0.02100  0.77100  1.0000
  S   S1        1.0  0.05480  0.51300  0.09700  1.0000
  S   S2        1.0  0.56600  0.74800  0.14700  1.0000
  S   S3        1.0  0.60400  0.25200  0.15700  1.0000
  S   S4        1.0  0.10600  0.07710  0.22000  1.0000
  S   S5        1.0  0.89400  0.57700  0.28000  1.0000
  S   S6        1.0  0.39600  0.75200  0.34300  1.0000
  S   S7        1.0  0.43400  0.24800  0.35300  1.0000
  S   S8        1.0  0.94500  0.01270  0.40300  1.0000
  S   S9        1.0  0.44500  0.48700  0.59700  1.0000
  S   S10       1.0  0.93400  0.25200  0.64700  1.0000
  S   S11       1.0  0.89600  0.74800  0.65700  1.0000
  S   S12       1.0  0.39400  0.92300  0.72000  1.0000
  S   S13       1.0  0.60600  0.42300  0.78000  1.0000
  S   S14       1.0  0.10400  0.24800  0.84300  1.0000
  S   S15       1.0  0.06580  0.75200  0.85300  1.0000
  S   S16       1.0  0.55500  0.98700  0.90300  1.0000
  Si  Si1       1.0  0.79000  0.51800  0.16800  1.0000
  Si  Si2       1.0  0.21000  0.01760  0.33200  1.0000
  Si  Si3       1.0  0.71000  0.48200  0.66800  1.0000
  Si  Si4       1.0  0.29000  0.98200  0.83200  1.0000
