data_image0
_chemical_formula_structural       Ag14S12Ta2
_chemical_formula_sum              "Ag14 S12 Ta2"
_cell_length_a       7.86385
_cell_length_b       7.31181
_cell_length_c       10.6656
_cell_angle_alpha    90
_cell_angle_beta     89.3859
_cell_angle_gamma    90

_space_group_name_H-M_alt    "P 1"
_space_group_IT_number       1

loop_
  _space_group_symop_operation_xyz
  'x, y, z'

loop_
  _atom_site_type_symbol
  _atom_site_label
  _atom_site_symmetry_multiplicity
  _atom_site_fract_x
  _atom_site_fract_y
  _atom_site_fract_z
  _atom_site_occupancy
  Ag  Ag1       1.0  0.98300  0.29300  0.03040  1.0000
  Ag  Ag2       1.0  0.30000  0.37300  0.16100  1.0000
  Ag  Ag3       1.0  0.73300  0.07860  0.19800  1.0000
  Ag  Ag4       1.0  0.80600  0.48100  0.24300  1.0000
  Ag  Ag5       1.0  0.04210  0.84500  0.29700  1.0000
  Ag  Ag6       1.0  0.05990  0.46100  0.43500  1.0000
  Ag  Ag7       1.0  0.78300  0.96500  0.49000  1.0000
  Ag  Ag8       1.0  0.48300  0.70700  0.53000  1.0000
  Ag  Ag9       1.0  0.80000  0.62700  0.66100  1.0000
  Ag  Ag10      1.0  0.23300  0.92100  0.69800  1.0000
  Ag  Ag11      1.0  0.30600  0.51900  0.74300  1.0000
  Ag  Ag12      1.0  0.54200  0.15500  0.79700  1.0000
  Ag  Ag13      1.0  0.56000  0.53900  0.93500  1.0000
  Ag  Ag14      1.0  0.28300  0.03470  0.99000  1.0000
  S   S1        1.0  0.53600  0.23000  0.02810  1.0000
  S   S2        1.0  0.74000  0.74700  0.10300  1.0000
  S   S3        1.0  0.23900  0.73800  0.12300  1.0000
  S   S4        1.0  0.02610  0.22800  0.26400  1.0000
  S   S5        1.0  0.50400  0.48500  0.35200  1.0000
  S   S6        1.0  0.50000  0.99300  0.37400  1.0000
  S   S7        1.0  0.03570  0.77000  0.52800  1.0000
  S   S8        1.0  0.24000  0.25300  0.60300  1.0000
  S   S9        1.0  0.73900  0.26200  0.62300  1.0000
  S   S10       1.0  0.52600  0.77200  0.76400  1.0000
  S   S11       1.0  0.00384  0.51500  0.85200  1.0000
  S   S12       1.0  0.00039  0.00739  0.87400  1.0000
  Ta  Ta1       1.0  0.50000  0.25200  0.49800  1.0000
  Ta  Ta2       1.0  0.00000  0.74800  0.99800  1.0000
