data_image0
_chemical_formula_structural       C6Co2H6K2O12
_chemical_formula_sum              "C6 Co2 H6 K2 O12"
_cell_length_a       6.90032
_cell_length_b       6.90032
_cell_length_c       8.48004
_cell_angle_alpha    89.9998
_cell_angle_beta     90.0002
_cell_angle_gamma    120

_space_group_name_H-M_alt    "P 1"
_space_group_IT_number       1

loop_
  _space_group_symop_operation_xyz
  'x, y, z'

loop_
  _atom_site_type_symbol
  _atom_site_label
  _atom_site_symmetry_multiplicity
  _atom_site_fract_x
  _atom_site_fract_y
  _atom_site_fract_z
  _atom_site_occupancy
  C   C1        1.0  0.43700  0.00000  0.00000  1.0000
  C   C2        1.0  0.56300  0.56300  0.00000  1.0000
  C   C3        1.0  0.00000  0.43700  0.00000  1.0000
  C   C4        1.0  0.00000  0.56300  0.50000  1.0000
  C   C5        1.0  0.43700  0.43700  0.50000  1.0000
  C   C6        1.0  0.56300  0.00000  0.50000  1.0000
  Co  Co1       1.0  0.66700  0.33300  0.25000  1.0000
  Co  Co2       1.0  0.33300  0.66700  0.75000  1.0000
  H   H1        1.0  0.00000  0.59700  0.00000  1.0000
  H   H2        1.0  0.40300  0.40300  0.00000  1.0000
  H   H3        1.0  0.59700  0.00000  0.00000  1.0000
  H   H4        1.0  0.40300  0.00000  0.50000  1.0000
  H   H5        1.0  0.59700  0.59700  0.50000  1.0000
  H   H6        1.0  0.00000  0.40300  0.50000  1.0000
  K   K1        1.0  0.00000  0.00000  0.25000  1.0000
  K   K2        1.0  0.00000  0.00000  0.75000  1.0000
  O   O1        1.0  0.90200  0.30100  0.11200  1.0000
  O   O2        1.0  0.39900  0.09810  0.11200  1.0000
  O   O3        1.0  0.69900  0.60100  0.11200  1.0000
  O   O4        1.0  0.69900  0.09820  0.38800  1.0000
  O   O5        1.0  0.90200  0.60100  0.38800  1.0000
  O   O6        1.0  0.39900  0.30100  0.38800  1.0000
  O   O7        1.0  0.30100  0.39900  0.61200  1.0000
  O   O8        1.0  0.60100  0.90200  0.61200  1.0000
  O   O9        1.0  0.09820  0.69900  0.61200  1.0000
  O   O10       1.0  0.60100  0.69900  0.88800  1.0000
  O   O11       1.0  0.09810  0.39900  0.88800  1.0000
  O   O12       1.0  0.30100  0.90200  0.88800  1.0000
