data_image0
_chemical_formula_structural       Br2Nd6S16Si4
_chemical_formula_sum              "Br2 Nd6 S16 Si4"
_cell_length_a       7.73855
_cell_length_b       8.77627
_cell_length_c       10.9302
_cell_angle_alpha    97.0608
_cell_angle_beta     90
_cell_angle_gamma    116.16

_space_group_name_H-M_alt    "P 1"
_space_group_IT_number       1

loop_
  _space_group_symop_operation_xyz
  'x, y, z'

loop_
  _atom_site_type_symbol
  _atom_site_label
  _atom_site_symmetry_multiplicity
  _atom_site_fract_x
  _atom_site_fract_y
  _atom_site_fract_z
  _atom_site_occupancy
  Br  Br1       1.0  0.00551  0.00000  0.25000  1.0000
  Br  Br2       1.0  0.99400  0.00000  0.75000  1.0000
  Nd  Nd1       1.0  0.32000  0.39400  0.18400  1.0000
  Nd  Nd2       1.0  0.61300  0.00000  0.25000  1.0000
  Nd  Nd3       1.0  0.92600  0.60600  0.31600  1.0000
  Nd  Nd4       1.0  0.07430  0.39400  0.68400  1.0000
  Nd  Nd5       1.0  0.38700  0.00000  0.75000  1.0000
  Nd  Nd6       1.0  0.68000  0.60600  0.81600  1.0000
  S   S1        1.0  0.40800  0.13200  0.04540  1.0000
  S   S2        1.0  0.71200  0.56800  0.08570  1.0000
  S   S3        1.0  0.89500  0.29000  0.14500  1.0000
  S   S4        1.0  0.25700  0.70400  0.16200  1.0000
  S   S5        1.0  0.55300  0.29600  0.33800  1.0000
  S   S6        1.0  0.60500  0.71000  0.35500  1.0000
  S   S7        1.0  0.14500  0.43200  0.41400  1.0000
  S   S8        1.0  0.27600  0.86800  0.45500  1.0000
  S   S9        1.0  0.72400  0.13200  0.54500  1.0000
  S   S10       1.0  0.85500  0.56800  0.58600  1.0000
  S   S11       1.0  0.39500  0.29000  0.64500  1.0000
  S   S12       1.0  0.44700  0.70400  0.66200  1.0000
  S   S13       1.0  0.74300  0.29600  0.83800  1.0000
  S   S14       1.0  0.10500  0.71000  0.85500  1.0000
  S   S15       1.0  0.28800  0.43200  0.91400  1.0000
  S   S16       1.0  0.59200  0.86800  0.95500  1.0000
  Si  Si1       1.0  0.69400  0.31900  0.02880  1.0000
  Si  Si2       1.0  0.37500  0.68100  0.47100  1.0000
  Si  Si3       1.0  0.62500  0.31900  0.52900  1.0000
  Si  Si4       1.0  0.30600  0.68100  0.97100  1.0000
