data_image0
_chemical_formula_structural       O16Rb8Ru4
_chemical_formula_sum              "O16 Rb8 Ru4"
_cell_length_a       8.06479
_cell_length_b       6.18183
_cell_length_c       10.9142
_cell_angle_alpha    90
_cell_angle_beta     90
_cell_angle_gamma    90

_space_group_name_H-M_alt    "P 1"
_space_group_IT_number       1

loop_
  _space_group_symop_operation_xyz
  'x, y, z'

loop_
  _atom_site_type_symbol
  _atom_site_label
  _atom_site_symmetry_multiplicity
  _atom_site_fract_x
  _atom_site_fract_y
  _atom_site_fract_z
  _atom_site_occupancy
  O   O1        1.0  0.19100  0.75000  0.07380  1.0000
  O   O2        1.0  0.49800  0.25000  0.07680  1.0000
  O   O3        1.0  0.80000  0.01380  0.15500  1.0000
  O   O4        1.0  0.80000  0.48600  0.15500  1.0000
  O   O5        1.0  0.30000  0.01380  0.34500  1.0000
  O   O6        1.0  0.30000  0.48600  0.34500  1.0000
  O   O7        1.0  0.99800  0.25000  0.42300  1.0000
  O   O8        1.0  0.69100  0.75000  0.42600  1.0000
  O   O9        1.0  0.30900  0.25000  0.57400  1.0000
  O   O10       1.0  0.00173  0.75000  0.57700  1.0000
  O   O11       1.0  0.70000  0.51400  0.65500  1.0000
  O   O12       1.0  0.70000  0.98600  0.65500  1.0000
  O   O13       1.0  0.20000  0.51400  0.84500  1.0000
  O   O14       1.0  0.20000  0.98600  0.84500  1.0000
  O   O15       1.0  0.50200  0.75000  0.92300  1.0000
  O   O16       1.0  0.80900  0.25000  0.92600  1.0000
  Rb  Rb1       1.0  0.15700  0.25000  0.08250  1.0000
  Rb  Rb2       1.0  0.50800  0.75000  0.20200  1.0000
  Rb  Rb3       1.0  0.00840  0.75000  0.29800  1.0000
  Rb  Rb4       1.0  0.65700  0.25000  0.41800  1.0000
  Rb  Rb5       1.0  0.34300  0.75000  0.58200  1.0000
  Rb  Rb6       1.0  0.99200  0.25000  0.70200  1.0000
  Rb  Rb7       1.0  0.49200  0.25000  0.79800  1.0000
  Rb  Rb8       1.0  0.84300  0.75000  0.91800  1.0000
  Ru  Ru1       1.0  0.72000  0.25000  0.07860  1.0000
  Ru  Ru2       1.0  0.22000  0.25000  0.42100  1.0000
  Ru  Ru3       1.0  0.78000  0.75000  0.57900  1.0000
  Ru  Ru4       1.0  0.28000  0.75000  0.92100  1.0000
