data_image0
_chemical_formula_structural       Cl4O16Pr4S4
_chemical_formula_sum              "Cl4 O16 Pr4 S4"
_cell_length_a       6.67354
_cell_length_b       8.04922
_cell_length_c       8.39968
_cell_angle_alpha    90
_cell_angle_beta     112.567
_cell_angle_gamma    90

_space_group_name_H-M_alt    "P 1"
_space_group_IT_number       1

loop_
  _space_group_symop_operation_xyz
  'x, y, z'

loop_
  _atom_site_type_symbol
  _atom_site_label
  _atom_site_symmetry_multiplicity
  _atom_site_fract_x
  _atom_site_fract_y
  _atom_site_fract_z
  _atom_site_occupancy
  Cl  Cl1       1.0  0.76300  0.03410  0.02740  1.0000
  Cl  Cl2       1.0  0.73700  0.53400  0.47300  1.0000
  Cl  Cl3       1.0  0.26300  0.46600  0.52700  1.0000
  Cl  Cl4       1.0  0.23700  0.96600  0.97300  1.0000
  O   O1        1.0  0.48600  0.31500  0.11500  1.0000
  O   O2        1.0  0.33000  0.59100  0.12200  1.0000
  O   O3        1.0  0.13200  0.34100  0.12800  1.0000
  O   O4        1.0  0.80800  0.58400  0.13000  1.0000
  O   O5        1.0  0.69200  0.08420  0.37000  1.0000
  O   O6        1.0  0.36800  0.84100  0.37200  1.0000
  O   O7        1.0  0.17000  0.09110  0.37800  1.0000
  O   O8        1.0  0.01370  0.81500  0.38500  1.0000
  O   O9        1.0  0.98600  0.18500  0.61500  1.0000
  O   O10       1.0  0.83000  0.90900  0.62200  1.0000
  O   O11       1.0  0.63200  0.15900  0.62800  1.0000
  O   O12       1.0  0.30800  0.91600  0.63000  1.0000
  O   O13       1.0  0.19200  0.41600  0.87000  1.0000
  O   O14       1.0  0.86800  0.65900  0.87200  1.0000
  O   O15       1.0  0.67000  0.40900  0.87800  1.0000
  O   O16       1.0  0.51400  0.68500  0.88500  1.0000
  Pr  Pr1       1.0  0.61000  0.80600  0.22400  1.0000
  Pr  Pr2       1.0  0.89000  0.30600  0.27600  1.0000
  Pr  Pr3       1.0  0.11000  0.69400  0.72400  1.0000
  Pr  Pr4       1.0  0.39000  0.19400  0.77600  1.0000
  S   S1        1.0  0.28500  0.41700  0.06560  1.0000
  S   S2        1.0  0.21500  0.91700  0.43400  1.0000
  S   S3        1.0  0.78500  0.08300  0.56600  1.0000
  S   S4        1.0  0.71500  0.58300  0.93400  1.0000
