data_image0
_chemical_formula_structural       Br2Pr6S16Si4
_chemical_formula_sum              "Br2 Pr6 S16 Si4"
_cell_length_a       7.79304
_cell_length_b       8.81436
_cell_length_c       10.9797
_cell_angle_alpha    96.8717
_cell_angle_beta     90
_cell_angle_gamma    116.236

_space_group_name_H-M_alt    "P 1"
_space_group_IT_number       1

loop_
  _space_group_symop_operation_xyz
  'x, y, z'

loop_
  _atom_site_type_symbol
  _atom_site_label
  _atom_site_symmetry_multiplicity
  _atom_site_fract_x
  _atom_site_fract_y
  _atom_site_fract_z
  _atom_site_occupancy
  Br  Br1       1.0  0.00522  0.00000  0.25000  1.0000
  Br  Br2       1.0  0.99500  0.00000  0.75000  1.0000
  Pr  Pr1       1.0  0.31800  0.39300  0.18400  1.0000
  Pr  Pr2       1.0  0.61100  0.00000  0.25000  1.0000
  Pr  Pr3       1.0  0.92600  0.60700  0.31600  1.0000
  Pr  Pr4       1.0  0.07420  0.39300  0.68400  1.0000
  Pr  Pr5       1.0  0.38900  0.00000  0.75000  1.0000
  Pr  Pr6       1.0  0.68200  0.60700  0.81600  1.0000
  S   S1        1.0  0.41000  0.13200  0.04670  1.0000
  S   S2        1.0  0.71200  0.56700  0.08540  1.0000
  S   S3        1.0  0.89400  0.29100  0.14500  1.0000
  S   S4        1.0  0.25700  0.70300  0.16100  1.0000
  S   S5        1.0  0.55400  0.29700  0.33900  1.0000
  S   S6        1.0  0.60300  0.70900  0.35500  1.0000
  S   S7        1.0  0.14500  0.43300  0.41500  1.0000
  S   S8        1.0  0.27800  0.86800  0.45300  1.0000
  S   S9        1.0  0.72200  0.13200  0.54700  1.0000
  S   S10       1.0  0.85500  0.56700  0.58500  1.0000
  S   S11       1.0  0.39700  0.29100  0.64500  1.0000
  S   S12       1.0  0.44600  0.70300  0.66100  1.0000
  S   S13       1.0  0.74300  0.29700  0.83900  1.0000
  S   S14       1.0  0.10600  0.70900  0.85500  1.0000
  S   S15       1.0  0.28800  0.43300  0.91500  1.0000
  S   S16       1.0  0.59000  0.86800  0.95300  1.0000
  Si  Si1       1.0  0.69400  0.32000  0.02940  1.0000
  Si  Si2       1.0  0.37500  0.68000  0.47100  1.0000
  Si  Si3       1.0  0.62500  0.32000  0.52900  1.0000
  Si  Si4       1.0  0.30600  0.68000  0.97100  1.0000
