data_image0
_chemical_formula_structural       Hg12I8Se8
_chemical_formula_sum              "Hg12 I8 Se8"
_cell_length_a       9.71734
_cell_length_b       10.9114
_cell_length_c       11.0708
_cell_angle_alpha    113.391
_cell_angle_beta     90
_cell_angle_gamma    116.441

_space_group_name_H-M_alt    "P 1"
_space_group_IT_number       1

loop_
  _space_group_symop_operation_xyz
  'x, y, z'

loop_
  _atom_site_type_symbol
  _atom_site_label
  _atom_site_symmetry_multiplicity
  _atom_site_fract_x
  _atom_site_fract_y
  _atom_site_fract_z
  _atom_site_occupancy
  Hg  Hg1       1.0  0.38800  0.24600  0.00017  1.0000
  Hg  Hg2       1.0  0.85800  0.24600  0.00017  1.0000
  Hg  Hg3       1.0  0.92000  0.83900  0.27000  1.0000
  Hg  Hg4       1.0  0.22100  0.44300  0.27400  1.0000
  Hg  Hg5       1.0  0.33500  0.15600  0.30600  1.0000
  Hg  Hg6       1.0  0.82000  0.15600  0.30600  1.0000
  Hg  Hg7       1.0  0.18000  0.84400  0.69400  1.0000
  Hg  Hg8       1.0  0.66500  0.84400  0.69400  1.0000
  Hg  Hg9       1.0  0.77900  0.55700  0.72600  1.0000
  Hg  Hg10      1.0  0.08040  0.16100  0.73000  1.0000
  Hg  Hg11      1.0  0.14200  0.75400  0.00000  1.0000
  Hg  Hg12      1.0  0.61200  0.75400  0.00000  1.0000
  I   I1        1.0  0.00000  0.00000  0.00000  1.0000
  I   I2        1.0  0.50000  0.00000  0.00000  1.0000
  I   I3        1.0  0.24900  0.49800  0.00165  1.0000
  I   I4        1.0  0.38400  0.76900  0.49300  1.0000
  I   I5        1.0  0.86900  0.73700  0.49900  1.0000
  I   I6        1.0  0.13100  0.26300  0.50100  1.0000
  I   I7        1.0  0.61600  0.23100  0.50700  1.0000
  I   I8        1.0  0.75100  0.50200  0.99800  1.0000
  Se  Se1       1.0  0.45800  0.39100  0.25800  1.0000
  Se  Se2       1.0  0.93400  0.39100  0.25800  1.0000
  Se  Se3       1.0  0.19600  0.87100  0.25800  1.0000
  Se  Se4       1.0  0.67400  0.87100  0.25800  1.0000
  Se  Se5       1.0  0.32600  0.12900  0.74200  1.0000
  Se  Se6       1.0  0.80400  0.12900  0.74200  1.0000
  Se  Se7       1.0  0.06640  0.60900  0.74200  1.0000
  Se  Se8       1.0  0.54200  0.60900  0.74200  1.0000
