data_image0
_chemical_formula_structural       Mo4N14Sr10
_chemical_formula_sum              "Mo4 N14 Sr10"
_cell_length_a       6.43111
_cell_length_b       9.22962
_cell_length_c       9.29673
_cell_angle_alpha    64.8214
_cell_angle_beta     82.9614
_cell_angle_gamma    89.7902

_space_group_name_H-M_alt    "P 1"
_space_group_IT_number       1

loop_
  _space_group_symop_operation_xyz
  'x, y, z'

loop_
  _atom_site_type_symbol
  _atom_site_label
  _atom_site_symmetry_multiplicity
  _atom_site_fract_x
  _atom_site_fract_y
  _atom_site_fract_z
  _atom_site_occupancy
  Mo  Mo1       1.0  0.11700  0.21500  0.08830  1.0000
  Mo  Mo2       1.0  0.42000  0.64300  0.47500  1.0000
  Mo  Mo3       1.0  0.58000  0.35700  0.52500  1.0000
  Mo  Mo4       1.0  0.88300  0.78500  0.91200  1.0000
  N   N1        1.0  0.23100  0.04830  0.04400  1.0000
  N   N2        1.0  0.03400  0.65200  0.07810  1.0000
  N   N3        1.0  0.35100  0.32800  0.10300  1.0000
  N   N4        1.0  0.94500  0.13700  0.28700  1.0000
  N   N5        1.0  0.54200  0.55600  0.32100  1.0000
  N   N6        1.0  0.14900  0.70000  0.44100  1.0000
  N   N7        1.0  0.58700  0.80900  0.46900  1.0000
  N   N8        1.0  0.41300  0.19100  0.53100  1.0000
  N   N9        1.0  0.85100  0.30000  0.55900  1.0000
  N   N10       1.0  0.45800  0.44400  0.67900  1.0000
  N   N11       1.0  0.05540  0.86300  0.71300  1.0000
  N   N12       1.0  0.64900  0.67200  0.89700  1.0000
  N   N13       1.0  0.96600  0.34800  0.92200  1.0000
  N   N14       1.0  0.76900  0.95200  0.95600  1.0000
  Sr  Sr1       1.0  0.40300  0.79100  0.07640  1.0000
  Sr  Sr2       1.0  0.70600  0.41500  0.14800  1.0000
  Sr  Sr3       1.0  0.89100  0.84300  0.23800  1.0000
  Sr  Sr4       1.0  0.15100  0.41100  0.32700  1.0000
  Sr  Sr5       1.0  0.26500  0.99100  0.43500  1.0000
  Sr  Sr6       1.0  0.73500  0.00941  0.56500  1.0000
  Sr  Sr7       1.0  0.84900  0.58900  0.67300  1.0000
  Sr  Sr8       1.0  0.10900  0.15700  0.76200  1.0000
  Sr  Sr9       1.0  0.29400  0.58500  0.85200  1.0000
  Sr  Sr10      1.0  0.59700  0.20900  0.92400  1.0000
