data_image0
_chemical_formula_structural       B4Rb12S12
_chemical_formula_sum              "B4 Rb12 S12"
_cell_length_a       10.5269
_cell_length_b       6.45628
_cell_length_c       13.2168
_cell_angle_alpha    90
_cell_angle_beta     104.676
_cell_angle_gamma    90

_space_group_name_H-M_alt    "P 1"
_space_group_IT_number       1

loop_
  _space_group_symop_operation_xyz
  'x, y, z'

loop_
  _atom_site_type_symbol
  _atom_site_label
  _atom_site_symmetry_multiplicity
  _atom_site_fract_x
  _atom_site_fract_y
  _atom_site_fract_z
  _atom_site_occupancy
  B   B1        1.0  0.23500  0.61700  0.12800  1.0000
  B   B2        1.0  0.76500  0.11700  0.37200  1.0000
  B   B3        1.0  0.23500  0.88300  0.62800  1.0000
  B   B4        1.0  0.76500  0.38300  0.87200  1.0000
  Rb  Rb1       1.0  0.75000  0.85800  0.00836  1.0000
  Rb  Rb2       1.0  0.97300  0.28900  0.14100  1.0000
  Rb  Rb3       1.0  0.59400  0.43700  0.19500  1.0000
  Rb  Rb4       1.0  0.40600  0.93700  0.30500  1.0000
  Rb  Rb5       1.0  0.02650  0.78900  0.35900  1.0000
  Rb  Rb6       1.0  0.25000  0.35800  0.49200  1.0000
  Rb  Rb7       1.0  0.75000  0.64200  0.50800  1.0000
  Rb  Rb8       1.0  0.97300  0.21100  0.64100  1.0000
  Rb  Rb9       1.0  0.59400  0.06300  0.69500  1.0000
  Rb  Rb10      1.0  0.40600  0.56300  0.80500  1.0000
  Rb  Rb11      1.0  0.02650  0.71100  0.85900  1.0000
  Rb  Rb12      1.0  0.25000  0.14200  0.99200  1.0000
  S   S1        1.0  0.32900  0.64700  0.02940  1.0000
  S   S2        1.0  0.09180  0.78500  0.12300  1.0000
  S   S3        1.0  0.28700  0.42300  0.23300  1.0000
  S   S4        1.0  0.71300  0.92300  0.26700  1.0000
  S   S5        1.0  0.90800  0.28500  0.37700  1.0000
  S   S6        1.0  0.67100  0.14700  0.47100  1.0000
  S   S7        1.0  0.32900  0.85300  0.52900  1.0000
  S   S8        1.0  0.09180  0.71500  0.62300  1.0000
  S   S9        1.0  0.28700  0.07650  0.73300  1.0000
  S   S10       1.0  0.71300  0.57700  0.76700  1.0000
  S   S11       1.0  0.90800  0.21500  0.87700  1.0000
  S   S12       1.0  0.67100  0.35300  0.97100  1.0000
