data_image0
_chemical_formula_structural       Br2Gd6S16Si4
_chemical_formula_sum              "Br2 Gd6 S16 Si4"
_cell_length_a       7.5459
_cell_length_b       8.69045
_cell_length_c       10.7914
_cell_angle_alpha    98.7505
_cell_angle_beta     90
_cell_angle_gamma    115.731

_space_group_name_H-M_alt    "P 1"
_space_group_IT_number       1

loop_
  _space_group_symop_operation_xyz
  'x, y, z'

loop_
  _atom_site_type_symbol
  _atom_site_label
  _atom_site_symmetry_multiplicity
  _atom_site_fract_x
  _atom_site_fract_y
  _atom_site_fract_z
  _atom_site_occupancy
  Br  Br1       1.0  0.01130  0.00000  0.25000  1.0000
  Br  Br2       1.0  0.98900  0.00000  0.75000  1.0000
  Gd  Gd1       1.0  0.32700  0.40200  0.18200  1.0000
  Gd  Gd2       1.0  0.63000  0.00000  0.25000  1.0000
  Gd  Gd3       1.0  0.92500  0.59800  0.31800  1.0000
  Gd  Gd4       1.0  0.07530  0.40200  0.68200  1.0000
  Gd  Gd5       1.0  0.37000  0.00000  0.75000  1.0000
  Gd  Gd6       1.0  0.67300  0.59800  0.81800  1.0000
  S   S1        1.0  0.39800  0.13300  0.03440  1.0000
  S   S2        1.0  0.71600  0.56800  0.08770  1.0000
  S   S3        1.0  0.89900  0.28600  0.14200  1.0000
  S   S4        1.0  0.26000  0.71000  0.17100  1.0000
  S   S5        1.0  0.55000  0.29000  0.32900  1.0000
  S   S6        1.0  0.61300  0.71400  0.35800  1.0000
  S   S7        1.0  0.14900  0.43200  0.41200  1.0000
  S   S8        1.0  0.26600  0.86700  0.46600  1.0000
  S   S9        1.0  0.73400  0.13300  0.53400  1.0000
  S   S10       1.0  0.85100  0.56800  0.58800  1.0000
  S   S11       1.0  0.38700  0.28600  0.64200  1.0000
  S   S12       1.0  0.45000  0.71000  0.67100  1.0000
  S   S13       1.0  0.74000  0.29000  0.82900  1.0000
  S   S14       1.0  0.10100  0.71400  0.85800  1.0000
  S   S15       1.0  0.28400  0.43200  0.91200  1.0000
  S   S16       1.0  0.60200  0.86700  0.96600  1.0000
  Si  Si1       1.0  0.69400  0.31500  0.02400  1.0000
  Si  Si2       1.0  0.37900  0.68500  0.47600  1.0000
  Si  Si3       1.0  0.62100  0.31500  0.52400  1.0000
  Si  Si4       1.0  0.30600  0.68500  0.97600  1.0000
