data_image0
_chemical_formula_structural       Mo4O18Zn6
_chemical_formula_sum              "Mo4 O18 Zn6"
_cell_length_a       7.72763
_cell_length_b       7.11238
_cell_length_c       8.35901
_cell_angle_alpha    90
_cell_angle_beta     117.229
_cell_angle_gamma    90

_space_group_name_H-M_alt    "P 1"
_space_group_IT_number       1

loop_
  _space_group_symop_operation_xyz
  'x, y, z'

loop_
  _atom_site_type_symbol
  _atom_site_label
  _atom_site_symmetry_multiplicity
  _atom_site_fract_x
  _atom_site_fract_y
  _atom_site_fract_z
  _atom_site_occupancy
  Mo  Mo1       1.0  0.83300  0.25000  0.28000  1.0000
  Mo  Mo2       1.0  0.45300  0.75000  0.29900  1.0000
  Mo  Mo3       1.0  0.54700  0.25000  0.70100  1.0000
  Mo  Mo4       1.0  0.16700  0.75000  0.72000  1.0000
  O   O1        1.0  0.90400  0.75000  0.00719  1.0000
  O   O2        1.0  0.57500  0.25000  0.14700  1.0000
  O   O3        1.0  0.30600  0.54600  0.19900  1.0000
  O   O4        1.0  0.30600  0.95400  0.19900  1.0000
  O   O5        1.0  0.93400  0.04670  0.22700  1.0000
  O   O6        1.0  0.93400  0.45300  0.22700  1.0000
  O   O7        1.0  0.66000  0.75000  0.26100  1.0000
  O   O8        1.0  0.46600  0.25000  0.46600  1.0000
  O   O9        1.0  0.11100  0.75000  0.48900  1.0000
  O   O10       1.0  0.88900  0.25000  0.51100  1.0000
  O   O11       1.0  0.53400  0.75000  0.53400  1.0000
  O   O12       1.0  0.34000  0.25000  0.73900  1.0000
  O   O13       1.0  0.06600  0.54700  0.77300  1.0000
  O   O14       1.0  0.06600  0.95300  0.77300  1.0000
  O   O15       1.0  0.69400  0.04590  0.80100  1.0000
  O   O16       1.0  0.69400  0.45400  0.80100  1.0000
  O   O17       1.0  0.42500  0.75000  0.85300  1.0000
  O   O18       1.0  0.09640  0.25000  0.99300  1.0000
  Zn  Zn1       1.0  0.00000  0.00000  0.00000  1.0000
  Zn  Zn2       1.0  0.00000  0.50000  0.00000  1.0000
  Zn  Zn3       1.0  0.35500  0.25000  0.20400  1.0000
  Zn  Zn4       1.0  0.90100  0.75000  0.24100  1.0000
  Zn  Zn5       1.0  0.09930  0.25000  0.75900  1.0000
  Zn  Zn6       1.0  0.64500  0.75000  0.79600  1.0000
