data_image0
_chemical_formula_structural       Ba4K4O16V4
_chemical_formula_sum              "Ba4 K4 O16 V4"
_cell_length_a       7.7474
_cell_length_b       5.88231
_cell_length_c       10.3655
_cell_angle_alpha    90
_cell_angle_beta     90
_cell_angle_gamma    90

_space_group_name_H-M_alt    "P 1"
_space_group_IT_number       1

loop_
  _space_group_symop_operation_xyz
  'x, y, z'

loop_
  _atom_site_type_symbol
  _atom_site_label
  _atom_site_symmetry_multiplicity
  _atom_site_fract_x
  _atom_site_fract_y
  _atom_site_fract_z
  _atom_site_occupancy
  Ba  Ba1       1.0  0.00807  0.25000  0.19400  1.0000
  Ba  Ba2       1.0  0.50800  0.25000  0.30600  1.0000
  Ba  Ba3       1.0  0.49200  0.75000  0.69400  1.0000
  Ba  Ba4       1.0  0.99200  0.75000  0.80600  1.0000
  K   K1        1.0  0.65900  0.75000  0.07910  1.0000
  K   K2        1.0  0.15900  0.75000  0.42100  1.0000
  K   K3        1.0  0.84100  0.25000  0.57900  1.0000
  K   K4        1.0  0.34100  0.25000  0.92100  1.0000
  O   O1        1.0  0.69000  0.25000  0.07470  1.0000
  O   O2        1.0  0.00828  0.75000  0.07730  1.0000
  O   O3        1.0  0.30100  0.50800  0.16100  1.0000
  O   O4        1.0  0.30100  0.99200  0.16100  1.0000
  O   O5        1.0  0.80100  0.50800  0.33900  1.0000
  O   O6        1.0  0.80100  0.99200  0.33900  1.0000
  O   O7        1.0  0.50800  0.75000  0.42300  1.0000
  O   O8        1.0  0.19000  0.25000  0.42500  1.0000
  O   O9        1.0  0.81000  0.75000  0.57500  1.0000
  O   O10       1.0  0.49200  0.25000  0.57700  1.0000
  O   O11       1.0  0.19900  0.00751  0.66100  1.0000
  O   O12       1.0  0.19900  0.49200  0.66100  1.0000
  O   O13       1.0  0.69900  0.00751  0.83900  1.0000
  O   O14       1.0  0.69900  0.49200  0.83900  1.0000
  O   O15       1.0  0.99200  0.25000  0.92300  1.0000
  O   O16       1.0  0.31000  0.75000  0.92500  1.0000
  V   V1        1.0  0.23100  0.75000  0.08260  1.0000
  V   V2        1.0  0.73100  0.75000  0.41700  1.0000
  V   V3        1.0  0.26900  0.25000  0.58300  1.0000
  V   V4        1.0  0.76900  0.25000  0.91700  1.0000
