data_image0
_chemical_formula_structural       B4K12S12
_chemical_formula_sum              "B4 K12 S12"
_cell_length_a       10.2332
_cell_length_b       6.26495
_cell_length_c       12.7153
_cell_angle_alpha    90
_cell_angle_beta     112.956
_cell_angle_gamma    90

_space_group_name_H-M_alt    "P 1"
_space_group_IT_number       1

loop_
  _space_group_symop_operation_xyz
  'x, y, z'

loop_
  _atom_site_type_symbol
  _atom_site_label
  _atom_site_symmetry_multiplicity
  _atom_site_fract_x
  _atom_site_fract_y
  _atom_site_fract_z
  _atom_site_occupancy
  B   B1        1.0  0.73200  0.86700  0.24100  1.0000
  B   B2        1.0  0.26800  0.36700  0.25900  1.0000
  B   B3        1.0  0.73200  0.63300  0.74100  1.0000
  B   B4        1.0  0.26800  0.13300  0.75900  1.0000
  K   K1        1.0  0.46600  0.22300  0.09090  1.0000
  K   K2        1.0  0.22900  0.82900  0.10800  1.0000
  K   K3        1.0  0.89800  0.55200  0.15000  1.0000
  K   K4        1.0  0.10200  0.05200  0.35000  1.0000
  K   K5        1.0  0.77100  0.32900  0.39200  1.0000
  K   K6        1.0  0.53400  0.72300  0.40900  1.0000
  K   K7        1.0  0.46600  0.27700  0.59100  1.0000
  K   K8        1.0  0.22900  0.67100  0.60800  1.0000
  K   K9        1.0  0.89800  0.94800  0.65000  1.0000
  K   K10       1.0  0.10200  0.44800  0.85000  1.0000
  K   K11       1.0  0.77100  0.17100  0.89200  1.0000
  K   K12       1.0  0.53400  0.77700  0.90900  1.0000
  S   S1        1.0  0.15800  0.32500  0.10700  1.0000
  S   S2        1.0  0.78600  0.06980  0.16100  1.0000
  S   S3        1.0  0.57600  0.69900  0.16900  1.0000
  S   S4        1.0  0.42400  0.19900  0.33100  1.0000
  S   S5        1.0  0.21400  0.57000  0.33900  1.0000
  S   S6        1.0  0.84200  0.82500  0.39300  1.0000
  S   S7        1.0  0.15800  0.17500  0.60700  1.0000
  S   S8        1.0  0.78600  0.43000  0.66100  1.0000
  S   S9        1.0  0.57600  0.80100  0.66900  1.0000
  S   S10       1.0  0.42400  0.30100  0.83100  1.0000
  S   S11       1.0  0.21400  0.93000  0.83900  1.0000
  S   S12       1.0  0.84200  0.67500  0.89300  1.0000
