data_image0
_chemical_formula_structural       N4Pr12S12
_chemical_formula_sum              "N4 Pr12 S12"
_cell_length_a       12.2434
_cell_length_b       4.08521
_cell_length_c       13.1783
_cell_angle_alpha    90
_cell_angle_beta     90
_cell_angle_gamma    90

_space_group_name_H-M_alt    "P 1"
_space_group_IT_number       1

loop_
  _space_group_symop_operation_xyz
  'x, y, z'

loop_
  _atom_site_type_symbol
  _atom_site_label
  _atom_site_symmetry_multiplicity
  _atom_site_fract_x
  _atom_site_fract_y
  _atom_site_fract_z
  _atom_site_occupancy
  N   N1        1.0  0.95000  0.75000  0.20200  1.0000
  N   N2        1.0  0.45000  0.75000  0.29800  1.0000
  N   N3        1.0  0.55000  0.25000  0.70200  1.0000
  N   N4        1.0  0.04970  0.25000  0.79800  1.0000
  Pr  Pr1       1.0  0.41100  0.75000  0.12700  1.0000
  Pr  Pr2       1.0  0.77400  0.75000  0.13200  1.0000
  Pr  Pr3       1.0  0.03800  0.25000  0.15000  1.0000
  Pr  Pr4       1.0  0.53800  0.25000  0.35000  1.0000
  Pr  Pr5       1.0  0.27400  0.75000  0.36800  1.0000
  Pr  Pr6       1.0  0.91100  0.75000  0.37300  1.0000
  Pr  Pr7       1.0  0.08870  0.25000  0.62700  1.0000
  Pr  Pr8       1.0  0.72600  0.25000  0.63200  1.0000
  Pr  Pr9       1.0  0.46200  0.75000  0.65000  1.0000
  Pr  Pr10      1.0  0.96200  0.75000  0.85000  1.0000
  Pr  Pr11      1.0  0.22600  0.25000  0.86800  1.0000
  Pr  Pr12      1.0  0.58900  0.25000  0.87300  1.0000
  S   S1        1.0  0.85800  0.25000  0.00149  1.0000
  S   S2        1.0  0.57700  0.25000  0.10800  1.0000
  S   S3        1.0  0.26700  0.25000  0.20100  1.0000
  S   S4        1.0  0.76700  0.25000  0.29900  1.0000
  S   S5        1.0  0.07700  0.25000  0.39200  1.0000
  S   S6        1.0  0.35800  0.25000  0.49900  1.0000
  S   S7        1.0  0.64200  0.75000  0.50100  1.0000
  S   S8        1.0  0.92300  0.75000  0.60800  1.0000
  S   S9        1.0  0.23300  0.75000  0.70100  1.0000
  S   S10       1.0  0.73300  0.75000  0.79900  1.0000
  S   S11       1.0  0.42300  0.75000  0.89200  1.0000
  S   S12       1.0  0.14200  0.75000  0.99900  1.0000
