data_image0
_chemical_formula_structural       Al4Bi4Cl16S4
_chemical_formula_sum              "Al4 Bi4 Cl16 S4"
_cell_length_a       10.1141
_cell_length_b       10.1141
_cell_length_c       10.1141
_cell_angle_alpha    107.684
_cell_angle_beta     113.108
_cell_angle_gamma    107.684

_space_group_name_H-M_alt    "P 1"
_space_group_IT_number       1

loop_
  _space_group_symop_operation_xyz
  'x, y, z'

loop_
  _atom_site_type_symbol
  _atom_site_label
  _atom_site_symmetry_multiplicity
  _atom_site_fract_x
  _atom_site_fract_y
  _atom_site_fract_z
  _atom_site_occupancy
  Al  Al1       1.0  0.14300  0.73200  0.02060  1.0000
  Al  Al2       1.0  0.28900  0.26800  0.41100  1.0000
  Al  Al3       1.0  0.97900  0.12200  0.71100  1.0000
  Al  Al4       1.0  0.58900  0.87800  0.85700  1.0000
  Bi  Bi1       1.0  0.47800  0.28400  0.07090  1.0000
  Bi  Bi2       1.0  0.78700  0.71600  0.19400  1.0000
  Bi  Bi3       1.0  0.92900  0.40700  0.21300  1.0000
  Bi  Bi4       1.0  0.80600  0.59300  0.52200  1.0000
  Cl  Cl1       1.0  0.82400  0.05190  0.08170  1.0000
  Cl  Cl2       1.0  0.35900  0.95200  0.14100  1.0000
  Cl  Cl3       1.0  0.18800  0.62000  0.17300  1.0000
  Cl  Cl4       1.0  0.22800  0.25800  0.17600  1.0000
  Cl  Cl5       1.0  0.18900  0.04790  0.40700  1.0000
  Cl  Cl6       1.0  0.82700  0.01530  0.44700  1.0000
  Cl  Cl7       1.0  0.18900  0.41400  0.49700  1.0000
  Cl  Cl8       1.0  0.55300  0.38000  0.56800  1.0000
  Cl  Cl9       1.0  0.59300  0.78200  0.64100  1.0000
  Cl  Cl10      1.0  0.02980  0.94800  0.77200  1.0000
  Cl  Cl11      1.0  0.08280  0.58600  0.77400  1.0000
  Cl  Cl12      1.0  0.22600  0.30800  0.81100  1.0000
  Cl  Cl13      1.0  0.85900  0.21800  0.81100  1.0000
  Cl  Cl14      1.0  0.43200  0.98500  0.81200  1.0000
  Cl  Cl15      1.0  0.50300  0.69200  0.91700  1.0000
  Cl  Cl16      1.0  0.91800  0.74200  0.97000  1.0000
  S   S1        1.0  0.57000  0.58600  0.26500  1.0000
  S   S2        1.0  0.73500  0.30500  0.32100  1.0000
  S   S3        1.0  0.01580  0.69500  0.43000  1.0000
  S   S4        1.0  0.67900  0.41400  0.98400  1.0000
