data_image0
_chemical_formula_structural       K6Na2O16W4
_chemical_formula_sum              "K6 Na2 O16 W4"
_cell_length_a       5.96749
_cell_length_b       5.96749
_cell_length_c       15.1995
_cell_angle_alpha    90.5162
_cell_angle_beta     90.5162
_cell_angle_gamma    60.1171

_space_group_name_H-M_alt    "P 1"
_space_group_IT_number       1

loop_
  _space_group_symop_operation_xyz
  'x, y, z'

loop_
  _atom_site_type_symbol
  _atom_site_label
  _atom_site_symmetry_multiplicity
  _atom_site_fract_x
  _atom_site_fract_y
  _atom_site_fract_z
  _atom_site_occupancy
  K   K1        1.0  0.30400  0.35300  0.08280  1.0000
  K   K2        1.0  0.94200  0.05780  0.25000  1.0000
  K   K3        1.0  0.64700  0.69600  0.41700  1.0000
  K   K4        1.0  0.35300  0.30400  0.58300  1.0000
  K   K5        1.0  0.05780  0.94200  0.75000  1.0000
  K   K6        1.0  0.69600  0.64700  0.91700  1.0000
  Na  Na1       1.0  0.00000  0.00000  0.00000  1.0000
  Na  Na2       1.0  0.00000  0.00000  0.50000  1.0000
  O   O1        1.0  0.77700  0.38500  0.08010  1.0000
  O   O2        1.0  0.77500  0.86500  0.09140  1.0000
  O   O3        1.0  0.29800  0.85300  0.12200  1.0000
  O   O4        1.0  0.38800  0.26800  0.24600  1.0000
  O   O5        1.0  0.73200  0.61200  0.25400  1.0000
  O   O6        1.0  0.14700  0.70200  0.37800  1.0000
  O   O7        1.0  0.13500  0.22500  0.40900  1.0000
  O   O8        1.0  0.61500  0.22300  0.42000  1.0000
  O   O9        1.0  0.38500  0.77700  0.58000  1.0000
  O   O10       1.0  0.86500  0.77500  0.59100  1.0000
  O   O11       1.0  0.85300  0.29800  0.62200  1.0000
  O   O12       1.0  0.26800  0.38800  0.74600  1.0000
  O   O13       1.0  0.61200  0.73200  0.75400  1.0000
  O   O14       1.0  0.70200  0.14700  0.87800  1.0000
  O   O15       1.0  0.22500  0.13500  0.90900  1.0000
  O   O16       1.0  0.22300  0.61500  0.92000  1.0000
  W   W1        1.0  0.64100  0.68500  0.14000  1.0000
  W   W2        1.0  0.31500  0.35900  0.36000  1.0000
  W   W3        1.0  0.68500  0.64100  0.64000  1.0000
  W   W4        1.0  0.35900  0.31500  0.86000  1.0000
