data_image0
_chemical_formula_structural       Ba2Cu18Ge8
_chemical_formula_sum              "Ba2 Cu18 Ge8"
_cell_length_a       8.37729
_cell_length_b       8.37729
_cell_length_c       8.4536
_cell_angle_alpha    119.702
_cell_angle_beta     119.702
_cell_angle_gamma    90

_space_group_name_H-M_alt    "P 1"
_space_group_IT_number       1

loop_
  _space_group_symop_operation_xyz
  'x, y, z'

loop_
  _atom_site_type_symbol
  _atom_site_label
  _atom_site_symmetry_multiplicity
  _atom_site_fract_x
  _atom_site_fract_y
  _atom_site_fract_z
  _atom_site_occupancy
  Ba  Ba1       1.0  0.25000  0.25000  0.50000  1.0000
  Ba  Ba2       1.0  0.75000  0.75000  0.50000  1.0000
  Cu  Cu1       1.0  0.50000  0.00000  0.00000  1.0000
  Cu  Cu2       1.0  0.79600  0.06160  0.00000  1.0000
  Cu  Cu3       1.0  0.06160  0.20400  0.00000  1.0000
  Cu  Cu4       1.0  0.56200  0.29600  0.00000  1.0000
  Cu  Cu5       1.0  0.29600  0.43800  0.00000  1.0000
  Cu  Cu6       1.0  0.00000  0.50000  0.00000  1.0000
  Cu  Cu7       1.0  0.70400  0.56200  0.00000  1.0000
  Cu  Cu8       1.0  0.43800  0.70400  0.00000  1.0000
  Cu  Cu9       1.0  0.93800  0.79600  0.00000  1.0000
  Cu  Cu10      1.0  0.20400  0.93800  0.00000  1.0000
  Cu  Cu11      1.0  0.56100  0.06090  0.35600  1.0000
  Cu  Cu12      1.0  0.79500  0.29500  0.35600  1.0000
  Cu  Cu13      1.0  0.29500  0.56100  0.35600  1.0000
  Cu  Cu14      1.0  0.06090  0.79500  0.35600  1.0000
  Cu  Cu15      1.0  0.93900  0.20500  0.64400  1.0000
  Cu  Cu16      1.0  0.70500  0.43900  0.64400  1.0000
  Cu  Cu17      1.0  0.20500  0.70500  0.64400  1.0000
  Cu  Cu18      1.0  0.43900  0.93900  0.64400  1.0000
  Ge  Ge1       1.0  0.44200  0.29900  0.24100  1.0000
  Ge  Ge2       1.0  0.94200  0.44200  0.24100  1.0000
  Ge  Ge3       1.0  0.29900  0.79900  0.24100  1.0000
  Ge  Ge4       1.0  0.79900  0.94200  0.24100  1.0000
  Ge  Ge5       1.0  0.20100  0.05800  0.75900  1.0000
  Ge  Ge6       1.0  0.70100  0.20100  0.75900  1.0000
  Ge  Ge7       1.0  0.05800  0.55800  0.75900  1.0000
  Ge  Ge8       1.0  0.55800  0.70100  0.75900  1.0000
