data_image0
_chemical_formula_structural       Cs4S16Si4Tm4
_chemical_formula_sum              "Cs4 S16 Si4 Tm4"
_cell_length_a       6.32403
_cell_length_b       6.67426
_cell_length_c       17.7734
_cell_angle_alpha    90
_cell_angle_beta     90
_cell_angle_gamma    90

_space_group_name_H-M_alt    "P 1"
_space_group_IT_number       1

loop_
  _space_group_symop_operation_xyz
  'x, y, z'

loop_
  _atom_site_type_symbol
  _atom_site_label
  _atom_site_symmetry_multiplicity
  _atom_site_fract_x
  _atom_site_fract_y
  _atom_site_fract_z
  _atom_site_occupancy
  Cs  Cs1       1.0  0.00229  0.00764  0.03160  1.0000
  Cs  Cs2       1.0  0.99800  0.50800  0.46800  1.0000
  Cs  Cs3       1.0  0.49800  0.99200  0.53200  1.0000
  Cs  Cs4       1.0  0.50200  0.49200  0.96800  1.0000
  S   S1        1.0  0.05700  0.51300  0.09770  1.0000
  S   S2        1.0  0.56400  0.75000  0.14900  1.0000
  S   S3        1.0  0.60200  0.25300  0.15800  1.0000
  S   S4        1.0  0.10200  0.08000  0.22000  1.0000
  S   S5        1.0  0.89800  0.58000  0.28000  1.0000
  S   S6        1.0  0.39800  0.75300  0.34200  1.0000
  S   S7        1.0  0.43600  0.25000  0.35100  1.0000
  S   S8        1.0  0.94300  0.01280  0.40200  1.0000
  S   S9        1.0  0.44300  0.48700  0.59800  1.0000
  S   S10       1.0  0.93600  0.25000  0.64900  1.0000
  S   S11       1.0  0.89800  0.74700  0.65800  1.0000
  S   S12       1.0  0.39800  0.92000  0.72000  1.0000
  S   S13       1.0  0.60200  0.42000  0.78000  1.0000
  S   S14       1.0  0.10200  0.24700  0.84200  1.0000
  S   S15       1.0  0.06430  0.75000  0.85100  1.0000
  S   S16       1.0  0.55700  0.98700  0.90200  1.0000
  Si  Si1       1.0  0.79100  0.51800  0.16900  1.0000
  Si  Si2       1.0  0.20900  0.01820  0.33100  1.0000
  Si  Si3       1.0  0.70900  0.48200  0.66900  1.0000
  Si  Si4       1.0  0.29100  0.98200  0.83100  1.0000
  Tm  Tm1       1.0  0.29100  0.47900  0.22900  1.0000
  Tm  Tm2       1.0  0.70900  0.97900  0.27100  1.0000
  Tm  Tm3       1.0  0.20900  0.52100  0.72900  1.0000
  Tm  Tm4       1.0  0.79100  0.02140  0.77100  1.0000
