data_image0
_chemical_formula_structural       Cu4K8S12Sb4
_chemical_formula_sum              "Cu4 K8 S12 Sb4"
_cell_length_a       6.32204
_cell_length_b       18.0783
_cell_length_c       7.54666
_cell_angle_alpha    90
_cell_angle_beta     120.36
_cell_angle_gamma    90

_space_group_name_H-M_alt    "P 1"
_space_group_IT_number       1

loop_
  _space_group_symop_operation_xyz
  'x, y, z'

loop_
  _atom_site_type_symbol
  _atom_site_label
  _atom_site_symmetry_multiplicity
  _atom_site_fract_x
  _atom_site_fract_y
  _atom_site_fract_z
  _atom_site_occupancy
  Cu  Cu1       1.0  0.61700  0.72100  0.06870  1.0000
  Cu  Cu2       1.0  0.38300  0.22100  0.43100  1.0000
  Cu  Cu3       1.0  0.61700  0.77900  0.56900  1.0000
  Cu  Cu4       1.0  0.38300  0.27900  0.93100  1.0000
  K   K1        1.0  0.08320  0.38100  0.14500  1.0000
  K   K2        1.0  0.35500  0.04210  0.21000  1.0000
  K   K3        1.0  0.64500  0.54200  0.29000  1.0000
  K   K4        1.0  0.91700  0.88100  0.35500  1.0000
  K   K5        1.0  0.08320  0.11900  0.64500  1.0000
  K   K6        1.0  0.35500  0.45800  0.71000  1.0000
  K   K7        1.0  0.64500  0.95800  0.79000  1.0000
  K   K8        1.0  0.91700  0.61900  0.85500  1.0000
  S   S1        1.0  0.20000  0.21000  0.08390  1.0000
  S   S2        1.0  0.59200  0.37400  0.14600  1.0000
  S   S3        1.0  0.84000  0.06230  0.18600  1.0000
  S   S4        1.0  0.16000  0.56200  0.31400  1.0000
  S   S5        1.0  0.40800  0.87400  0.35400  1.0000
  S   S6        1.0  0.80000  0.71000  0.41600  1.0000
  S   S7        1.0  0.20000  0.29000  0.58400  1.0000
  S   S8        1.0  0.59200  0.12600  0.64600  1.0000
  S   S9        1.0  0.84000  0.43800  0.68600  1.0000
  S   S10       1.0  0.16000  0.93800  0.81400  1.0000
  S   S11       1.0  0.40800  0.62600  0.85400  1.0000
  S   S12       1.0  0.80000  0.79000  0.91600  1.0000
  Sb  Sb1       1.0  0.23700  0.82300  0.00430  1.0000
  Sb  Sb2       1.0  0.76300  0.32300  0.49600  1.0000
  Sb  Sb3       1.0  0.23700  0.67700  0.50400  1.0000
  Sb  Sb4       1.0  0.76300  0.17700  0.99600  1.0000
