data_image0
_chemical_formula_structural       Ag4Cu4O16V4
_chemical_formula_sum              "Ag4 Cu4 O16 V4"
_cell_length_a       9.20806
_cell_length_b       6.72024
_cell_length_c       5.38378
_cell_angle_alpha    90
_cell_angle_beta     90
_cell_angle_gamma    90

_space_group_name_H-M_alt    "P 1"
_space_group_IT_number       1

loop_
  _space_group_symop_operation_xyz
  'x, y, z'

loop_
  _atom_site_type_symbol
  _atom_site_label
  _atom_site_symmetry_multiplicity
  _atom_site_fract_x
  _atom_site_fract_y
  _atom_site_fract_z
  _atom_site_occupancy
  Ag  Ag1       1.0  0.36000  0.75000  0.01310  1.0000
  Ag  Ag2       1.0  0.86000  0.75000  0.48700  1.0000
  Ag  Ag3       1.0  0.14000  0.25000  0.51300  1.0000
  Ag  Ag4       1.0  0.64000  0.25000  0.98700  1.0000
  Cu  Cu1       1.0  0.00000  0.00000  0.00000  1.0000
  Cu  Cu2       1.0  0.00000  0.50000  0.00000  1.0000
  Cu  Cu3       1.0  0.50000  0.00000  0.50000  1.0000
  Cu  Cu4       1.0  0.50000  0.50000  0.50000  1.0000
  O   O1        1.0  0.11200  0.25000  0.07920  1.0000
  O   O2        1.0  0.37600  0.04530  0.21700  1.0000
  O   O3        1.0  0.37600  0.45500  0.21700  1.0000
  O   O4        1.0  0.62700  0.75000  0.24400  1.0000
  O   O5        1.0  0.12700  0.75000  0.25600  1.0000
  O   O6        1.0  0.87600  0.04530  0.28300  1.0000
  O   O7        1.0  0.87600  0.45500  0.28300  1.0000
  O   O8        1.0  0.61200  0.25000  0.42100  1.0000
  O   O9        1.0  0.38800  0.75000  0.57900  1.0000
  O   O10       1.0  0.12400  0.54500  0.71700  1.0000
  O   O11       1.0  0.12400  0.95500  0.71700  1.0000
  O   O12       1.0  0.87300  0.25000  0.74400  1.0000
  O   O13       1.0  0.37300  0.25000  0.75600  1.0000
  O   O14       1.0  0.62400  0.54500  0.78300  1.0000
  O   O15       1.0  0.62400  0.95500  0.78300  1.0000
  O   O16       1.0  0.88800  0.75000  0.92100  1.0000
  V   V1        1.0  0.31000  0.25000  0.05480  1.0000
  V   V2        1.0  0.81000  0.25000  0.44500  1.0000
  V   V3        1.0  0.19000  0.75000  0.55500  1.0000
  V   V4        1.0  0.69000  0.75000  0.94500  1.0000
