data_image0
_chemical_formula_structural       I2S16Si4Sm6
_chemical_formula_sum              "I2 S16 Si4 Sm6"
_cell_length_a       7.77521
_cell_length_b       8.82083
_cell_length_c       10.793
_cell_angle_alpha    97.5602
_cell_angle_beta     90
_cell_angle_gamma    116.15

_space_group_name_H-M_alt    "P 1"
_space_group_IT_number       1

loop_
  _space_group_symop_operation_xyz
  'x, y, z'

loop_
  _atom_site_type_symbol
  _atom_site_label
  _atom_site_symmetry_multiplicity
  _atom_site_fract_x
  _atom_site_fract_y
  _atom_site_fract_z
  _atom_site_occupancy
  I   I1        1.0  0.01540  0.00000  0.25000  1.0000
  I   I2        1.0  0.98500  0.00000  0.75000  1.0000
  S   S1        1.0  0.40900  0.13500  0.03980  1.0000
  S   S2        1.0  0.71400  0.56600  0.08620  1.0000
  S   S3        1.0  0.89300  0.28800  0.14700  1.0000
  S   S4        1.0  0.25300  0.70300  0.16600  1.0000
  S   S5        1.0  0.55000  0.29700  0.33400  1.0000
  S   S6        1.0  0.60500  0.71200  0.35300  1.0000
  S   S7        1.0  0.14800  0.43400  0.41400  1.0000
  S   S8        1.0  0.27500  0.86500  0.46000  1.0000
  S   S9        1.0  0.72500  0.13500  0.54000  1.0000
  S   S10       1.0  0.85200  0.56600  0.58600  1.0000
  S   S11       1.0  0.39500  0.28800  0.64700  1.0000
  S   S12       1.0  0.45000  0.70300  0.66600  1.0000
  S   S13       1.0  0.74700  0.29700  0.83400  1.0000
  S   S14       1.0  0.10700  0.71200  0.85300  1.0000
  S   S15       1.0  0.28600  0.43400  0.91400  1.0000
  S   S16       1.0  0.59100  0.86500  0.96000  1.0000
  Si  Si1       1.0  0.69700  0.31800  0.02760  1.0000
  Si  Si2       1.0  0.37900  0.68200  0.47200  1.0000
  Si  Si3       1.0  0.62100  0.31800  0.52800  1.0000
  Si  Si4       1.0  0.30300  0.68200  0.97200  1.0000
  Sm  Sm1       1.0  0.32400  0.40000  0.18100  1.0000
  Sm  Sm2       1.0  0.60300  0.00000  0.25000  1.0000
  Sm  Sm3       1.0  0.92400  0.60000  0.31900  1.0000
  Sm  Sm4       1.0  0.07620  0.40000  0.68100  1.0000
  Sm  Sm5       1.0  0.39700  0.00000  0.75000  1.0000
  Sm  Sm6       1.0  0.67600  0.60000  0.81900  1.0000
