data_image0
_chemical_formula_structural       F4Hg8O12P4
_chemical_formula_sum              "F4 Hg8 O12 P4"
_cell_length_a       8.48274
_cell_length_b       8.81909
_cell_length_c       8.81909
_cell_angle_alpha    116.224
_cell_angle_beta     118.746
_cell_angle_gamma    61.2538

_space_group_name_H-M_alt    "P 1"
_space_group_IT_number       1

loop_
  _space_group_symop_operation_xyz
  'x, y, z'

loop_
  _atom_site_type_symbol
  _atom_site_label
  _atom_site_symmetry_multiplicity
  _atom_site_fract_x
  _atom_site_fract_y
  _atom_site_fract_z
  _atom_site_occupancy
  F   F1        1.0  0.37300  0.58500  0.33000  1.0000
  F   F2        1.0  0.87300  0.67000  0.41500  1.0000
  F   F3        1.0  0.12700  0.33000  0.58500  1.0000
  F   F4        1.0  0.62700  0.41500  0.67000  1.0000
  Hg  Hg1       1.0  0.12400  0.30700  0.10300  1.0000
  Hg  Hg2       1.0  0.67200  0.30700  0.10300  1.0000
  Hg  Hg3       1.0  0.37600  0.10300  0.30700  1.0000
  Hg  Hg4       1.0  0.82800  0.10300  0.30700  1.0000
  Hg  Hg5       1.0  0.17200  0.89700  0.69300  1.0000
  Hg  Hg6       1.0  0.62400  0.89700  0.69300  1.0000
  Hg  Hg7       1.0  0.32800  0.69300  0.89700  1.0000
  Hg  Hg8       1.0  0.87600  0.69300  0.89700  1.0000
  O   O1        1.0  0.16900  0.76600  0.10400  1.0000
  O   O2        1.0  0.61300  0.60300  0.13200  1.0000
  O   O3        1.0  0.91600  0.60300  0.13200  1.0000
  O   O4        1.0  0.66900  0.89600  0.23400  1.0000
  O   O5        1.0  0.11300  0.86800  0.39700  1.0000
  O   O6        1.0  0.41600  0.86800  0.39700  1.0000
  O   O7        1.0  0.58400  0.13200  0.60300  1.0000
  O   O8        1.0  0.88700  0.13200  0.60300  1.0000
  O   O9        1.0  0.33100  0.10400  0.76600  1.0000
  O   O10       1.0  0.08420  0.39700  0.86800  1.0000
  O   O11       1.0  0.38700  0.39700  0.86800  1.0000
  O   O12       1.0  0.83100  0.23400  0.89600  1.0000
  P   P1        1.0  0.76100  0.69600  0.21800  1.0000
  P   P2        1.0  0.26100  0.78200  0.30400  1.0000
  P   P3        1.0  0.73900  0.21800  0.69600  1.0000
  P   P4        1.0  0.23900  0.30400  0.78200  1.0000
