data_image0
_chemical_formula_structural       N4S12Tb12
_chemical_formula_sum              "N4 S12 Tb12"
_cell_length_a       11.9753
_cell_length_b       3.85093
_cell_length_c       12.9007
_cell_angle_alpha    90
_cell_angle_beta     90
_cell_angle_gamma    90

_space_group_name_H-M_alt    "P 1"
_space_group_IT_number       1

loop_
  _space_group_symop_operation_xyz
  'x, y, z'

loop_
  _atom_site_type_symbol
  _atom_site_label
  _atom_site_symmetry_multiplicity
  _atom_site_fract_x
  _atom_site_fract_y
  _atom_site_fract_z
  _atom_site_occupancy
  N   N1        1.0  0.96300  0.75000  0.20100  1.0000
  N   N2        1.0  0.46300  0.75000  0.29900  1.0000
  N   N3        1.0  0.53700  0.25000  0.70100  1.0000
  N   N4        1.0  0.03680  0.25000  0.79900  1.0000
  S   S1        1.0  0.86600  0.25000  0.00832  1.0000
  S   S2        1.0  0.59100  0.25000  0.10100  1.0000
  S   S3        1.0  0.27400  0.25000  0.19300  1.0000
  S   S4        1.0  0.77400  0.25000  0.30700  1.0000
  S   S5        1.0  0.09110  0.25000  0.39900  1.0000
  S   S6        1.0  0.36600  0.25000  0.49200  1.0000
  S   S7        1.0  0.63400  0.75000  0.50800  1.0000
  S   S8        1.0  0.90900  0.75000  0.60100  1.0000
  S   S9        1.0  0.22600  0.75000  0.69300  1.0000
  S   S10       1.0  0.72600  0.75000  0.80700  1.0000
  S   S11       1.0  0.40900  0.75000  0.89900  1.0000
  S   S12       1.0  0.13400  0.75000  0.99200  1.0000
  Tb  Tb1       1.0  0.43100  0.75000  0.13200  1.0000
  Tb  Tb2       1.0  0.78600  0.75000  0.13900  1.0000
  Tb  Tb3       1.0  0.04640  0.25000  0.14300  1.0000
  Tb  Tb4       1.0  0.54600  0.25000  0.35700  1.0000
  Tb  Tb5       1.0  0.28600  0.75000  0.36100  1.0000
  Tb  Tb6       1.0  0.93100  0.75000  0.36800  1.0000
  Tb  Tb7       1.0  0.06920  0.25000  0.63200  1.0000
  Tb  Tb8       1.0  0.71400  0.25000  0.63900  1.0000
  Tb  Tb9       1.0  0.45400  0.75000  0.64300  1.0000
  Tb  Tb10      1.0  0.95400  0.75000  0.85700  1.0000
  Tb  Tb11      1.0  0.21400  0.25000  0.86100  1.0000
  Tb  Tb12      1.0  0.56900  0.25000  0.86800  1.0000
