data_image0
_chemical_formula_structural       Cl4Hg12I4S8
_chemical_formula_sum              "Cl4 Hg12 I4 S8"
_cell_length_a       9.42959
_cell_length_b       10.3946
_cell_length_c       10.8751
_cell_angle_alpha    99.8221
_cell_angle_beta     115.692
_cell_angle_gamma    63.0263

_space_group_name_H-M_alt    "P 1"
_space_group_IT_number       1

loop_
  _space_group_symop_operation_xyz
  'x, y, z'

loop_
  _atom_site_type_symbol
  _atom_site_label
  _atom_site_symmetry_multiplicity
  _atom_site_fract_x
  _atom_site_fract_y
  _atom_site_fract_z
  _atom_site_occupancy
  Cl  Cl1       1.0  0.87600  0.26400  0.01550  1.0000
  Cl  Cl2       1.0  0.11000  0.25800  0.47900  1.0000
  Cl  Cl3       1.0  0.89000  0.74200  0.52100  1.0000
  Cl  Cl4       1.0  0.12400  0.73600  0.98400  1.0000
  Hg  Hg1       1.0  0.19200  0.25700  0.20400  1.0000
  Hg  Hg2       1.0  0.75500  0.25700  0.20400  1.0000
  Hg  Hg3       1.0  0.62000  0.97400  0.21400  1.0000
  Hg  Hg4       1.0  0.34900  0.54100  0.23900  1.0000
  Hg  Hg5       1.0  0.00000  0.00000  0.50000  1.0000
  Hg  Hg6       1.0  0.50000  0.00000  0.50000  1.0000
  Hg  Hg7       1.0  0.21700  0.50000  0.50000  1.0000
  Hg  Hg8       1.0  0.78300  0.50000  0.50000  1.0000
  Hg  Hg9       1.0  0.65100  0.45900  0.76100  1.0000
  Hg  Hg10      1.0  0.38000  0.02560  0.78600  1.0000
  Hg  Hg11      1.0  0.24500  0.74300  0.79600  1.0000
  Hg  Hg12      1.0  0.80800  0.74300  0.79600  1.0000
  I   I1        1.0  0.37200  0.25800  0.00196  1.0000
  I   I2        1.0  0.37500  0.74900  0.49800  1.0000
  I   I3        1.0  0.62500  0.25100  0.50200  1.0000
  I   I4        1.0  0.62800  0.74200  0.99800  1.0000
  S   S1        1.0  0.10700  0.51700  0.25000  1.0000
  S   S2        1.0  0.62600  0.51700  0.25000  1.0000
  S   S3        1.0  0.37100  0.99300  0.25100  1.0000
  S   S4        1.0  0.88700  0.99300  0.25100  1.0000
  S   S5        1.0  0.11300  0.00663  0.74900  1.0000
  S   S6        1.0  0.62900  0.00663  0.74900  1.0000
  S   S7        1.0  0.37400  0.48300  0.75000  1.0000
  S   S8        1.0  0.89300  0.48300  0.75000  1.0000
