data_image0
_chemical_formula_structural       Ho8Sb20
_chemical_formula_sum              "Ho8 Sb20"
_cell_length_a       13.1681
_cell_length_b       4.20305
_cell_length_c       14.6249
_cell_angle_alpha    90
_cell_angle_beta     101.961
_cell_angle_gamma    90

_space_group_name_H-M_alt    "P 1"
_space_group_IT_number       1

loop_
  _space_group_symop_operation_xyz
  'x, y, z'

loop_
  _atom_site_type_symbol
  _atom_site_label
  _atom_site_symmetry_multiplicity
  _atom_site_fract_x
  _atom_site_fract_y
  _atom_site_fract_z
  _atom_site_occupancy
  Ho  Ho1       1.0  0.66100  0.75000  0.14500  1.0000
  Ho  Ho2       1.0  0.39200  0.75000  0.23000  1.0000
  Ho  Ho3       1.0  0.04650  0.25000  0.36200  1.0000
  Ho  Ho4       1.0  0.66800  0.75000  0.42200  1.0000
  Ho  Ho5       1.0  0.33200  0.25000  0.57800  1.0000
  Ho  Ho6       1.0  0.95400  0.75000  0.63800  1.0000
  Ho  Ho7       1.0  0.60800  0.25000  0.77000  1.0000
  Ho  Ho8       1.0  0.33900  0.25000  0.85500  1.0000
  Sb  Sb1       1.0  0.42000  0.75000  0.02450  1.0000
  Sb  Sb2       1.0  0.27700  0.25000  0.06280  1.0000
  Sb  Sb3       1.0  0.02910  0.25000  0.08800  1.0000
  Sb  Sb4       1.0  0.84800  0.25000  0.17100  1.0000
  Sb  Sb5       1.0  0.14100  0.75000  0.22100  1.0000
  Sb  Sb6       1.0  0.57400  0.25000  0.26600  1.0000
  Sb  Sb7       1.0  0.86100  0.75000  0.32200  1.0000
  Sb  Sb8       1.0  0.28300  0.25000  0.34600  1.0000
  Sb  Sb9       1.0  0.42600  0.75000  0.44900  1.0000
  Sb  Sb10      1.0  0.85600  0.25000  0.48200  1.0000
  Sb  Sb11      1.0  0.14400  0.75000  0.51800  1.0000
  Sb  Sb12      1.0  0.57400  0.25000  0.55100  1.0000
  Sb  Sb13      1.0  0.71700  0.75000  0.65400  1.0000
  Sb  Sb14      1.0  0.13900  0.25000  0.67800  1.0000
  Sb  Sb15      1.0  0.42600  0.75000  0.73400  1.0000
  Sb  Sb16      1.0  0.85900  0.25000  0.77900  1.0000
  Sb  Sb17      1.0  0.15200  0.75000  0.82900  1.0000
  Sb  Sb18      1.0  0.97100  0.75000  0.91200  1.0000
  Sb  Sb19      1.0  0.72300  0.75000  0.93700  1.0000
  Sb  Sb20      1.0  0.58000  0.25000  0.97500  1.0000
