data_image0
_chemical_formula_structural       Gd12N4S12
_chemical_formula_sum              "Gd12 N4 S12"
_cell_length_a       12.0303
_cell_length_b       3.88409
_cell_length_c       12.9341
_cell_angle_alpha    90
_cell_angle_beta     90
_cell_angle_gamma    90

_space_group_name_H-M_alt    "P 1"
_space_group_IT_number       1

loop_
  _space_group_symop_operation_xyz
  'x, y, z'

loop_
  _atom_site_type_symbol
  _atom_site_label
  _atom_site_symmetry_multiplicity
  _atom_site_fract_x
  _atom_site_fract_y
  _atom_site_fract_z
  _atom_site_occupancy
  Gd  Gd1       1.0  0.42800  0.75000  0.13100  1.0000
  Gd  Gd2       1.0  0.78500  0.75000  0.13800  1.0000
  Gd  Gd3       1.0  0.04490  0.25000  0.14500  1.0000
  Gd  Gd4       1.0  0.54500  0.25000  0.35500  1.0000
  Gd  Gd5       1.0  0.28500  0.75000  0.36200  1.0000
  Gd  Gd6       1.0  0.92800  0.75000  0.36900  1.0000
  Gd  Gd7       1.0  0.07200  0.25000  0.63100  1.0000
  Gd  Gd8       1.0  0.71500  0.25000  0.63800  1.0000
  Gd  Gd9       1.0  0.45500  0.75000  0.64500  1.0000
  Gd  Gd10      1.0  0.95500  0.75000  0.85500  1.0000
  Gd  Gd11      1.0  0.21500  0.25000  0.86200  1.0000
  Gd  Gd12      1.0  0.57200  0.25000  0.86900  1.0000
  N   N1        1.0  0.96100  0.75000  0.20200  1.0000
  N   N2        1.0  0.46100  0.75000  0.29800  1.0000
  N   N3        1.0  0.53900  0.25000  0.70200  1.0000
  N   N4        1.0  0.03910  0.25000  0.79800  1.0000
  S   S1        1.0  0.86500  0.25000  0.00738  1.0000
  S   S2        1.0  0.58900  0.25000  0.10200  1.0000
  S   S3        1.0  0.27300  0.25000  0.19400  1.0000
  S   S4        1.0  0.77300  0.25000  0.30600  1.0000
  S   S5        1.0  0.08920  0.25000  0.39800  1.0000
  S   S6        1.0  0.36500  0.25000  0.49300  1.0000
  S   S7        1.0  0.63500  0.75000  0.50700  1.0000
  S   S8        1.0  0.91100  0.75000  0.60200  1.0000
  S   S9        1.0  0.22700  0.75000  0.69400  1.0000
  S   S10       1.0  0.72700  0.75000  0.80600  1.0000
  S   S11       1.0  0.41100  0.75000  0.89800  1.0000
  S   S12       1.0  0.13500  0.75000  0.99300  1.0000
