data_image0
_chemical_formula_structural       C4Fe10
_chemical_formula_sum              "C4 Fe10"
_cell_length_a       4.50284
_cell_length_b       4.98941
_cell_length_c       6.20248
_cell_angle_alpha    97.0456
_cell_angle_beta     111.284
_cell_angle_gamma    90

_space_group_name_H-M_alt    "P 1"
_space_group_IT_number       1

loop_
  _space_group_symop_operation_xyz
  'x, y, z'

loop_
  _atom_site_type_symbol
  _atom_site_label
  _atom_site_symmetry_multiplicity
  _atom_site_fract_x
  _atom_site_fract_y
  _atom_site_fract_z
  _atom_site_occupancy
  C   C1        1.0  0.80000  0.57900  0.22700  1.0000
  C   C2        1.0  0.42700  0.07940  0.22700  1.0000
  C   C3        1.0  0.57300  0.92100  0.77300  1.0000
  C   C4        1.0  0.20000  0.42100  0.77300  1.0000
  Fe  Fe1       1.0  0.43100  0.75000  0.00000  1.0000
  Fe  Fe2       1.0  0.56900  0.25000  0.00000  1.0000
  Fe  Fe3       1.0  0.01400  0.91800  0.19600  1.0000
  Fe  Fe4       1.0  0.18200  0.41800  0.19600  1.0000
  Fe  Fe5       1.0  0.63200  0.81100  0.42900  1.0000
  Fe  Fe6       1.0  0.79700  0.31100  0.42900  1.0000
  Fe  Fe7       1.0  0.20300  0.68900  0.57100  1.0000
  Fe  Fe8       1.0  0.36800  0.18900  0.57100  1.0000
  Fe  Fe9       1.0  0.81800  0.58200  0.80400  1.0000
  Fe  Fe10      1.0  0.98600  0.08220  0.80400  1.0000
