data_image0
_chemical_formula_structural       Si4Te12Tl12
_chemical_formula_sum              "Si4 Te12 Tl12"
_cell_length_a       9.56171
_cell_length_b       9.81158
_cell_length_c       10.5875
_cell_angle_alpha    89.1545
_cell_angle_beta     96.4969
_cell_angle_gamma    100.913

_space_group_name_H-M_alt    "P 1"
_space_group_IT_number       1

loop_
  _space_group_symop_operation_xyz
  'x, y, z'

loop_
  _atom_site_type_symbol
  _atom_site_label
  _atom_site_symmetry_multiplicity
  _atom_site_fract_x
  _atom_site_fract_y
  _atom_site_fract_z
  _atom_site_occupancy
  Si  Si1       1.0  0.08790  0.43000  0.01380  1.0000
  Si  Si2       1.0  0.57500  0.01700  0.41800  1.0000
  Si  Si3       1.0  0.42500  0.98300  0.58200  1.0000
  Si  Si4       1.0  0.91200  0.57000  0.98600  1.0000
  Te  Te1       1.0  0.68900  0.44200  0.07740  1.0000
  Te  Te2       1.0  0.00178  0.79500  0.10900  1.0000
  Te  Te3       1.0  0.42100  0.06560  0.21800  1.0000
  Te  Te4       1.0  0.12700  0.38000  0.24900  1.0000
  Te  Te5       1.0  0.68000  0.79800  0.40700  1.0000
  Te  Te6       1.0  0.77800  0.22300  0.47200  1.0000
  Te  Te7       1.0  0.22200  0.77700  0.52800  1.0000
  Te  Te8       1.0  0.32000  0.20200  0.59300  1.0000
  Te  Te9       1.0  0.87300  0.62000  0.75100  1.0000
  Te  Te10      1.0  0.57900  0.93400  0.78200  1.0000
  Te  Te11      1.0  0.99800  0.20500  0.89100  1.0000
  Te  Te12      1.0  0.31100  0.55800  0.92300  1.0000
  Tl  Tl1       1.0  0.64200  0.77600  0.08530  1.0000
  Tl  Tl2       1.0  0.80500  0.15200  0.15700  1.0000
  Tl  Tl3       1.0  0.31500  0.71300  0.24100  1.0000
  Tl  Tl4       1.0  0.90100  0.56600  0.34300  1.0000
  Tl  Tl5       1.0  0.10200  0.03950  0.35400  1.0000
  Tl  Tl6       1.0  0.48600  0.37600  0.35500  1.0000
  Tl  Tl7       1.0  0.51400  0.62400  0.64500  1.0000
  Tl  Tl8       1.0  0.89800  0.96100  0.64600  1.0000
  Tl  Tl9       1.0  0.09880  0.43400  0.65700  1.0000
  Tl  Tl10      1.0  0.68500  0.28700  0.75900  1.0000
  Tl  Tl11      1.0  0.19500  0.84800  0.84300  1.0000
  Tl  Tl12      1.0  0.35800  0.22400  0.91500  1.0000
