data_image0
_chemical_formula_structural       Hf10Sb18
_chemical_formula_sum              "Hf10 Sb18"
_cell_length_a       8.82182
_cell_length_b       8.82182
_cell_length_c       8.73732
_cell_angle_alpha    90
_cell_angle_beta     90
_cell_angle_gamma    90

_space_group_name_H-M_alt    "P 1"
_space_group_IT_number       1

loop_
  _space_group_symop_operation_xyz
  'x, y, z'

loop_
  _atom_site_type_symbol
  _atom_site_label
  _atom_site_symmetry_multiplicity
  _atom_site_fract_x
  _atom_site_fract_y
  _atom_site_fract_z
  _atom_site_occupancy
  Hf  Hf1       1.0  0.75000  0.75000  0.25500  1.0000
  Hf  Hf2       1.0  0.95700  0.14500  0.26600  1.0000
  Hf  Hf3       1.0  0.54300  0.35500  0.26600  1.0000
  Hf  Hf4       1.0  0.14500  0.54300  0.26600  1.0000
  Hf  Hf5       1.0  0.35500  0.95700  0.26600  1.0000
  Hf  Hf6       1.0  0.64500  0.04340  0.73400  1.0000
  Hf  Hf7       1.0  0.85500  0.45700  0.73400  1.0000
  Hf  Hf8       1.0  0.45700  0.64500  0.73400  1.0000
  Hf  Hf9       1.0  0.04340  0.85500  0.73400  1.0000
  Hf  Hf10      1.0  0.25000  0.25000  0.74500  1.0000
  Sb  Sb1       1.0  0.67000  0.51900  0.00205  1.0000
  Sb  Sb2       1.0  0.98100  0.67000  0.00205  1.0000
  Sb  Sb3       1.0  0.51900  0.83000  0.00205  1.0000
  Sb  Sb4       1.0  0.83000  0.98100  0.00205  1.0000
  Sb  Sb5       1.0  0.65300  0.05310  0.38200  1.0000
  Sb  Sb6       1.0  0.84700  0.44700  0.38200  1.0000
  Sb  Sb7       1.0  0.44700  0.65300  0.38200  1.0000
  Sb  Sb8       1.0  0.05310  0.84700  0.38200  1.0000
  Sb  Sb9       1.0  0.25000  0.25000  0.39300  1.0000
  Sb  Sb10      1.0  0.75000  0.75000  0.60800  1.0000
  Sb  Sb11      1.0  0.94700  0.15300  0.61800  1.0000
  Sb  Sb12      1.0  0.55300  0.34700  0.61800  1.0000
  Sb  Sb13      1.0  0.15300  0.55300  0.61800  1.0000
  Sb  Sb14      1.0  0.34700  0.94700  0.61800  1.0000
  Sb  Sb15      1.0  0.17000  0.01880  0.99800  1.0000
  Sb  Sb16      1.0  0.48100  0.17000  0.99800  1.0000
  Sb  Sb17      1.0  0.01880  0.33000  0.99800  1.0000
  Sb  Sb18      1.0  0.33000  0.48100  0.99800  1.0000
