data_image0
_chemical_formula_structural       Ba4Nd8S16
_chemical_formula_sum              "Ba4 Nd8 S16"
_cell_length_a       12.4452
_cell_length_b       4.19204
_cell_length_c       14.9589
_cell_angle_alpha    90
_cell_angle_beta     90
_cell_angle_gamma    90

_space_group_name_H-M_alt    "P 1"
_space_group_IT_number       1

loop_
  _space_group_symop_operation_xyz
  'x, y, z'

loop_
  _atom_site_type_symbol
  _atom_site_label
  _atom_site_symmetry_multiplicity
  _atom_site_fract_x
  _atom_site_fract_y
  _atom_site_fract_z
  _atom_site_occupancy
  Ba  Ba1       1.0  0.74400  0.75000  0.16000  1.0000
  Ba  Ba2       1.0  0.24400  0.75000  0.34000  1.0000
  Ba  Ba3       1.0  0.75600  0.25000  0.66000  1.0000
  Ba  Ba4       1.0  0.25600  0.25000  0.84000  1.0000
  Nd  Nd1       1.0  0.42200  0.25000  0.10400  1.0000
  Nd  Nd2       1.0  0.07340  0.75000  0.10800  1.0000
  Nd  Nd3       1.0  0.57300  0.75000  0.39200  1.0000
  Nd  Nd4       1.0  0.92200  0.25000  0.39600  1.0000
  Nd  Nd5       1.0  0.07840  0.75000  0.60400  1.0000
  Nd  Nd6       1.0  0.42700  0.25000  0.60800  1.0000
  Nd  Nd7       1.0  0.92700  0.25000  0.89200  1.0000
  Nd  Nd8       1.0  0.57800  0.75000  0.89600  1.0000
  S   S1        1.0  0.63000  0.25000  0.02300  1.0000
  S   S2        1.0  0.92000  0.25000  0.07960  1.0000
  S   S3        1.0  0.20800  0.25000  0.17400  1.0000
  S   S4        1.0  0.47900  0.75000  0.21800  1.0000
  S   S5        1.0  0.97900  0.75000  0.28200  1.0000
  S   S6        1.0  0.70800  0.25000  0.32600  1.0000
  S   S7        1.0  0.42000  0.25000  0.42000  1.0000
  S   S8        1.0  0.13000  0.25000  0.47700  1.0000
  S   S9        1.0  0.87000  0.75000  0.52300  1.0000
  S   S10       1.0  0.58000  0.75000  0.58000  1.0000
  S   S11       1.0  0.29200  0.75000  0.67400  1.0000
  S   S12       1.0  0.02060  0.25000  0.71800  1.0000
  S   S13       1.0  0.52100  0.25000  0.78200  1.0000
  S   S14       1.0  0.79200  0.75000  0.82600  1.0000
  S   S15       1.0  0.08020  0.75000  0.92000  1.0000
  S   S16       1.0  0.37000  0.75000  0.97700  1.0000
