data_image0
_chemical_formula_structural       Ca4Lu8S16
_chemical_formula_sum              "Ca4 Lu8 S16"
_cell_length_a       12.7928
_cell_length_b       3.82879
_cell_length_c       12.9423
_cell_angle_alpha    90
_cell_angle_beta     90
_cell_angle_gamma    90

_space_group_name_H-M_alt    "P 1"
_space_group_IT_number       1

loop_
  _space_group_symop_operation_xyz
  'x, y, z'

loop_
  _atom_site_type_symbol
  _atom_site_label
  _atom_site_symmetry_multiplicity
  _atom_site_fract_x
  _atom_site_fract_y
  _atom_site_fract_z
  _atom_site_occupancy
  Ca  Ca1       1.0  0.87000  0.25000  0.08420  1.0000
  Ca  Ca2       1.0  0.37000  0.25000  0.41600  1.0000
  Ca  Ca3       1.0  0.63000  0.75000  0.58400  1.0000
  Ca  Ca4       1.0  0.13000  0.75000  0.91600  1.0000
  Lu  Lu1       1.0  0.39300  0.75000  0.08170  1.0000
  Lu  Lu2       1.0  0.14800  0.25000  0.20200  1.0000
  Lu  Lu3       1.0  0.64800  0.25000  0.29800  1.0000
  Lu  Lu4       1.0  0.89300  0.75000  0.41800  1.0000
  Lu  Lu5       1.0  0.10700  0.25000  0.58200  1.0000
  Lu  Lu6       1.0  0.35200  0.75000  0.70200  1.0000
  Lu  Lu7       1.0  0.85200  0.75000  0.79800  1.0000
  Lu  Lu8       1.0  0.60700  0.25000  0.91800  1.0000
  S   S1        1.0  0.25800  0.25000  0.02530  1.0000
  S   S2        1.0  0.03160  0.75000  0.11800  1.0000
  S   S3        1.0  0.53300  0.25000  0.11900  1.0000
  S   S4        1.0  0.78300  0.75000  0.23900  1.0000
  S   S5        1.0  0.28300  0.75000  0.26100  1.0000
  S   S6        1.0  0.03300  0.25000  0.38100  1.0000
  S   S7        1.0  0.53200  0.75000  0.38200  1.0000
  S   S8        1.0  0.75800  0.25000  0.47500  1.0000
  S   S9        1.0  0.24200  0.75000  0.52500  1.0000
  S   S10       1.0  0.46800  0.25000  0.61800  1.0000
  S   S11       1.0  0.96700  0.75000  0.61900  1.0000
  S   S12       1.0  0.71700  0.25000  0.73900  1.0000
  S   S13       1.0  0.21700  0.25000  0.76100  1.0000
  S   S14       1.0  0.46700  0.75000  0.88100  1.0000
  S   S15       1.0  0.96800  0.25000  0.88200  1.0000
  S   S16       1.0  0.74200  0.75000  0.97500  1.0000
