data_image0
_chemical_formula_structural       C4Co12Ta12
_chemical_formula_sum              "C4 Co12 Ta12"
_cell_length_a       7.99052
_cell_length_b       7.99052
_cell_length_c       7.99052
_cell_angle_alpha    120
_cell_angle_beta     90
_cell_angle_gamma    120

_space_group_name_H-M_alt    "P 1"
_space_group_IT_number       1

loop_
  _space_group_symop_operation_xyz
  'x, y, z'

loop_
  _atom_site_type_symbol
  _atom_site_label
  _atom_site_symmetry_multiplicity
  _atom_site_fract_x
  _atom_site_fract_y
  _atom_site_fract_z
  _atom_site_occupancy
  C   C1        1.0  0.37500  0.25000  0.12500  1.0000
  C   C2        1.0  0.87500  0.25000  0.12500  1.0000
  C   C3        1.0  0.87500  0.75000  0.12500  1.0000
  C   C4        1.0  0.87500  0.75000  0.62500  1.0000
  Co  Co1       1.0  0.37500  0.75000  0.12500  1.0000
  Co  Co2       1.0  0.57900  0.15700  0.42100  1.0000
  Co  Co3       1.0  0.26400  0.84300  0.42100  1.0000
  Co  Co4       1.0  0.57900  0.84300  0.42100  1.0000
  Co  Co5       1.0  0.17100  0.34300  0.51400  1.0000
  Co  Co6       1.0  0.37500  0.25000  0.62500  1.0000
  Co  Co7       1.0  0.87500  0.25000  0.62500  1.0000
  Co  Co8       1.0  0.37500  0.75000  0.62500  1.0000
  Co  Co9       1.0  0.57900  0.15700  0.73600  1.0000
  Co  Co10      1.0  0.17100  0.34300  0.82900  1.0000
  Co  Co11      1.0  0.17100  0.65700  0.82900  1.0000
  Co  Co12      1.0  0.48600  0.65700  0.82900  1.0000
  Ta  Ta1       1.0  0.55200  0.10300  0.05150  1.0000
  Ta  Ta2       1.0  0.55200  0.50000  0.05150  1.0000
  Ta  Ta3       1.0  0.94900  0.50000  0.05150  1.0000
  Ta  Ta4       1.0  0.19900  0.00000  0.19900  1.0000
  Ta  Ta5       1.0  0.80100  0.00000  0.19900  1.0000
  Ta  Ta6       1.0  0.19900  0.39700  0.19900  1.0000
  Ta  Ta7       1.0  0.55200  0.50000  0.44900  1.0000
  Ta  Ta8       1.0  0.94900  0.50000  0.44900  1.0000
  Ta  Ta9       1.0  0.94900  0.89700  0.44900  1.0000
  Ta  Ta10      1.0  0.19900  0.00000  0.80100  1.0000
  Ta  Ta11      1.0  0.80100  0.60300  0.80100  1.0000
  Ta  Ta12      1.0  0.80100  0.00000  0.80100  1.0000
