data_image0
_chemical_formula_structural       Dy12N4S12
_chemical_formula_sum              "Dy12 N4 S12"
_cell_length_a       11.929
_cell_length_b       3.82629
_cell_length_c       12.883
_cell_angle_alpha    90
_cell_angle_beta     90
_cell_angle_gamma    90

_space_group_name_H-M_alt    "P 1"
_space_group_IT_number       1

loop_
  _space_group_symop_operation_xyz
  'x, y, z'

loop_
  _atom_site_type_symbol
  _atom_site_label
  _atom_site_symmetry_multiplicity
  _atom_site_fract_x
  _atom_site_fract_y
  _atom_site_fract_z
  _atom_site_occupancy
  Dy  Dy1       1.0  0.43300  0.75000  0.13200  1.0000
  Dy  Dy2       1.0  0.78800  0.75000  0.14000  1.0000
  Dy  Dy3       1.0  0.04730  0.25000  0.14200  1.0000
  Dy  Dy4       1.0  0.54700  0.25000  0.35800  1.0000
  Dy  Dy5       1.0  0.28800  0.75000  0.36000  1.0000
  Dy  Dy6       1.0  0.93300  0.75000  0.36800  1.0000
  Dy  Dy7       1.0  0.06660  0.25000  0.63200  1.0000
  Dy  Dy8       1.0  0.71200  0.25000  0.64000  1.0000
  Dy  Dy9       1.0  0.45300  0.75000  0.64200  1.0000
  Dy  Dy10      1.0  0.95300  0.75000  0.85800  1.0000
  Dy  Dy11      1.0  0.21200  0.25000  0.86000  1.0000
  Dy  Dy12      1.0  0.56700  0.25000  0.86800  1.0000
  N   N1        1.0  0.96500  0.75000  0.20100  1.0000
  N   N2        1.0  0.46500  0.75000  0.29900  1.0000
  N   N3        1.0  0.53500  0.25000  0.70100  1.0000
  N   N4        1.0  0.03500  0.25000  0.79900  1.0000
  S   S1        1.0  0.86600  0.25000  0.00905  1.0000
  S   S2        1.0  0.59300  0.25000  0.09970  1.0000
  S   S3        1.0  0.27500  0.25000  0.19200  1.0000
  S   S4        1.0  0.77500  0.25000  0.30800  1.0000
  S   S5        1.0  0.09300  0.25000  0.40000  1.0000
  S   S6        1.0  0.36600  0.25000  0.49100  1.0000
  S   S7        1.0  0.63400  0.75000  0.50900  1.0000
  S   S8        1.0  0.90700  0.75000  0.60000  1.0000
  S   S9        1.0  0.22500  0.75000  0.69200  1.0000
  S   S10       1.0  0.72500  0.75000  0.80800  1.0000
  S   S11       1.0  0.40700  0.75000  0.90000  1.0000
  S   S12       1.0  0.13400  0.75000  0.99100  1.0000
