data_image0
_chemical_formula_structural       F4Gd4Mo4O16
_chemical_formula_sum              "F4 Gd4 Mo4 O16"
_cell_length_a       5.19584
_cell_length_b       12.3119
_cell_length_c       6.67656
_cell_angle_alpha    90
_cell_angle_beta     112.986
_cell_angle_gamma    90

_space_group_name_H-M_alt    "P 1"
_space_group_IT_number       1

loop_
  _space_group_symop_operation_xyz
  'x, y, z'

loop_
  _atom_site_type_symbol
  _atom_site_label
  _atom_site_symmetry_multiplicity
  _atom_site_fract_x
  _atom_site_fract_y
  _atom_site_fract_z
  _atom_site_occupancy
  F   F1        1.0  0.44800  0.10100  0.03500  1.0000
  F   F2        1.0  0.55200  0.60100  0.46500  1.0000
  F   F3        1.0  0.44800  0.39900  0.53500  1.0000
  F   F4        1.0  0.55200  0.89900  0.96500  1.0000
  Gd  Gd1       1.0  0.36200  0.94800  0.20000  1.0000
  Gd  Gd2       1.0  0.63800  0.44800  0.30000  1.0000
  Gd  Gd3       1.0  0.36200  0.55200  0.70000  1.0000
  Gd  Gd4       1.0  0.63800  0.05150  0.80000  1.0000
  Mo  Mo1       1.0  0.07740  0.64400  0.13000  1.0000
  Mo  Mo2       1.0  0.92300  0.14400  0.37000  1.0000
  Mo  Mo3       1.0  0.07740  0.85600  0.63000  1.0000
  Mo  Mo4       1.0  0.92300  0.35600  0.87000  1.0000
  O   O1        1.0  0.30800  0.56500  0.03780  1.0000
  O   O2        1.0  0.24100  0.34400  0.09320  1.0000
  O   O3        1.0  0.99500  0.06920  0.16200  1.0000
  O   O4        1.0  0.19500  0.77700  0.21000  1.0000
  O   O5        1.0  0.80500  0.27700  0.29000  1.0000
  O   O6        1.0  0.00511  0.56900  0.33800  1.0000
  O   O7        1.0  0.75900  0.84400  0.40700  1.0000
  O   O8        1.0  0.69200  0.06490  0.46200  1.0000
  O   O9        1.0  0.30800  0.93500  0.53800  1.0000
  O   O10       1.0  0.24100  0.15600  0.59300  1.0000
  O   O11       1.0  0.99500  0.43100  0.66200  1.0000
  O   O12       1.0  0.19500  0.72300  0.71000  1.0000
  O   O13       1.0  0.80500  0.22300  0.79000  1.0000
  O   O14       1.0  0.00511  0.93100  0.83800  1.0000
  O   O15       1.0  0.75900  0.65600  0.90700  1.0000
  O   O16       1.0  0.69200  0.43500  0.96200  1.0000
