data_image0
_chemical_formula_structural       Cu18Eu2Sn8
_chemical_formula_sum              "Cu18 Eu2 Sn8"
_cell_length_a       8.63082
_cell_length_b       8.63082
_cell_length_c       8.7034
_cell_angle_alpha    119.725
_cell_angle_beta     119.725
_cell_angle_gamma    90

_space_group_name_H-M_alt    "P 1"
_space_group_IT_number       1

loop_
  _space_group_symop_operation_xyz
  'x, y, z'

loop_
  _atom_site_type_symbol
  _atom_site_label
  _atom_site_symmetry_multiplicity
  _atom_site_fract_x
  _atom_site_fract_y
  _atom_site_fract_z
  _atom_site_occupancy
  Cu  Cu1       1.0  0.50000  0.00000  0.00000  1.0000
  Cu  Cu2       1.0  0.79900  0.05430  0.00000  1.0000
  Cu  Cu3       1.0  0.05430  0.20100  0.00000  1.0000
  Cu  Cu4       1.0  0.55400  0.29900  0.00000  1.0000
  Cu  Cu5       1.0  0.29900  0.44600  0.00000  1.0000
  Cu  Cu6       1.0  0.00000  0.50000  0.00000  1.0000
  Cu  Cu7       1.0  0.70100  0.55400  0.00000  1.0000
  Cu  Cu8       1.0  0.44600  0.70100  0.00000  1.0000
  Cu  Cu9       1.0  0.94600  0.79900  0.00000  1.0000
  Cu  Cu10      1.0  0.20100  0.94600  0.00000  1.0000
  Cu  Cu11      1.0  0.56600  0.06560  0.34800  1.0000
  Cu  Cu12      1.0  0.78200  0.28200  0.34800  1.0000
  Cu  Cu13      1.0  0.28200  0.56600  0.34800  1.0000
  Cu  Cu14      1.0  0.06560  0.78200  0.34800  1.0000
  Cu  Cu15      1.0  0.93400  0.21800  0.65200  1.0000
  Cu  Cu16      1.0  0.71800  0.43400  0.65200  1.0000
  Cu  Cu17      1.0  0.21800  0.71800  0.65200  1.0000
  Cu  Cu18      1.0  0.43400  0.93400  0.65200  1.0000
  Eu  Eu1       1.0  0.25000  0.25000  0.50000  1.0000
  Eu  Eu2       1.0  0.75000  0.75000  0.50000  1.0000
  Sn  Sn1       1.0  0.44100  0.31300  0.25400  1.0000
  Sn  Sn2       1.0  0.94100  0.44100  0.25400  1.0000
  Sn  Sn3       1.0  0.31300  0.81300  0.25400  1.0000
  Sn  Sn4       1.0  0.81300  0.94100  0.25400  1.0000
  Sn  Sn5       1.0  0.18700  0.05910  0.74600  1.0000
  Sn  Sn6       1.0  0.68700  0.18700  0.74600  1.0000
  Sn  Sn7       1.0  0.05910  0.55900  0.74600  1.0000
  Sn  Sn8       1.0  0.55900  0.68700  0.74600  1.0000
