data_image0
_chemical_formula_structural       Ge8Ni18Pr2
_chemical_formula_sum              "Ge8 Ni18 Pr2"
_cell_length_a       7.98725
_cell_length_b       7.98725
_cell_length_c       8.16347
_cell_angle_alpha    119.288
_cell_angle_beta     119.288
_cell_angle_gamma    90

_space_group_name_H-M_alt    "P 1"
_space_group_IT_number       1

loop_
  _space_group_symop_operation_xyz
  'x, y, z'

loop_
  _atom_site_type_symbol
  _atom_site_label
  _atom_site_symmetry_multiplicity
  _atom_site_fract_x
  _atom_site_fract_y
  _atom_site_fract_z
  _atom_site_occupancy
  Ge  Ge1       1.0  0.79600  0.29600  0.24500  1.0000
  Ge  Ge2       1.0  0.29600  0.44900  0.24500  1.0000
  Ge  Ge3       1.0  0.94900  0.79600  0.24500  1.0000
  Ge  Ge4       1.0  0.44900  0.94900  0.24500  1.0000
  Ge  Ge5       1.0  0.55100  0.05100  0.75500  1.0000
  Ge  Ge6       1.0  0.05100  0.20400  0.75500  1.0000
  Ge  Ge7       1.0  0.70400  0.55100  0.75500  1.0000
  Ge  Ge8       1.0  0.20400  0.70400  0.75500  1.0000
  Ni  Ni1       1.0  0.50000  0.00000  0.00000  1.0000
  Ni  Ni2       1.0  0.20400  0.06740  0.00000  1.0000
  Ni  Ni3       1.0  0.93300  0.20400  0.00000  1.0000
  Ni  Ni4       1.0  0.43300  0.29600  0.00000  1.0000
  Ni  Ni5       1.0  0.70400  0.43300  0.00000  1.0000
  Ni  Ni6       1.0  0.00000  0.50000  0.00000  1.0000
  Ni  Ni7       1.0  0.29600  0.56700  0.00000  1.0000
  Ni  Ni8       1.0  0.56700  0.70400  0.00000  1.0000
  Ni  Ni9       1.0  0.06740  0.79600  0.00000  1.0000
  Ni  Ni10      1.0  0.79600  0.93300  0.00000  1.0000
  Ni  Ni11      1.0  0.80600  0.05650  0.36200  1.0000
  Ni  Ni12      1.0  0.55700  0.30600  0.36200  1.0000
  Ni  Ni13      1.0  0.05650  0.55700  0.36200  1.0000
  Ni  Ni14      1.0  0.30600  0.80600  0.36200  1.0000
  Ni  Ni15      1.0  0.69400  0.19400  0.63800  1.0000
  Ni  Ni16      1.0  0.94300  0.44300  0.63800  1.0000
  Ni  Ni17      1.0  0.44300  0.69400  0.63800  1.0000
  Ni  Ni18      1.0  0.19400  0.94300  0.63800  1.0000
  Pr  Pr1       1.0  0.25000  0.25000  0.50000  1.0000
  Pr  Pr2       1.0  0.75000  0.75000  0.50000  1.0000
