data_image0
_chemical_formula_structural       Br4N8Nd12Se4
_chemical_formula_sum              "Br4 N8 Nd12 Se4"
_cell_length_a       13.2833
_cell_length_b       4.11529
_cell_length_c       12.7168
_cell_angle_alpha    90
_cell_angle_beta     90
_cell_angle_gamma    90

_space_group_name_H-M_alt    "P 1"
_space_group_IT_number       1

loop_
  _space_group_symop_operation_xyz
  'x, y, z'

loop_
  _atom_site_type_symbol
  _atom_site_label
  _atom_site_symmetry_multiplicity
  _atom_site_fract_x
  _atom_site_fract_y
  _atom_site_fract_z
  _atom_site_occupancy
  Br  Br1       1.0  0.75600  0.25000  0.06210  1.0000
  Br  Br2       1.0  0.25600  0.25000  0.43800  1.0000
  Br  Br3       1.0  0.74400  0.75000  0.56200  1.0000
  Br  Br4       1.0  0.24400  0.75000  0.93800  1.0000
  N   N1        1.0  0.05300  0.25000  0.06640  1.0000
  N   N2        1.0  0.14200  0.75000  0.22700  1.0000
  N   N3        1.0  0.64200  0.75000  0.27300  1.0000
  N   N4        1.0  0.55300  0.25000  0.43400  1.0000
  N   N5        1.0  0.44700  0.75000  0.56600  1.0000
  N   N6        1.0  0.35800  0.25000  0.72700  1.0000
  N   N7        1.0  0.85800  0.25000  0.77300  1.0000
  N   N8        1.0  0.94700  0.75000  0.93400  1.0000
  Nd  Nd1       1.0  0.58900  0.75000  0.11100  1.0000
  Nd  Nd2       1.0  0.97900  0.75000  0.11400  1.0000
  Nd  Nd3       1.0  0.19700  0.25000  0.15500  1.0000
  Nd  Nd4       1.0  0.69700  0.25000  0.34500  1.0000
  Nd  Nd5       1.0  0.47900  0.75000  0.38600  1.0000
  Nd  Nd6       1.0  0.08880  0.75000  0.38900  1.0000
  Nd  Nd7       1.0  0.91100  0.25000  0.61100  1.0000
  Nd  Nd8       1.0  0.52100  0.25000  0.61400  1.0000
  Nd  Nd9       1.0  0.30300  0.75000  0.65500  1.0000
  Nd  Nd10      1.0  0.80300  0.75000  0.84500  1.0000
  Nd  Nd11      1.0  0.02120  0.25000  0.88600  1.0000
  Nd  Nd12      1.0  0.41100  0.25000  0.88900  1.0000
  Se  Se1       1.0  0.43500  0.25000  0.14400  1.0000
  Se  Se2       1.0  0.93500  0.25000  0.35600  1.0000
  Se  Se3       1.0  0.06510  0.75000  0.64400  1.0000
  Se  Se4       1.0  0.56500  0.75000  0.85600  1.0000
