data_image0
_chemical_formula_structural       B20Sm8
_chemical_formula_sum              "B20 Sm8"
_cell_length_a       7.202
_cell_length_b       7.20601
_cell_length_c       7.2355
_cell_angle_alpha    90
_cell_angle_beta     101.887
_cell_angle_gamma    90

_space_group_name_H-M_alt    "P 1"
_space_group_IT_number       1

loop_
  _space_group_symop_operation_xyz
  'x, y, z'

loop_
  _atom_site_type_symbol
  _atom_site_label
  _atom_site_symmetry_multiplicity
  _atom_site_fract_x
  _atom_site_fract_y
  _atom_site_fract_z
  _atom_site_occupancy
  B   B1        1.0  0.68300  0.50100  0.03660  1.0000
  B   B2        1.0  0.50300  0.32800  0.04020  1.0000
  B   B3        1.0  0.92100  0.50600  0.06780  1.0000
  B   B4        1.0  0.49900  0.09070  0.09070  1.0000
  B   B5        1.0  0.50300  0.53900  0.17300  1.0000
  B   B6        1.0  0.49700  0.03900  0.32700  1.0000
  B   B7        1.0  0.50100  0.59100  0.40900  1.0000
  B   B8        1.0  0.07910  0.00624  0.43200  1.0000
  B   B9        1.0  0.49700  0.82800  0.46000  1.0000
  B   B10       1.0  0.31700  0.00136  0.46300  1.0000
  B   B11       1.0  0.68300  0.99900  0.53700  1.0000
  B   B12       1.0  0.50300  0.17200  0.54000  1.0000
  B   B13       1.0  0.92100  0.99400  0.56800  1.0000
  B   B14       1.0  0.49900  0.40900  0.59100  1.0000
  B   B15       1.0  0.50300  0.96100  0.67300  1.0000
  B   B16       1.0  0.49700  0.46100  0.82700  1.0000
  B   B17       1.0  0.50100  0.90900  0.90900  1.0000
  B   B18       1.0  0.07910  0.49400  0.93200  1.0000
  B   B19       1.0  0.49700  0.67200  0.96000  1.0000
  B   B20       1.0  0.31700  0.49900  0.96300  1.0000
  Sm  Sm1       1.0  0.23400  0.81000  0.13100  1.0000
  Sm  Sm2       1.0  0.76000  0.81600  0.24100  1.0000
  Sm  Sm3       1.0  0.24000  0.31600  0.25900  1.0000
  Sm  Sm4       1.0  0.76600  0.31000  0.36900  1.0000
  Sm  Sm5       1.0  0.23400  0.69000  0.63100  1.0000
  Sm  Sm6       1.0  0.76000  0.68400  0.74100  1.0000
  Sm  Sm7       1.0  0.24000  0.18400  0.75900  1.0000
  Sm  Sm8       1.0  0.76600  0.19000  0.86900  1.0000
