data_image0
_chemical_formula_structural       Cl14O8P4V2
_chemical_formula_sum              "Cl14 O8 P4 V2"
_cell_length_a       8.08223
_cell_length_b       8.21581
_cell_length_c       10.352
_cell_angle_alpha    92.6018
_cell_angle_beta     103.854
_cell_angle_gamma    106.643

_space_group_name_H-M_alt    "P 1"
_space_group_IT_number       1

loop_
  _space_group_symop_operation_xyz
  'x, y, z'

loop_
  _atom_site_type_symbol
  _atom_site_label
  _atom_site_symmetry_multiplicity
  _atom_site_fract_x
  _atom_site_fract_y
  _atom_site_fract_z
  _atom_site_occupancy
  Cl  Cl1       1.0  0.89900  0.36600  0.13400  1.0000
  Cl  Cl2       1.0  0.35600  0.84100  0.14100  1.0000
  Cl  Cl3       1.0  0.89400  0.92000  0.20400  1.0000
  Cl  Cl4       1.0  0.58300  0.24600  0.34600  1.0000
  Cl  Cl5       1.0  0.32200  0.48500  0.35200  1.0000
  Cl  Cl6       1.0  0.00147  0.68600  0.42300  1.0000
  Cl  Cl7       1.0  0.71600  0.87200  0.44800  1.0000
  Cl  Cl8       1.0  0.28400  0.12800  0.55200  1.0000
  Cl  Cl9       1.0  0.99900  0.31400  0.57700  1.0000
  Cl  Cl10      1.0  0.67800  0.51500  0.64800  1.0000
  Cl  Cl11      1.0  0.41700  0.75400  0.65400  1.0000
  Cl  Cl12      1.0  0.10600  0.08030  0.79600  1.0000
  Cl  Cl13      1.0  0.64400  0.15900  0.85900  1.0000
  Cl  Cl14      1.0  0.10100  0.63400  0.86600  1.0000
  O   O1        1.0  0.51300  0.28900  0.05710  1.0000
  O   O2        1.0  0.30000  0.48300  0.06090  1.0000
  O   O3        1.0  0.22800  0.18000  0.15600  1.0000
  O   O4        1.0  0.64800  0.59700  0.23400  1.0000
  O   O5        1.0  0.35200  0.40300  0.76600  1.0000
  O   O6        1.0  0.77200  0.82000  0.84400  1.0000
  O   O7        1.0  0.70000  0.51700  0.93900  1.0000
  O   O8        1.0  0.48700  0.71100  0.94300  1.0000
  P   P1        1.0  0.33000  0.65100  0.00249  1.0000
  P   P2        1.0  0.79200  0.74600  0.31500  1.0000
  P   P3        1.0  0.20800  0.25400  0.68500  1.0000
  P   P4        1.0  0.67000  0.34900  0.99800  1.0000
  V   V1        1.0  0.39900  0.34700  0.19700  1.0000
  V   V2        1.0  0.60100  0.65300  0.80300  1.0000
