data_image0
_chemical_formula_structural       B2Mo8Zr18
_chemical_formula_sum              "B2 Mo8 Zr18"
_cell_length_a       8.64129
_cell_length_b       8.64169
_cell_length_c       8.59135
_cell_angle_alpha    90
_cell_angle_beta     90
_cell_angle_gamma    119.998

_space_group_name_H-M_alt    "P 1"
_space_group_IT_number       1

loop_
  _space_group_symop_operation_xyz
  'x, y, z'

loop_
  _atom_site_type_symbol
  _atom_site_label
  _atom_site_symmetry_multiplicity
  _atom_site_fract_x
  _atom_site_fract_y
  _atom_site_fract_z
  _atom_site_occupancy
  B   B1        1.0  0.33300  0.66700  0.25000  1.0000
  B   B2        1.0  0.66700  0.33300  0.75000  1.0000
  Mo  Mo1       1.0  0.00000  0.00000  0.00000  1.0000
  Mo  Mo2       1.0  0.22000  0.11000  0.25000  1.0000
  Mo  Mo3       1.0  0.89000  0.11000  0.25000  1.0000
  Mo  Mo4       1.0  0.89000  0.78000  0.25000  1.0000
  Mo  Mo5       1.0  0.00000  0.00000  0.50000  1.0000
  Mo  Mo6       1.0  0.11000  0.22000  0.75000  1.0000
  Mo  Mo7       1.0  0.11000  0.89000  0.75000  1.0000
  Mo  Mo8       1.0  0.78000  0.89000  0.75000  1.0000
  Zr  Zr1       1.0  0.20300  0.79700  0.05580  1.0000
  Zr  Zr2       1.0  0.59300  0.79700  0.05580  1.0000
  Zr  Zr3       1.0  0.20300  0.40700  0.05590  1.0000
  Zr  Zr4       1.0  0.53900  0.07880  0.25000  1.0000
  Zr  Zr5       1.0  0.53900  0.46100  0.25000  1.0000
  Zr  Zr6       1.0  0.92100  0.46100  0.25000  1.0000
  Zr  Zr7       1.0  0.20300  0.40700  0.44400  1.0000
  Zr  Zr8       1.0  0.20300  0.79700  0.44400  1.0000
  Zr  Zr9       1.0  0.59300  0.79700  0.44400  1.0000
  Zr  Zr10      1.0  0.40700  0.20300  0.55600  1.0000
  Zr  Zr11      1.0  0.79700  0.20300  0.55600  1.0000
  Zr  Zr12      1.0  0.79700  0.59300  0.55600  1.0000
  Zr  Zr13      1.0  0.07880  0.53900  0.75000  1.0000
  Zr  Zr14      1.0  0.46100  0.53900  0.75000  1.0000
  Zr  Zr15      1.0  0.46100  0.92100  0.75000  1.0000
  Zr  Zr16      1.0  0.79700  0.59300  0.94400  1.0000
  Zr  Zr17      1.0  0.40700  0.20300  0.94400  1.0000
  Zr  Zr18      1.0  0.79700  0.20300  0.94400  1.0000
