data_image0
_chemical_formula_structural       Bi8Eu4S16
_chemical_formula_sum              "Bi8 Eu4 S16"
_cell_length_a       11.6355
_cell_length_b       4.06833
_cell_length_c       14.6172
_cell_angle_alpha    90
_cell_angle_beta     90
_cell_angle_gamma    90

_space_group_name_H-M_alt    "P 1"
_space_group_IT_number       1

loop_
  _space_group_symop_operation_xyz
  'x, y, z'

loop_
  _atom_site_type_symbol
  _atom_site_label
  _atom_site_symmetry_multiplicity
  _atom_site_fract_x
  _atom_site_fract_y
  _atom_site_fract_z
  _atom_site_occupancy
  Bi  Bi1       1.0  0.89400  0.75000  0.10100  1.0000
  Bi  Bi2       1.0  0.56500  0.25000  0.10800  1.0000
  Bi  Bi3       1.0  0.06500  0.25000  0.39200  1.0000
  Bi  Bi4       1.0  0.39400  0.75000  0.39900  1.0000
  Bi  Bi5       1.0  0.60600  0.25000  0.60100  1.0000
  Bi  Bi6       1.0  0.93500  0.75000  0.60800  1.0000
  Bi  Bi7       1.0  0.43500  0.75000  0.89200  1.0000
  Bi  Bi8       1.0  0.10600  0.25000  0.89900  1.0000
  Eu  Eu1       1.0  0.23700  0.75000  0.15300  1.0000
  Eu  Eu2       1.0  0.73700  0.75000  0.34700  1.0000
  Eu  Eu3       1.0  0.26300  0.25000  0.65300  1.0000
  Eu  Eu4       1.0  0.76300  0.25000  0.84700  1.0000
  S   S1        1.0  0.33200  0.25000  0.01540  1.0000
  S   S2        1.0  0.06140  0.25000  0.08970  1.0000
  S   S3        1.0  0.76300  0.25000  0.20000  1.0000
  S   S4        1.0  0.48600  0.75000  0.21400  1.0000
  S   S5        1.0  0.98600  0.75000  0.28600  1.0000
  S   S6        1.0  0.26300  0.25000  0.30000  1.0000
  S   S7        1.0  0.56100  0.25000  0.41000  1.0000
  S   S8        1.0  0.83200  0.25000  0.48500  1.0000
  S   S9        1.0  0.16800  0.75000  0.51500  1.0000
  S   S10       1.0  0.43900  0.75000  0.59000  1.0000
  S   S11       1.0  0.73700  0.75000  0.70000  1.0000
  S   S12       1.0  0.01410  0.25000  0.71400  1.0000
  S   S13       1.0  0.51400  0.25000  0.78600  1.0000
  S   S14       1.0  0.23700  0.75000  0.80000  1.0000
  S   S15       1.0  0.93900  0.75000  0.91000  1.0000
  S   S16       1.0  0.66800  0.75000  0.98500  1.0000
