data_image0
_chemical_formula_structural       Ba4Dy8S16
_chemical_formula_sum              "Ba4 Dy8 S16"
_cell_length_a       12.3177
_cell_length_b       4.05147
_cell_length_c       14.5675
_cell_angle_alpha    90
_cell_angle_beta     90
_cell_angle_gamma    90

_space_group_name_H-M_alt    "P 1"
_space_group_IT_number       1

loop_
  _space_group_symop_operation_xyz
  'x, y, z'

loop_
  _atom_site_type_symbol
  _atom_site_label
  _atom_site_symmetry_multiplicity
  _atom_site_fract_x
  _atom_site_fract_y
  _atom_site_fract_z
  _atom_site_occupancy
  Ba  Ba1       1.0  0.74100  0.75000  0.16200  1.0000
  Ba  Ba2       1.0  0.24100  0.75000  0.33800  1.0000
  Ba  Ba3       1.0  0.75900  0.25000  0.66200  1.0000
  Ba  Ba4       1.0  0.25900  0.25000  0.83800  1.0000
  Dy  Dy1       1.0  0.42000  0.25000  0.10100  1.0000
  Dy  Dy2       1.0  0.06540  0.75000  0.10900  1.0000
  Dy  Dy3       1.0  0.56500  0.75000  0.39100  1.0000
  Dy  Dy4       1.0  0.92000  0.25000  0.39900  1.0000
  Dy  Dy5       1.0  0.08010  0.75000  0.60100  1.0000
  Dy  Dy6       1.0  0.43500  0.25000  0.60900  1.0000
  Dy  Dy7       1.0  0.93500  0.25000  0.89100  1.0000
  Dy  Dy8       1.0  0.58000  0.75000  0.89900  1.0000
  S   S1        1.0  0.62400  0.25000  0.02430  1.0000
  S   S2        1.0  0.91700  0.25000  0.07660  1.0000
  S   S3        1.0  0.20600  0.25000  0.16300  1.0000
  S   S4        1.0  0.47500  0.75000  0.21700  1.0000
  S   S5        1.0  0.97500  0.75000  0.28300  1.0000
  S   S6        1.0  0.70600  0.25000  0.33700  1.0000
  S   S7        1.0  0.41700  0.25000  0.42300  1.0000
  S   S8        1.0  0.12400  0.25000  0.47600  1.0000
  S   S9        1.0  0.87600  0.75000  0.52400  1.0000
  S   S10       1.0  0.58300  0.75000  0.57700  1.0000
  S   S11       1.0  0.29400  0.75000  0.66300  1.0000
  S   S12       1.0  0.02490  0.25000  0.71700  1.0000
  S   S13       1.0  0.52500  0.25000  0.78300  1.0000
  S   S14       1.0  0.79400  0.75000  0.83700  1.0000
  S   S15       1.0  0.08260  0.75000  0.92300  1.0000
  S   S16       1.0  0.37600  0.75000  0.97600  1.0000
