data_image0
_chemical_formula_structural       Bi4K4S16Si4
_chemical_formula_sum              "Bi4 K4 S16 Si4"
_cell_length_a       6.55132
_cell_length_b       6.76835
_cell_length_c       17.3476
_cell_angle_alpha    90
_cell_angle_beta     107.501
_cell_angle_gamma    90

_space_group_name_H-M_alt    "P 1"
_space_group_IT_number       1

loop_
  _space_group_symop_operation_xyz
  'x, y, z'

loop_
  _atom_site_type_symbol
  _atom_site_label
  _atom_site_symmetry_multiplicity
  _atom_site_fract_x
  _atom_site_fract_y
  _atom_site_fract_z
  _atom_site_occupancy
  Bi  Bi1       1.0  0.26100  0.80300  0.22200  1.0000
  Bi  Bi2       1.0  0.73900  0.30300  0.27800  1.0000
  Bi  Bi3       1.0  0.26100  0.69700  0.72200  1.0000
  Bi  Bi4       1.0  0.73900  0.19700  0.77800  1.0000
  K   K1        1.0  0.78200  0.25300  0.03510  1.0000
  K   K2        1.0  0.21800  0.75300  0.46500  1.0000
  K   K3        1.0  0.78200  0.24700  0.53500  1.0000
  K   K4        1.0  0.21800  0.74700  0.96500  1.0000
  S   S1        1.0  0.91400  0.75400  0.08270  1.0000
  S   S2        1.0  0.48700  0.49900  0.13100  1.0000
  S   S3        1.0  0.51300  0.99500  0.14200  1.0000
  S   S4        1.0  0.09840  0.18800  0.22000  1.0000
  S   S5        1.0  0.90200  0.68800  0.28000  1.0000
  S   S6        1.0  0.48700  0.49500  0.35800  1.0000
  S   S7        1.0  0.51300  0.99900  0.36900  1.0000
  S   S8        1.0  0.08630  0.25400  0.41700  1.0000
  S   S9        1.0  0.91400  0.74600  0.58300  1.0000
  S   S10       1.0  0.48700  0.00143  0.63100  1.0000
  S   S11       1.0  0.51300  0.50500  0.64200  1.0000
  S   S12       1.0  0.09840  0.31200  0.72000  1.0000
  S   S13       1.0  0.90200  0.81200  0.78000  1.0000
  S   S14       1.0  0.48700  0.00522  0.85800  1.0000
  S   S15       1.0  0.51300  0.50100  0.86900  1.0000
  S   S16       1.0  0.08630  0.24600  0.91700  1.0000
  Si  Si1       1.0  0.70800  0.73600  0.15700  1.0000
  Si  Si2       1.0  0.29200  0.23600  0.34300  1.0000
  Si  Si3       1.0  0.70800  0.76400  0.65700  1.0000
  Si  Si4       1.0  0.29200  0.26400  0.84300  1.0000
