data_image0
_chemical_formula_structural       Ba4Dy8Se16
_chemical_formula_sum              "Ba4 Dy8 Se16"
_cell_length_a       12.7942
_cell_length_b       4.20549
_cell_length_c       15.1815
_cell_angle_alpha    90
_cell_angle_beta     90
_cell_angle_gamma    90

_space_group_name_H-M_alt    "P 1"
_space_group_IT_number       1

loop_
  _space_group_symop_operation_xyz
  'x, y, z'

loop_
  _atom_site_type_symbol
  _atom_site_label
  _atom_site_symmetry_multiplicity
  _atom_site_fract_x
  _atom_site_fract_y
  _atom_site_fract_z
  _atom_site_occupancy
  Ba  Ba1       1.0  0.74100  0.75000  0.16400  1.0000
  Ba  Ba2       1.0  0.24100  0.75000  0.33600  1.0000
  Ba  Ba3       1.0  0.75900  0.25000  0.66400  1.0000
  Ba  Ba4       1.0  0.25900  0.25000  0.83600  1.0000
  Dy  Dy1       1.0  0.42200  0.25000  0.10000  1.0000
  Dy  Dy2       1.0  0.06620  0.75000  0.10900  1.0000
  Dy  Dy3       1.0  0.56600  0.75000  0.39100  1.0000
  Dy  Dy4       1.0  0.92200  0.25000  0.40000  1.0000
  Dy  Dy5       1.0  0.07830  0.75000  0.60000  1.0000
  Dy  Dy6       1.0  0.43400  0.25000  0.60900  1.0000
  Dy  Dy7       1.0  0.93400  0.25000  0.89100  1.0000
  Dy  Dy8       1.0  0.57800  0.75000  0.90000  1.0000
  Se  Se1       1.0  0.62700  0.25000  0.02450  1.0000
  Se  Se2       1.0  0.91600  0.25000  0.07750  1.0000
  Se  Se3       1.0  0.20700  0.25000  0.16400  1.0000
  Se  Se4       1.0  0.47700  0.75000  0.21700  1.0000
  Se  Se5       1.0  0.97700  0.75000  0.28300  1.0000
  Se  Se6       1.0  0.70700  0.25000  0.33600  1.0000
  Se  Se7       1.0  0.41600  0.25000  0.42300  1.0000
  Se  Se8       1.0  0.12700  0.25000  0.47600  1.0000
  Se  Se9       1.0  0.87300  0.75000  0.52400  1.0000
  Se  Se10      1.0  0.58400  0.75000  0.57700  1.0000
  Se  Se11      1.0  0.29300  0.75000  0.66400  1.0000
  Se  Se12      1.0  0.02300  0.25000  0.71700  1.0000
  Se  Se13      1.0  0.52300  0.25000  0.78300  1.0000
  Se  Se14      1.0  0.79300  0.75000  0.83600  1.0000
  Se  Se15      1.0  0.08390  0.75000  0.92300  1.0000
  Se  Se16      1.0  0.37300  0.75000  0.97600  1.0000
