data_image0
_chemical_formula_structural       Ag8K4S12Sb4
_chemical_formula_sum              "Ag8 K4 S12 Sb4"
_cell_length_a       6.84804
_cell_length_b       9.5147
_cell_length_c       11.0448
_cell_angle_alpha    91.0344
_cell_angle_beta     92.6965
_cell_angle_gamma    90.3582

_space_group_name_H-M_alt    "P 1"
_space_group_IT_number       1

loop_
  _space_group_symop_operation_xyz
  'x, y, z'

loop_
  _atom_site_type_symbol
  _atom_site_label
  _atom_site_symmetry_multiplicity
  _atom_site_fract_x
  _atom_site_fract_y
  _atom_site_fract_z
  _atom_site_occupancy
  Ag  Ag1       1.0  0.09500  0.83300  0.04780  1.0000
  Ag  Ag2       1.0  0.51600  0.73100  0.14100  1.0000
  Ag  Ag3       1.0  0.01030  0.10800  0.33900  1.0000
  Ag  Ag4       1.0  0.58900  0.84000  0.45400  1.0000
  Ag  Ag5       1.0  0.41100  0.16000  0.54600  1.0000
  Ag  Ag6       1.0  0.99000  0.89200  0.66100  1.0000
  Ag  Ag7       1.0  0.48400  0.26900  0.85900  1.0000
  Ag  Ag8       1.0  0.90500  0.16700  0.95200  1.0000
  K   K1        1.0  0.20200  0.42100  0.12700  1.0000
  K   K2        1.0  0.70500  0.42900  0.36800  1.0000
  K   K3        1.0  0.29500  0.57100  0.63200  1.0000
  K   K4        1.0  0.79800  0.57900  0.87300  1.0000
  S   S1        1.0  0.63700  0.28800  0.07640  1.0000
  S   S2        1.0  0.16700  0.08330  0.13800  1.0000
  S   S3        1.0  0.87900  0.66600  0.16800  1.0000
  S   S4        1.0  0.35700  0.65900  0.33600  1.0000
  S   S5        1.0  0.63500  0.08560  0.36300  1.0000
  S   S6        1.0  0.11300  0.30800  0.48300  1.0000
  S   S7        1.0  0.88700  0.69200  0.51700  1.0000
  S   S8        1.0  0.36500  0.91400  0.63700  1.0000
  S   S9        1.0  0.64300  0.34100  0.66400  1.0000
  S   S10       1.0  0.12100  0.33400  0.83200  1.0000
  S   S11       1.0  0.83300  0.91700  0.86200  1.0000
  S   S12       1.0  0.36300  0.71200  0.92400  1.0000
  Sb  Sb1       1.0  0.52900  0.05420  0.14700  1.0000
  Sb  Sb2       1.0  0.04790  0.79400  0.34200  1.0000
  Sb  Sb3       1.0  0.95200  0.20600  0.65800  1.0000
  Sb  Sb4       1.0  0.47100  0.94600  0.85300  1.0000
