data_image0
_chemical_formula_structural       Ba4Gd8S16
_chemical_formula_sum              "Ba4 Gd8 S16"
_cell_length_a       12.3405
_cell_length_b       4.08862
_cell_length_c       14.674
_cell_angle_alpha    90
_cell_angle_beta     90
_cell_angle_gamma    90

_space_group_name_H-M_alt    "P 1"
_space_group_IT_number       1

loop_
  _space_group_symop_operation_xyz
  'x, y, z'

loop_
  _atom_site_type_symbol
  _atom_site_label
  _atom_site_symmetry_multiplicity
  _atom_site_fract_x
  _atom_site_fract_y
  _atom_site_fract_z
  _atom_site_occupancy
  Ba  Ba1       1.0  0.74200  0.75000  0.16100  1.0000
  Ba  Ba2       1.0  0.24200  0.75000  0.33900  1.0000
  Ba  Ba3       1.0  0.75800  0.25000  0.66100  1.0000
  Ba  Ba4       1.0  0.25800  0.25000  0.83900  1.0000
  Gd  Gd1       1.0  0.42100  0.25000  0.10200  1.0000
  Gd  Gd2       1.0  0.06850  0.75000  0.10800  1.0000
  Gd  Gd3       1.0  0.56800  0.75000  0.39200  1.0000
  Gd  Gd4       1.0  0.92100  0.25000  0.39800  1.0000
  Gd  Gd5       1.0  0.07900  0.75000  0.60200  1.0000
  Gd  Gd6       1.0  0.43200  0.25000  0.60800  1.0000
  Gd  Gd7       1.0  0.93200  0.25000  0.89200  1.0000
  Gd  Gd8       1.0  0.57900  0.75000  0.89800  1.0000
  S   S1        1.0  0.62500  0.25000  0.02340  1.0000
  S   S2        1.0  0.91900  0.25000  0.07760  1.0000
  S   S3        1.0  0.20700  0.25000  0.16600  1.0000
  S   S4        1.0  0.47700  0.75000  0.21700  1.0000
  S   S5        1.0  0.97700  0.75000  0.28300  1.0000
  S   S6        1.0  0.70700  0.25000  0.33400  1.0000
  S   S7        1.0  0.41900  0.25000  0.42200  1.0000
  S   S8        1.0  0.12500  0.25000  0.47700  1.0000
  S   S9        1.0  0.87500  0.75000  0.52300  1.0000
  S   S10       1.0  0.58100  0.75000  0.57800  1.0000
  S   S11       1.0  0.29300  0.75000  0.66600  1.0000
  S   S12       1.0  0.02290  0.25000  0.71700  1.0000
  S   S13       1.0  0.52300  0.25000  0.78300  1.0000
  S   S14       1.0  0.79300  0.75000  0.83400  1.0000
  S   S15       1.0  0.08120  0.75000  0.92200  1.0000
  S   S16       1.0  0.37500  0.75000  0.97700  1.0000
