data_image0
_chemical_formula_structural       As4K6La2O16
_chemical_formula_sum              "As4 K6 La2 O16"
_cell_length_a       7.59475
_cell_length_b       5.86325
_cell_length_c       9.91813
_cell_angle_alpha    90
_cell_angle_beta     91.3038
_cell_angle_gamma    90

_space_group_name_H-M_alt    "P 1"
_space_group_IT_number       1

loop_
  _space_group_symop_operation_xyz
  'x, y, z'

loop_
  _atom_site_type_symbol
  _atom_site_label
  _atom_site_symmetry_multiplicity
  _atom_site_fract_x
  _atom_site_fract_y
  _atom_site_fract_z
  _atom_site_occupancy
  As  As1       1.0  0.25700  0.50400  0.08420  1.0000
  As  As2       1.0  0.70000  0.48000  0.42600  1.0000
  As  As3       1.0  0.30000  0.98000  0.57400  1.0000
  As  As4       1.0  0.74300  0.00421  0.91600  1.0000
  K   K1        1.0  0.69600  0.50300  0.08370  1.0000
  K   K2        1.0  0.00963  0.99300  0.19300  1.0000
  K   K3        1.0  0.13800  0.48400  0.40700  1.0000
  K   K4        1.0  0.86200  0.98400  0.59300  1.0000
  K   K5        1.0  0.99000  0.49300  0.80700  1.0000
  K   K6        1.0  0.30400  0.00301  0.91600  1.0000
  La  La1       1.0  0.51100  0.00786  0.29200  1.0000
  La  La2       1.0  0.48900  0.50800  0.70800  1.0000
  O   O1        1.0  0.68400  0.00898  0.08200  1.0000
  O   O2        1.0  0.03570  0.51600  0.10300  1.0000
  O   O3        1.0  0.33800  0.25800  0.15600  1.0000
  O   O4        1.0  0.35400  0.73400  0.16400  1.0000
  O   O5        1.0  0.74500  0.72100  0.33500  1.0000
  O   O6        1.0  0.78000  0.24500  0.34400  1.0000
  O   O7        1.0  0.20700  0.00000  0.41400  1.0000
  O   O8        1.0  0.47900  0.42700  0.44900  1.0000
  O   O9        1.0  0.52100  0.92700  0.55100  1.0000
  O   O10       1.0  0.79300  0.50000  0.58600  1.0000
  O   O11       1.0  0.22000  0.74500  0.65600  1.0000
  O   O12       1.0  0.25500  0.22100  0.66500  1.0000
  O   O13       1.0  0.64600  0.23400  0.83600  1.0000
  O   O14       1.0  0.66200  0.75800  0.84400  1.0000
  O   O15       1.0  0.96400  0.01610  0.89700  1.0000
  O   O16       1.0  0.31600  0.50900  0.91800  1.0000
