data_image0
_chemical_formula_structural       Ru8Sn8Zn12
_chemical_formula_sum              "Ru8 Sn8 Zn12"
_cell_length_a       8.28633
_cell_length_b       4.18019
_cell_length_c       13.8407
_cell_angle_alpha    90
_cell_angle_beta     90
_cell_angle_gamma    90

_space_group_name_H-M_alt    "P 1"
_space_group_IT_number       1

loop_
  _space_group_symop_operation_xyz
  'x, y, z'

loop_
  _atom_site_type_symbol
  _atom_site_label
  _atom_site_symmetry_multiplicity
  _atom_site_fract_x
  _atom_site_fract_y
  _atom_site_fract_z
  _atom_site_occupancy
  Ru  Ru1       1.0  0.65000  0.75000  0.13100  1.0000
  Ru  Ru2       1.0  0.04150  0.75000  0.14400  1.0000
  Ru  Ru3       1.0  0.54100  0.75000  0.35600  1.0000
  Ru  Ru4       1.0  0.15000  0.75000  0.36900  1.0000
  Ru  Ru5       1.0  0.85000  0.25000  0.63100  1.0000
  Ru  Ru6       1.0  0.45900  0.25000  0.64400  1.0000
  Ru  Ru7       1.0  0.95900  0.25000  0.85600  1.0000
  Ru  Ru8       1.0  0.35000  0.25000  0.86900  1.0000
  Sn  Sn1       1.0  0.14900  0.25000  0.02320  1.0000
  Sn  Sn2       1.0  0.34500  0.75000  0.19600  1.0000
  Sn  Sn3       1.0  0.84500  0.75000  0.30400  1.0000
  Sn  Sn4       1.0  0.64900  0.25000  0.47700  1.0000
  Sn  Sn5       1.0  0.35100  0.75000  0.52300  1.0000
  Sn  Sn6       1.0  0.15500  0.25000  0.69600  1.0000
  Sn  Sn7       1.0  0.65500  0.25000  0.80400  1.0000
  Sn  Sn8       1.0  0.85100  0.75000  0.97700  1.0000
  Zn  Zn1       1.0  0.53400  0.25000  0.04110  1.0000
  Zn  Zn2       1.0  0.84300  0.25000  0.13000  1.0000
  Zn  Zn3       1.0  0.59000  0.25000  0.24400  1.0000
  Zn  Zn4       1.0  0.09050  0.25000  0.25600  1.0000
  Zn  Zn5       1.0  0.34300  0.25000  0.37000  1.0000
  Zn  Zn6       1.0  0.03400  0.25000  0.45900  1.0000
  Zn  Zn7       1.0  0.96600  0.75000  0.54100  1.0000
  Zn  Zn8       1.0  0.65700  0.75000  0.63000  1.0000
  Zn  Zn9       1.0  0.91000  0.75000  0.74400  1.0000
  Zn  Zn10      1.0  0.41000  0.75000  0.75600  1.0000
  Zn  Zn11      1.0  0.15700  0.75000  0.87000  1.0000
  Zn  Zn12      1.0  0.46600  0.75000  0.95900  1.0000
