data_image0
_chemical_formula_structural       Dy4F4Mo4O16
_chemical_formula_sum              "Dy4 F4 Mo4 O16"
_cell_length_a       5.16203
_cell_length_b       12.1986
_cell_length_c       6.61574
_cell_angle_alpha    90.0016
_cell_angle_beta     113.107
_cell_angle_gamma    89.9902

_space_group_name_H-M_alt    "P 1"
_space_group_IT_number       1

loop_
  _space_group_symop_operation_xyz
  'x, y, z'

loop_
  _atom_site_type_symbol
  _atom_site_label
  _atom_site_symmetry_multiplicity
  _atom_site_fract_x
  _atom_site_fract_y
  _atom_site_fract_z
  _atom_site_occupancy
  Dy  Dy1       1.0  0.36200  0.94900  0.19900  1.0000
  Dy  Dy2       1.0  0.63800  0.44900  0.30100  1.0000
  Dy  Dy3       1.0  0.36200  0.55100  0.69900  1.0000
  Dy  Dy4       1.0  0.63700  0.05090  0.80100  1.0000
  F   F1        1.0  0.44900  0.10100  0.03550  1.0000
  F   F2        1.0  0.55000  0.60100  0.46400  1.0000
  F   F3        1.0  0.45000  0.39900  0.53600  1.0000
  F   F4        1.0  0.55000  0.89900  0.96500  1.0000
  Mo  Mo1       1.0  0.07610  0.64400  0.12900  1.0000
  Mo  Mo2       1.0  0.92400  0.14400  0.37100  1.0000
  Mo  Mo3       1.0  0.07610  0.85600  0.62900  1.0000
  Mo  Mo4       1.0  0.92400  0.35600  0.87100  1.0000
  O   O1        1.0  0.30800  0.56400  0.03650  1.0000
  O   O2        1.0  0.24400  0.34300  0.09720  1.0000
  O   O3        1.0  0.99800  0.06970  0.16100  1.0000
  O   O4        1.0  0.19400  0.77900  0.21000  1.0000
  O   O5        1.0  0.80600  0.27900  0.29000  1.0000
  O   O6        1.0  0.00248  0.57000  0.33900  1.0000
  O   O7        1.0  0.75600  0.84300  0.40300  1.0000
  O   O8        1.0  0.69200  0.06440  0.46300  1.0000
  O   O9        1.0  0.30800  0.93600  0.53700  1.0000
  O   O10       1.0  0.24400  0.15700  0.59700  1.0000
  O   O11       1.0  0.99800  0.43000  0.66100  1.0000
  O   O12       1.0  0.19400  0.72100  0.71000  1.0000
  O   O13       1.0  0.80600  0.22100  0.79000  1.0000
  O   O14       1.0  0.00222  0.93000  0.83900  1.0000
  O   O15       1.0  0.75600  0.65700  0.90300  1.0000
  O   O16       1.0  0.69200  0.43600  0.96300  1.0000
