data_image0
_chemical_formula_structural       Ag6P4S16Y2
_chemical_formula_sum              "Ag6 P4 S16 Y2"
_cell_length_a       9.30057
_cell_length_b       9.46226
_cell_length_c       9.75319
_cell_angle_alpha    119.065
_cell_angle_beta     118.476
_cell_angle_gamma    90

_space_group_name_H-M_alt    "P 1"
_space_group_IT_number       1

loop_
  _space_group_symop_operation_xyz
  'x, y, z'

loop_
  _atom_site_type_symbol
  _atom_site_label
  _atom_site_symmetry_multiplicity
  _atom_site_fract_x
  _atom_site_fract_y
  _atom_site_fract_z
  _atom_site_occupancy
  Ag  Ag1       1.0  0.42900  0.25000  0.00000  1.0000
  Ag  Ag2       1.0  0.57100  0.75000  0.00000  1.0000
  Ag  Ag3       1.0  0.53600  0.77400  0.30400  1.0000
  Ag  Ag4       1.0  0.76800  0.27400  0.30400  1.0000
  Ag  Ag5       1.0  0.46400  0.22600  0.69600  1.0000
  Ag  Ag6       1.0  0.23200  0.72600  0.69600  1.0000
  P   P1        1.0  0.85500  0.56700  0.19500  1.0000
  P   P2        1.0  0.34000  0.06750  0.19500  1.0000
  P   P3        1.0  0.66000  0.93300  0.80500  1.0000
  P   P4        1.0  0.14500  0.43300  0.80500  1.0000
  S   S1        1.0  0.86700  0.08020  0.08410  1.0000
  S   S2        1.0  0.21800  0.58000  0.08410  1.0000
  S   S3        1.0  0.67900  0.52300  0.25200  1.0000
  S   S4        1.0  0.57300  0.02300  0.25200  1.0000
  S   S5        1.0  0.37200  0.31400  0.27000  1.0000
  S   S6        1.0  0.89800  0.81400  0.27000  1.0000
  S   S7        1.0  0.07450  0.52000  0.33500  1.0000
  S   S8        1.0  0.26100  0.01950  0.33500  1.0000
  S   S9        1.0  0.92600  0.48000  0.66500  1.0000
  S   S10       1.0  0.73900  0.98000  0.66500  1.0000
  S   S11       1.0  0.10200  0.18600  0.73000  1.0000
  S   S12       1.0  0.62800  0.68600  0.73000  1.0000
  S   S13       1.0  0.32100  0.47700  0.74800  1.0000
  S   S14       1.0  0.42700  0.97700  0.74800  1.0000
  S   S15       1.0  0.13300  0.92000  0.91600  1.0000
  S   S16       1.0  0.78200  0.42000  0.91600  1.0000
  Y   Y1        1.0  0.03540  0.25000  0.00000  1.0000
  Y   Y2        1.0  0.96500  0.75000  0.00000  1.0000
