data_image0
_chemical_formula_structural       B4Bi4O16Pb4
_chemical_formula_sum              "B4 Bi4 O16 Pb4"
_cell_length_a       7.51845
_cell_length_b       7.33548
_cell_length_c       7.68941
_cell_angle_alpha    90.0016
_cell_angle_beta     92.7304
_cell_angle_gamma    90.0022

_space_group_name_H-M_alt    "P 1"
_space_group_IT_number       1

loop_
  _space_group_symop_operation_xyz
  'x, y, z'

loop_
  _atom_site_type_symbol
  _atom_site_label
  _atom_site_symmetry_multiplicity
  _atom_site_fract_x
  _atom_site_fract_y
  _atom_site_fract_z
  _atom_site_occupancy
  B   B1        1.0  0.01250  0.24200  0.01190  1.0000
  B   B2        1.0  0.48700  0.74200  0.48800  1.0000
  B   B3        1.0  0.51300  0.25800  0.51200  1.0000
  B   B4        1.0  0.98700  0.75800  0.98800  1.0000
  Bi  Bi1       1.0  0.33700  0.50000  0.15700  1.0000
  Bi  Bi2       1.0  0.16300  0.00000  0.34300  1.0000
  Bi  Bi3       1.0  0.83700  0.00000  0.65700  1.0000
  Bi  Bi4       1.0  0.66300  0.50000  0.84300  1.0000
  O   O1        1.0  0.81500  0.71700  0.03090  1.0000
  O   O2        1.0  0.60400  0.39800  0.10600  1.0000
  O   O3        1.0  0.12400  0.76500  0.11300  1.0000
  O   O4        1.0  0.97600  0.21000  0.18500  1.0000
  O   O5        1.0  0.52400  0.71000  0.31500  1.0000
  O   O6        1.0  0.37600  0.26500  0.38700  1.0000
  O   O7        1.0  0.89600  0.89800  0.39400  1.0000
  O   O8        1.0  0.68500  0.21700  0.46900  1.0000
  O   O9        1.0  0.31500  0.78300  0.53100  1.0000
  O   O10       1.0  0.10400  0.10200  0.60600  1.0000
  O   O11       1.0  0.62400  0.73500  0.61300  1.0000
  O   O12       1.0  0.47600  0.29000  0.68500  1.0000
  O   O13       1.0  0.02430  0.79000  0.81500  1.0000
  O   O14       1.0  0.87600  0.23500  0.88700  1.0000
  O   O15       1.0  0.39600  0.60200  0.89400  1.0000
  O   O16       1.0  0.18500  0.28300  0.96900  1.0000
  Pb  Pb1       1.0  0.68300  0.09690  0.18200  1.0000
  Pb  Pb2       1.0  0.81700  0.59700  0.31800  1.0000
  Pb  Pb3       1.0  0.18300  0.40300  0.68200  1.0000
  Pb  Pb4       1.0  0.31700  0.90300  0.81800  1.0000
