data_image0
_chemical_formula_structural       Ag4Mn4O16P4
_chemical_formula_sum              "Ag4 Mn4 O16 P4"
_cell_length_a       9.68856
_cell_length_b       5.67069
_cell_length_c       6.6483
_cell_angle_alpha    102.456
_cell_angle_beta     105.895
_cell_angle_gamma    80.839

_space_group_name_H-M_alt    "P 1"
_space_group_IT_number       1

loop_
  _space_group_symop_operation_xyz
  'x, y, z'

loop_
  _atom_site_type_symbol
  _atom_site_label
  _atom_site_symmetry_multiplicity
  _atom_site_fract_x
  _atom_site_fract_y
  _atom_site_fract_z
  _atom_site_occupancy
  Ag  Ag1       1.0  0.12100  0.31200  0.37200  1.0000
  Ag  Ag2       1.0  0.24500  0.83100  0.47900  1.0000
  Ag  Ag3       1.0  0.75500  0.16900  0.52100  1.0000
  Ag  Ag4       1.0  0.87900  0.68800  0.62800  1.0000
  Mn  Mn1       1.0  0.78700  0.33800  0.06390  1.0000
  Mn  Mn2       1.0  0.42800  0.21900  0.16800  1.0000
  Mn  Mn3       1.0  0.57200  0.78100  0.83200  1.0000
  Mn  Mn4       1.0  0.21300  0.66200  0.93600  1.0000
  O   O1        1.0  0.19900  0.22900  0.06510  1.0000
  O   O2        1.0  0.06810  0.78100  0.12600  1.0000
  O   O3        1.0  0.56100  0.87300  0.16300  1.0000
  O   O4        1.0  0.61300  0.43000  0.21700  1.0000
  O   O5        1.0  0.37500  0.65100  0.23600  1.0000
  O   O6        1.0  0.88100  0.08030  0.27000  1.0000
  O   O7        1.0  0.89700  0.62700  0.28300  1.0000
  O   O8        1.0  0.40100  0.22300  0.47100  1.0000
  O   O9        1.0  0.59900  0.77700  0.52900  1.0000
  O   O10       1.0  0.10300  0.37300  0.71700  1.0000
  O   O11       1.0  0.11900  0.92000  0.73000  1.0000
  O   O12       1.0  0.62500  0.34900  0.76400  1.0000
  O   O13       1.0  0.38700  0.57000  0.78300  1.0000
  O   O14       1.0  0.43900  0.12700  0.83700  1.0000
  O   O15       1.0  0.93200  0.21900  0.87400  1.0000
  O   O16       1.0  0.80100  0.77100  0.93500  1.0000
  P   P1        1.0  0.91400  0.81600  0.15400  1.0000
  P   P2        1.0  0.53900  0.68900  0.29200  1.0000
  P   P3        1.0  0.46100  0.31100  0.70800  1.0000
  P   P4        1.0  0.08620  0.18400  0.84600  1.0000
