data_image0
_chemical_formula_structural       Ag8As4Cs4S12
_chemical_formula_sum              "Ag8 As4 Cs4 S12"
_cell_length_a       10.1664
_cell_length_b       8.53306
_cell_length_c       9.52723
_cell_angle_alpha    90
_cell_angle_beta     108.009
_cell_angle_gamma    90

_space_group_name_H-M_alt    "P 1"
_space_group_IT_number       1

loop_
  _space_group_symop_operation_xyz
  'x, y, z'

loop_
  _atom_site_type_symbol
  _atom_site_label
  _atom_site_symmetry_multiplicity
  _atom_site_fract_x
  _atom_site_fract_y
  _atom_site_fract_z
  _atom_site_occupancy
  Ag  Ag1       1.0  0.44200  0.24000  0.06540  1.0000
  Ag  Ag2       1.0  0.32700  0.97200  0.21700  1.0000
  Ag  Ag3       1.0  0.67300  0.47200  0.28300  1.0000
  Ag  Ag4       1.0  0.55800  0.74000  0.43500  1.0000
  Ag  Ag5       1.0  0.44200  0.26000  0.56500  1.0000
  Ag  Ag6       1.0  0.32700  0.52800  0.71700  1.0000
  Ag  Ag7       1.0  0.67300  0.02760  0.78300  1.0000
  Ag  Ag8       1.0  0.55800  0.76000  0.93500  1.0000
  As  As1       1.0  0.34800  0.63900  0.05690  1.0000
  As  As2       1.0  0.65200  0.13900  0.44300  1.0000
  As  As3       1.0  0.34800  0.86100  0.55700  1.0000
  As  As4       1.0  0.65200  0.36100  0.94300  1.0000
  Cs  Cs1       1.0  0.91500  0.93400  0.24600  1.0000
  Cs  Cs2       1.0  0.08470  0.43400  0.25400  1.0000
  Cs  Cs3       1.0  0.91500  0.56600  0.74600  1.0000
  Cs  Cs4       1.0  0.08470  0.06610  0.75400  1.0000
  S   S1        1.0  0.16000  0.77700  0.06180  1.0000
  S   S2        1.0  0.74900  0.58800  0.06810  1.0000
  S   S3        1.0  0.56800  0.02130  0.21100  1.0000
  S   S4        1.0  0.43200  0.52100  0.28900  1.0000
  S   S5        1.0  0.25100  0.08770  0.43200  1.0000
  S   S6        1.0  0.84000  0.27700  0.43800  1.0000
  S   S7        1.0  0.16000  0.72300  0.56200  1.0000
  S   S8        1.0  0.74900  0.91200  0.56800  1.0000
  S   S9        1.0  0.56800  0.47900  0.71100  1.0000
  S   S10       1.0  0.43200  0.97900  0.78900  1.0000
  S   S11       1.0  0.25100  0.41200  0.93200  1.0000
  S   S12       1.0  0.84000  0.22300  0.93800  1.0000
