data_image0
_chemical_formula_structural       Ir4Sc12Si12
_chemical_formula_sum              "Ir4 Sc12 Si12"
_cell_length_a       11.6511
_cell_length_b       4.04343
_cell_length_c       10.1967
_cell_angle_alpha    90
_cell_angle_beta     90
_cell_angle_gamma    90

_space_group_name_H-M_alt    "P 1"
_space_group_IT_number       1

loop_
  _space_group_symop_operation_xyz
  'x, y, z'

loop_
  _atom_site_type_symbol
  _atom_site_label
  _atom_site_symmetry_multiplicity
  _atom_site_fract_x
  _atom_site_fract_y
  _atom_site_fract_z
  _atom_site_occupancy
  Ir  Ir1       1.0  0.17700  0.25000  0.11100  1.0000
  Ir  Ir2       1.0  0.67700  0.25000  0.38900  1.0000
  Ir  Ir3       1.0  0.32300  0.75000  0.61100  1.0000
  Ir  Ir4       1.0  0.82300  0.75000  0.88900  1.0000
  Sc  Sc1       1.0  0.39800  0.75000  0.07980  1.0000
  Sc  Sc2       1.0  0.98000  0.75000  0.12300  1.0000
  Sc  Sc3       1.0  0.70000  0.75000  0.15900  1.0000
  Sc  Sc4       1.0  0.20000  0.75000  0.34100  1.0000
  Sc  Sc5       1.0  0.48000  0.75000  0.37700  1.0000
  Sc  Sc6       1.0  0.89800  0.75000  0.42000  1.0000
  Sc  Sc7       1.0  0.10200  0.25000  0.58000  1.0000
  Sc  Sc8       1.0  0.52000  0.25000  0.62300  1.0000
  Sc  Sc9       1.0  0.80000  0.25000  0.65900  1.0000
  Sc  Sc10      1.0  0.30000  0.25000  0.84100  1.0000
  Sc  Sc11      1.0  0.01960  0.25000  0.87700  1.0000
  Sc  Sc12      1.0  0.60200  0.25000  0.92000  1.0000
  Si  Si1       1.0  0.82200  0.25000  0.01400  1.0000
  Si  Si2       1.0  0.54500  0.25000  0.19200  1.0000
  Si  Si3       1.0  0.84200  0.25000  0.24900  1.0000
  Si  Si4       1.0  0.34200  0.25000  0.25100  1.0000
  Si  Si5       1.0  0.04540  0.25000  0.30800  1.0000
  Si  Si6       1.0  0.32200  0.25000  0.48600  1.0000
  Si  Si7       1.0  0.67800  0.75000  0.51400  1.0000
  Si  Si8       1.0  0.95500  0.75000  0.69200  1.0000
  Si  Si9       1.0  0.65800  0.75000  0.74900  1.0000
  Si  Si10      1.0  0.15800  0.75000  0.75100  1.0000
  Si  Si11      1.0  0.45500  0.75000  0.80800  1.0000
  Si  Si12      1.0  0.17800  0.75000  0.98600  1.0000
