data_image0
_chemical_formula_structural       Cu18Sn8Sr2
_chemical_formula_sum              "Cu18 Sn8 Sr2"
_cell_length_a       8.68049
_cell_length_b       8.68049
_cell_length_c       8.75154
_cell_angle_alpha    119.732
_cell_angle_beta     119.732
_cell_angle_gamma    90

_space_group_name_H-M_alt    "P 1"
_space_group_IT_number       1

loop_
  _space_group_symop_operation_xyz
  'x, y, z'

loop_
  _atom_site_type_symbol
  _atom_site_label
  _atom_site_symmetry_multiplicity
  _atom_site_fract_x
  _atom_site_fract_y
  _atom_site_fract_z
  _atom_site_occupancy
  Cu  Cu1       1.0  0.50000  0.00000  0.00000  1.0000
  Cu  Cu2       1.0  0.20200  0.05540  0.00000  1.0000
  Cu  Cu3       1.0  0.94500  0.20200  0.00000  1.0000
  Cu  Cu4       1.0  0.44500  0.29800  0.00000  1.0000
  Cu  Cu5       1.0  0.70200  0.44500  0.00000  1.0000
  Cu  Cu6       1.0  0.00000  0.50000  0.00000  1.0000
  Cu  Cu7       1.0  0.29800  0.55500  0.00000  1.0000
  Cu  Cu8       1.0  0.55500  0.70200  0.00000  1.0000
  Cu  Cu9       1.0  0.05540  0.79800  0.00000  1.0000
  Cu  Cu10      1.0  0.79800  0.94500  0.00000  1.0000
  Cu  Cu11      1.0  0.78300  0.06550  0.34800  1.0000
  Cu  Cu12      1.0  0.56500  0.28300  0.34800  1.0000
  Cu  Cu13      1.0  0.06550  0.56500  0.34800  1.0000
  Cu  Cu14      1.0  0.28300  0.78300  0.34800  1.0000
  Cu  Cu15      1.0  0.71700  0.21700  0.65200  1.0000
  Cu  Cu16      1.0  0.93500  0.43500  0.65200  1.0000
  Cu  Cu17      1.0  0.43500  0.71700  0.65200  1.0000
  Cu  Cu18      1.0  0.21700  0.93500  0.65200  1.0000
  Sn  Sn1       1.0  0.81100  0.31100  0.25200  1.0000
  Sn  Sn2       1.0  0.31100  0.44100  0.25200  1.0000
  Sn  Sn3       1.0  0.94100  0.81100  0.25200  1.0000
  Sn  Sn4       1.0  0.44100  0.94100  0.25200  1.0000
  Sn  Sn5       1.0  0.55900  0.05910  0.74800  1.0000
  Sn  Sn6       1.0  0.05910  0.18900  0.74800  1.0000
  Sn  Sn7       1.0  0.68900  0.55900  0.74800  1.0000
  Sn  Sn8       1.0  0.18900  0.68900  0.74800  1.0000
  Sr  Sr1       1.0  0.25000  0.25000  0.50000  1.0000
  Sr  Sr2       1.0  0.75000  0.75000  0.50000  1.0000
