data_image0
_chemical_formula_structural       Ce4Rh8Sn16
_chemical_formula_sum              "Ce4 Rh8 Sn16"
_cell_length_a       18.7337
_cell_length_b       4.54232
_cell_length_c       7.24107
_cell_angle_alpha    90
_cell_angle_beta     90
_cell_angle_gamma    90

_space_group_name_H-M_alt    "P 1"
_space_group_IT_number       1

loop_
  _space_group_symop_operation_xyz
  'x, y, z'

loop_
  _atom_site_type_symbol
  _atom_site_label
  _atom_site_symmetry_multiplicity
  _atom_site_fract_x
  _atom_site_fract_y
  _atom_site_fract_z
  _atom_site_occupancy
  Ce  Ce1       1.0  0.14100  0.75000  0.00227  1.0000
  Ce  Ce2       1.0  0.64100  0.75000  0.49800  1.0000
  Ce  Ce3       1.0  0.35900  0.25000  0.50200  1.0000
  Ce  Ce4       1.0  0.85900  0.25000  0.99800  1.0000
  Rh  Rh1       1.0  0.28700  0.25000  0.01620  1.0000
  Rh  Rh2       1.0  0.53400  0.25000  0.24800  1.0000
  Rh  Rh3       1.0  0.03420  0.25000  0.25200  1.0000
  Rh  Rh4       1.0  0.78700  0.25000  0.48400  1.0000
  Rh  Rh5       1.0  0.21300  0.75000  0.51600  1.0000
  Rh  Rh6       1.0  0.96600  0.75000  0.74800  1.0000
  Rh  Rh7       1.0  0.46600  0.75000  0.75200  1.0000
  Rh  Rh8       1.0  0.71300  0.75000  0.98400  1.0000
  Sn  Sn1       1.0  0.56800  0.75000  0.01960  1.0000
  Sn  Sn2       1.0  0.96900  0.75000  0.13500  1.0000
  Sn  Sn3       1.0  0.68200  0.25000  0.19700  1.0000
  Sn  Sn4       1.0  0.30500  0.75000  0.22100  1.0000
  Sn  Sn5       1.0  0.80500  0.75000  0.27900  1.0000
  Sn  Sn6       1.0  0.18200  0.25000  0.30300  1.0000
  Sn  Sn7       1.0  0.46900  0.75000  0.36500  1.0000
  Sn  Sn8       1.0  0.06790  0.75000  0.48000  1.0000
  Sn  Sn9       1.0  0.93200  0.25000  0.52000  1.0000
  Sn  Sn10      1.0  0.53100  0.25000  0.63500  1.0000
  Sn  Sn11      1.0  0.81800  0.75000  0.69700  1.0000
  Sn  Sn12      1.0  0.19500  0.25000  0.72100  1.0000
  Sn  Sn13      1.0  0.69500  0.25000  0.77900  1.0000
  Sn  Sn14      1.0  0.31800  0.75000  0.80300  1.0000
  Sn  Sn15      1.0  0.03140  0.25000  0.86500  1.0000
  Sn  Sn16      1.0  0.43200  0.25000  0.98000  1.0000
