data_image0
_chemical_formula_structural       P4Rb6S16Sm2
_chemical_formula_sum              "P4 Rb6 S16 Sm2"
_cell_length_a       9.82218
_cell_length_b       6.82956
_cell_length_c       11.5663
_cell_angle_alpha    90
_cell_angle_beta     90.4818
_cell_angle_gamma    90

_space_group_name_H-M_alt    "P 1"
_space_group_IT_number       1

loop_
  _space_group_symop_operation_xyz
  'x, y, z'

loop_
  _atom_site_type_symbol
  _atom_site_label
  _atom_site_symmetry_multiplicity
  _atom_site_fract_x
  _atom_site_fract_y
  _atom_site_fract_z
  _atom_site_occupancy
  P   P1        1.0  0.08890  0.32900  0.15900  1.0000
  P   P2        1.0  0.63200  0.81000  0.31100  1.0000
  P   P3        1.0  0.36800  0.31000  0.68900  1.0000
  P   P4        1.0  0.91100  0.82900  0.84100  1.0000
  Rb  Rb1       1.0  0.36200  0.80200  0.09070  1.0000
  Rb  Rb2       1.0  0.40000  0.30900  0.34800  1.0000
  Rb  Rb3       1.0  0.83700  0.30800  0.42800  1.0000
  Rb  Rb4       1.0  0.16300  0.80800  0.57200  1.0000
  Rb  Rb5       1.0  0.60000  0.80900  0.65200  1.0000
  Rb  Rb6       1.0  0.63800  0.30200  0.90900  1.0000
  S   S1        1.0  0.93500  0.39100  0.04170  1.0000
  S   S2        1.0  0.26400  0.30500  0.06390  1.0000
  S   S3        1.0  0.65900  0.04720  0.20300  1.0000
  S   S4        1.0  0.65100  0.56200  0.20800  1.0000
  S   S5        1.0  0.06070  0.08270  0.25600  1.0000
  S   S6        1.0  0.09770  0.56700  0.26700  1.0000
  S   S7        1.0  0.44800  0.81600  0.38900  1.0000
  S   S8        1.0  0.80200  0.80500  0.41500  1.0000
  S   S9        1.0  0.19800  0.30500  0.58500  1.0000
  S   S10       1.0  0.55200  0.31600  0.61100  1.0000
  S   S11       1.0  0.90200  0.06700  0.73300  1.0000
  S   S12       1.0  0.93900  0.58300  0.74400  1.0000
  S   S13       1.0  0.34900  0.06190  0.79200  1.0000
  S   S14       1.0  0.34100  0.54700  0.79700  1.0000
  S   S15       1.0  0.73600  0.80500  0.93600  1.0000
  S   S16       1.0  0.06540  0.89100  0.95800  1.0000
  Sm  Sm1       1.0  0.88800  0.78700  0.14900  1.0000
  Sm  Sm2       1.0  0.11200  0.28700  0.85100  1.0000
