data_image0
_chemical_formula_structural       C12Mo8Pr8
_chemical_formula_sum              "C12 Mo8 Pr8"
_cell_length_a       6.02372
_cell_length_b       6.7137
_cell_length_c       12.0426
_cell_angle_alpha    89.9818
_cell_angle_beta     111.921
_cell_angle_gamma    89.9828

_space_group_name_H-M_alt    "P 1"
_space_group_IT_number       1

loop_
  _space_group_symop_operation_xyz
  'x, y, z'

loop_
  _atom_site_type_symbol
  _atom_site_label
  _atom_site_symmetry_multiplicity
  _atom_site_fract_x
  _atom_site_fract_y
  _atom_site_fract_z
  _atom_site_occupancy
  C   C1        1.0  0.94500  0.21900  0.01040  1.0000
  C   C2        1.0  0.49700  0.12900  0.14100  1.0000
  C   C3        1.0  0.96900  0.51400  0.24800  1.0000
  C   C4        1.0  0.03150  0.01440  0.25200  1.0000
  C   C5        1.0  0.50400  0.62900  0.36000  1.0000
  C   C6        1.0  0.05530  0.71900  0.49000  1.0000
  C   C7        1.0  0.94500  0.28100  0.51000  1.0000
  C   C8        1.0  0.49600  0.37100  0.64000  1.0000
  C   C9        1.0  0.96900  0.98600  0.74800  1.0000
  C   C10       1.0  0.03140  0.48600  0.75200  1.0000
  C   C11       1.0  0.50300  0.87100  0.85900  1.0000
  C   C12       1.0  0.05540  0.78100  0.99000  1.0000
  Mo  Mo1       1.0  0.18100  0.00532  0.12000  1.0000
  Mo  Mo2       1.0  0.82300  0.25600  0.15700  1.0000
  Mo  Mo3       1.0  0.17700  0.75600  0.34300  1.0000
  Mo  Mo4       1.0  0.81900  0.50500  0.38000  1.0000
  Mo  Mo5       1.0  0.18100  0.49500  0.62000  1.0000
  Mo  Mo6       1.0  0.82300  0.24400  0.65700  1.0000
  Mo  Mo7       1.0  0.17700  0.74400  0.84300  1.0000
  Mo  Mo8       1.0  0.81900  0.99500  0.88000  1.0000
  Pr  Pr1       1.0  0.68800  0.78400  0.09180  1.0000
  Pr  Pr2       1.0  0.27100  0.49900  0.13600  1.0000
  Pr  Pr3       1.0  0.72900  0.99900  0.36400  1.0000
  Pr  Pr4       1.0  0.31200  0.28400  0.40800  1.0000
  Pr  Pr5       1.0  0.68800  0.71600  0.59200  1.0000
  Pr  Pr6       1.0  0.27100  0.00081  0.63600  1.0000
  Pr  Pr7       1.0  0.72900  0.50100  0.86400  1.0000
  Pr  Pr8       1.0  0.31200  0.21600  0.90800  1.0000
