data_image0
_chemical_formula_structural       Cl12Pr12Ru4
_chemical_formula_sum              "Cl12 Pr12 Ru4"
_cell_length_a       14.3585
_cell_length_b       4.13157
_cell_length_c       12.4793
_cell_angle_alpha    90
_cell_angle_beta     90
_cell_angle_gamma    90

_space_group_name_H-M_alt    "P 1"
_space_group_IT_number       1

loop_
  _space_group_symop_operation_xyz
  'x, y, z'

loop_
  _atom_site_type_symbol
  _atom_site_label
  _atom_site_symmetry_multiplicity
  _atom_site_fract_x
  _atom_site_fract_y
  _atom_site_fract_z
  _atom_site_occupancy
  Cl  Cl1       1.0  0.79200  0.25000  0.06740  1.0000
  Cl  Cl2       1.0  0.04170  0.25000  0.10300  1.0000
  Cl  Cl3       1.0  0.23400  0.75000  0.21500  1.0000
  Cl  Cl4       1.0  0.73400  0.75000  0.28500  1.0000
  Cl  Cl5       1.0  0.54200  0.25000  0.39700  1.0000
  Cl  Cl6       1.0  0.29200  0.25000  0.43300  1.0000
  Cl  Cl7       1.0  0.70800  0.75000  0.56700  1.0000
  Cl  Cl8       1.0  0.45800  0.75000  0.60300  1.0000
  Cl  Cl9       1.0  0.26600  0.25000  0.71500  1.0000
  Cl  Cl10      1.0  0.76600  0.25000  0.78500  1.0000
  Cl  Cl11      1.0  0.95800  0.75000  0.89700  1.0000
  Cl  Cl12      1.0  0.20800  0.75000  0.93300  1.0000
  Pr  Pr1       1.0  0.35800  0.25000  0.07740  1.0000
  Pr  Pr2       1.0  0.91200  0.75000  0.17000  1.0000
  Pr  Pr3       1.0  0.60300  0.25000  0.17300  1.0000
  Pr  Pr4       1.0  0.10300  0.25000  0.32700  1.0000
  Pr  Pr5       1.0  0.41200  0.75000  0.33000  1.0000
  Pr  Pr6       1.0  0.85800  0.25000  0.42300  1.0000
  Pr  Pr7       1.0  0.14200  0.75000  0.57700  1.0000
  Pr  Pr8       1.0  0.58800  0.25000  0.67000  1.0000
  Pr  Pr9       1.0  0.89700  0.75000  0.67300  1.0000
  Pr  Pr10      1.0  0.39700  0.75000  0.82700  1.0000
  Pr  Pr11      1.0  0.08790  0.25000  0.83000  1.0000
  Pr  Pr12      1.0  0.64200  0.75000  0.92300  1.0000
  Ru  Ru1       1.0  0.48600  0.75000  0.09730  1.0000
  Ru  Ru2       1.0  0.98600  0.75000  0.40300  1.0000
  Ru  Ru3       1.0  0.01380  0.25000  0.59700  1.0000
  Ru  Ru4       1.0  0.51400  0.25000  0.90300  1.0000
