data_image0
_chemical_formula_structural       Ce12In8Ru8
_chemical_formula_sum              "Ce12 In8 Ru8"
_cell_length_a       18.3224
_cell_length_b       4.91067
_cell_length_c       7.86195
_cell_angle_alpha    90
_cell_angle_beta     90
_cell_angle_gamma    90

_space_group_name_H-M_alt    "P 1"
_space_group_IT_number       1

loop_
  _space_group_symop_operation_xyz
  'x, y, z'

loop_
  _atom_site_type_symbol
  _atom_site_label
  _atom_site_symmetry_multiplicity
  _atom_site_fract_x
  _atom_site_fract_y
  _atom_site_fract_z
  _atom_site_occupancy
  Ce  Ce1       1.0  0.42800  0.25000  0.01310  1.0000
  Ce  Ce2       1.0  0.86200  0.25000  0.02820  1.0000
  Ce  Ce3       1.0  0.68000  0.25000  0.21200  1.0000
  Ce  Ce4       1.0  0.18000  0.25000  0.28800  1.0000
  Ce  Ce5       1.0  0.36200  0.25000  0.47200  1.0000
  Ce  Ce6       1.0  0.92800  0.25000  0.48700  1.0000
  Ce  Ce7       1.0  0.07250  0.75000  0.51300  1.0000
  Ce  Ce8       1.0  0.63800  0.75000  0.52800  1.0000
  Ce  Ce9       1.0  0.82000  0.75000  0.71200  1.0000
  Ce  Ce10      1.0  0.32000  0.75000  0.78800  1.0000
  Ce  Ce11      1.0  0.13800  0.75000  0.97200  1.0000
  Ce  Ce12      1.0  0.57200  0.75000  0.98700  1.0000
  In  In1       1.0  0.97100  0.75000  0.15600  1.0000
  In  In2       1.0  0.30200  0.75000  0.21000  1.0000
  In  In3       1.0  0.80200  0.75000  0.29000  1.0000
  In  In4       1.0  0.47100  0.75000  0.34400  1.0000
  In  In5       1.0  0.52900  0.25000  0.65600  1.0000
  In  In6       1.0  0.19800  0.25000  0.71000  1.0000
  In  In7       1.0  0.69800  0.25000  0.79000  1.0000
  In  In8       1.0  0.02940  0.25000  0.84400  1.0000
  Ru  Ru1       1.0  0.28100  0.25000  0.02140  1.0000
  Ru  Ru2       1.0  0.03450  0.25000  0.21200  1.0000
  Ru  Ru3       1.0  0.53500  0.25000  0.28800  1.0000
  Ru  Ru4       1.0  0.78100  0.25000  0.47900  1.0000
  Ru  Ru5       1.0  0.21900  0.75000  0.52100  1.0000
  Ru  Ru6       1.0  0.46500  0.75000  0.71200  1.0000
  Ru  Ru7       1.0  0.96500  0.75000  0.78800  1.0000
  Ru  Ru8       1.0  0.71900  0.75000  0.97900  1.0000
