data_image0
_chemical_formula_structural       Bi8S16Yb4
_chemical_formula_sum              "Bi8 S16 Yb4"
_cell_length_a       11.6787
_cell_length_b       4.00249
_cell_length_c       14.4693
_cell_angle_alpha    90
_cell_angle_beta     90
_cell_angle_gamma    90

_space_group_name_H-M_alt    "P 1"
_space_group_IT_number       1

loop_
  _space_group_symop_operation_xyz
  'x, y, z'

loop_
  _atom_site_type_symbol
  _atom_site_label
  _atom_site_symmetry_multiplicity
  _atom_site_fract_x
  _atom_site_fract_y
  _atom_site_fract_z
  _atom_site_occupancy
  Bi  Bi1       1.0  0.89500  0.75000  0.10300  1.0000
  Bi  Bi2       1.0  0.56700  0.25000  0.10700  1.0000
  Bi  Bi3       1.0  0.06650  0.25000  0.39300  1.0000
  Bi  Bi4       1.0  0.39500  0.75000  0.39700  1.0000
  Bi  Bi5       1.0  0.60500  0.25000  0.60300  1.0000
  Bi  Bi6       1.0  0.93300  0.75000  0.60700  1.0000
  Bi  Bi7       1.0  0.43300  0.75000  0.89300  1.0000
  Bi  Bi8       1.0  0.10500  0.25000  0.89700  1.0000
  S   S1        1.0  0.32600  0.25000  0.01690  1.0000
  S   S2        1.0  0.06290  0.25000  0.09120  1.0000
  S   S3        1.0  0.75900  0.25000  0.20600  1.0000
  S   S4        1.0  0.47600  0.75000  0.20900  1.0000
  S   S5        1.0  0.97600  0.75000  0.29100  1.0000
  S   S6        1.0  0.25900  0.25000  0.29400  1.0000
  S   S7        1.0  0.56300  0.25000  0.40900  1.0000
  S   S8        1.0  0.82600  0.25000  0.48300  1.0000
  S   S9        1.0  0.17400  0.75000  0.51700  1.0000
  S   S10       1.0  0.43700  0.75000  0.59100  1.0000
  S   S11       1.0  0.74100  0.75000  0.70600  1.0000
  S   S12       1.0  0.02370  0.25000  0.70900  1.0000
  S   S13       1.0  0.52400  0.25000  0.79100  1.0000
  S   S14       1.0  0.24100  0.75000  0.79400  1.0000
  S   S15       1.0  0.93700  0.75000  0.90900  1.0000
  S   S16       1.0  0.67400  0.75000  0.98300  1.0000
  Yb  Yb1       1.0  0.24100  0.75000  0.15000  1.0000
  Yb  Yb2       1.0  0.74100  0.75000  0.35000  1.0000
  Yb  Yb3       1.0  0.25900  0.25000  0.65000  1.0000
  Yb  Yb4       1.0  0.75900  0.25000  0.85000  1.0000
