data_image0
_chemical_formula_structural       Ba4Rb4S16Ta4
_chemical_formula_sum              "Ba4 Rb4 S16 Ta4"
_cell_length_a       9.44939
_cell_length_b       7.1067
_cell_length_c       12.6236
_cell_angle_alpha    90
_cell_angle_beta     90
_cell_angle_gamma    90

_space_group_name_H-M_alt    "P 1"
_space_group_IT_number       1

loop_
  _space_group_symop_operation_xyz
  'x, y, z'

loop_
  _atom_site_type_symbol
  _atom_site_label
  _atom_site_symmetry_multiplicity
  _atom_site_fract_x
  _atom_site_fract_y
  _atom_site_fract_z
  _atom_site_occupancy
  Ba  Ba1       1.0  0.98100  0.75000  0.17500  1.0000
  Ba  Ba2       1.0  0.48100  0.75000  0.32500  1.0000
  Ba  Ba3       1.0  0.51900  0.25000  0.67500  1.0000
  Ba  Ba4       1.0  0.01900  0.25000  0.82500  1.0000
  Rb  Rb1       1.0  0.36300  0.25000  0.08870  1.0000
  Rb  Rb2       1.0  0.86300  0.25000  0.41100  1.0000
  Rb  Rb3       1.0  0.13700  0.75000  0.58900  1.0000
  Rb  Rb4       1.0  0.63700  0.75000  0.91100  1.0000
  S   S1        1.0  0.01130  0.25000  0.08410  1.0000
  S   S2        1.0  0.30600  0.75000  0.09230  1.0000
  S   S3        1.0  0.68600  0.50900  0.16300  1.0000
  S   S4        1.0  0.68600  0.99100  0.16300  1.0000
  S   S5        1.0  0.18600  0.50900  0.33700  1.0000
  S   S6        1.0  0.18600  0.99100  0.33700  1.0000
  S   S7        1.0  0.80600  0.75000  0.40800  1.0000
  S   S8        1.0  0.51100  0.25000  0.41600  1.0000
  S   S9        1.0  0.48900  0.75000  0.58400  1.0000
  S   S10       1.0  0.19400  0.25000  0.59200  1.0000
  S   S11       1.0  0.81400  0.00938  0.66300  1.0000
  S   S12       1.0  0.81400  0.49100  0.66300  1.0000
  S   S13       1.0  0.31400  0.00938  0.83700  1.0000
  S   S14       1.0  0.31400  0.49100  0.83700  1.0000
  S   S15       1.0  0.69400  0.25000  0.90800  1.0000
  S   S16       1.0  0.98900  0.75000  0.91600  1.0000
  Ta  Ta1       1.0  0.77000  0.25000  0.07940  1.0000
  Ta  Ta2       1.0  0.27000  0.25000  0.42100  1.0000
  Ta  Ta3       1.0  0.73000  0.75000  0.57900  1.0000
  Ta  Ta4       1.0  0.23000  0.75000  0.92100  1.0000
