data_image0
_chemical_formula_structural       Ru4Sc12Si12
_chemical_formula_sum              "Ru4 Sc12 Si12"
_cell_length_a       11.716
_cell_length_b       3.99279
_cell_length_c       10.3046
_cell_angle_alpha    90
_cell_angle_beta     90
_cell_angle_gamma    90

_space_group_name_H-M_alt    "P 1"
_space_group_IT_number       1

loop_
  _space_group_symop_operation_xyz
  'x, y, z'

loop_
  _atom_site_type_symbol
  _atom_site_label
  _atom_site_symmetry_multiplicity
  _atom_site_fract_x
  _atom_site_fract_y
  _atom_site_fract_z
  _atom_site_occupancy
  Ru  Ru1       1.0  0.17700  0.25000  0.11000  1.0000
  Ru  Ru2       1.0  0.67700  0.25000  0.39000  1.0000
  Ru  Ru3       1.0  0.32300  0.75000  0.61000  1.0000
  Ru  Ru4       1.0  0.82300  0.75000  0.89000  1.0000
  Sc  Sc1       1.0  0.39600  0.75000  0.07760  1.0000
  Sc  Sc2       1.0  0.98100  0.75000  0.12300  1.0000
  Sc  Sc3       1.0  0.70200  0.75000  0.16100  1.0000
  Sc  Sc4       1.0  0.20200  0.75000  0.33900  1.0000
  Sc  Sc5       1.0  0.48100  0.75000  0.37700  1.0000
  Sc  Sc6       1.0  0.89600  0.75000  0.42200  1.0000
  Sc  Sc7       1.0  0.10400  0.25000  0.57800  1.0000
  Sc  Sc8       1.0  0.51900  0.25000  0.62300  1.0000
  Sc  Sc9       1.0  0.79800  0.25000  0.66100  1.0000
  Sc  Sc10      1.0  0.29800  0.25000  0.83900  1.0000
  Sc  Sc11      1.0  0.01890  0.25000  0.87700  1.0000
  Sc  Sc12      1.0  0.60400  0.25000  0.92200  1.0000
  Si  Si1       1.0  0.82200  0.25000  0.01590  1.0000
  Si  Si2       1.0  0.54500  0.25000  0.19400  1.0000
  Si  Si3       1.0  0.34300  0.25000  0.24800  1.0000
  Si  Si4       1.0  0.84300  0.25000  0.25200  1.0000
  Si  Si5       1.0  0.04540  0.25000  0.30600  1.0000
  Si  Si6       1.0  0.32200  0.25000  0.48400  1.0000
  Si  Si7       1.0  0.67800  0.75000  0.51600  1.0000
  Si  Si8       1.0  0.95500  0.75000  0.69400  1.0000
  Si  Si9       1.0  0.15700  0.75000  0.74800  1.0000
  Si  Si10      1.0  0.65700  0.75000  0.75200  1.0000
  Si  Si11      1.0  0.45500  0.75000  0.80600  1.0000
  Si  Si12      1.0  0.17800  0.75000  0.98400  1.0000
