data_image0
_chemical_formula_structural       Co2La6O12S6W2
_chemical_formula_sum              "Co2 La6 O12 S6 W2"
_cell_length_a       9.39567
_cell_length_b       9.39549
_cell_length_c       5.48766
_cell_angle_alpha    90
_cell_angle_beta     90
_cell_angle_gamma    120.002

_space_group_name_H-M_alt    "P 1"
_space_group_IT_number       1

loop_
  _space_group_symop_operation_xyz
  'x, y, z'

loop_
  _atom_site_type_symbol
  _atom_site_label
  _atom_site_symmetry_multiplicity
  _atom_site_fract_x
  _atom_site_fract_y
  _atom_site_fract_z
  _atom_site_occupancy
  Co  Co1       1.0  0.00000  0.00000  0.00000  1.0000
  Co  Co2       1.0  0.00000  0.00000  0.50000  1.0000
  La  La1       1.0  0.40500  0.09020  0.25000  1.0000
  La  La2       1.0  0.91000  0.31400  0.25000  1.0000
  La  La3       1.0  0.68600  0.59600  0.25000  1.0000
  La  La4       1.0  0.31400  0.40400  0.75000  1.0000
  La  La5       1.0  0.09020  0.68600  0.75000  1.0000
  La  La6       1.0  0.59500  0.91000  0.75000  1.0000
  O   O1        1.0  0.16100  0.52500  0.02240  1.0000
  O   O2        1.0  0.47500  0.63600  0.02240  1.0000
  O   O3        1.0  0.36400  0.83900  0.02240  1.0000
  O   O4        1.0  0.36400  0.83900  0.47800  1.0000
  O   O5        1.0  0.47500  0.63600  0.47800  1.0000
  O   O6        1.0  0.16100  0.52500  0.47800  1.0000
  O   O7        1.0  0.83900  0.47500  0.52200  1.0000
  O   O8        1.0  0.52500  0.36400  0.52200  1.0000
  O   O9        1.0  0.63600  0.16100  0.52200  1.0000
  O   O10       1.0  0.63600  0.16100  0.97800  1.0000
  O   O11       1.0  0.52500  0.36400  0.97800  1.0000
  O   O12       1.0  0.83900  0.47500  0.97800  1.0000
  S   S1        1.0  0.17600  0.22200  0.25000  1.0000
  S   S2        1.0  0.04640  0.82400  0.25000  1.0000
  S   S3        1.0  0.77800  0.95400  0.25000  1.0000
  S   S4        1.0  0.22200  0.04630  0.75000  1.0000
  S   S5        1.0  0.95400  0.17600  0.75000  1.0000
  S   S6        1.0  0.82400  0.77800  0.75000  1.0000
  W   W1        1.0  0.33300  0.66700  0.25000  1.0000
  W   W2        1.0  0.66700  0.33300  0.75000  1.0000
