data_image0
_chemical_formula_structural       Ba4Lu8S16
_chemical_formula_sum              "Ba4 Lu8 S16"
_cell_length_a       12.1797
_cell_length_b       3.97485
_cell_length_c       14.3299
_cell_angle_alpha    90
_cell_angle_beta     90
_cell_angle_gamma    90

_space_group_name_H-M_alt    "P 1"
_space_group_IT_number       1

loop_
  _space_group_symop_operation_xyz
  'x, y, z'

loop_
  _atom_site_type_symbol
  _atom_site_label
  _atom_site_symmetry_multiplicity
  _atom_site_fract_x
  _atom_site_fract_y
  _atom_site_fract_z
  _atom_site_occupancy
  Ba  Ba1       1.0  0.74200  0.75000  0.16200  1.0000
  Ba  Ba2       1.0  0.24200  0.75000  0.33800  1.0000
  Ba  Ba3       1.0  0.75800  0.25000  0.66200  1.0000
  Ba  Ba4       1.0  0.25800  0.25000  0.83800  1.0000
  Lu  Lu1       1.0  0.42100  0.25000  0.10100  1.0000
  Lu  Lu2       1.0  0.06530  0.75000  0.10900  1.0000
  Lu  Lu3       1.0  0.56500  0.75000  0.39100  1.0000
  Lu  Lu4       1.0  0.92100  0.25000  0.39900  1.0000
  Lu  Lu5       1.0  0.07870  0.75000  0.60100  1.0000
  Lu  Lu6       1.0  0.43500  0.25000  0.60900  1.0000
  Lu  Lu7       1.0  0.93500  0.25000  0.89100  1.0000
  Lu  Lu8       1.0  0.57900  0.75000  0.89900  1.0000
  S   S1        1.0  0.62200  0.25000  0.02250  1.0000
  S   S2        1.0  0.92000  0.25000  0.07560  1.0000
  S   S3        1.0  0.20700  0.25000  0.15900  1.0000
  S   S4        1.0  0.47700  0.75000  0.21700  1.0000
  S   S5        1.0  0.97700  0.75000  0.28300  1.0000
  S   S6        1.0  0.70700  0.25000  0.34100  1.0000
  S   S7        1.0  0.42000  0.25000  0.42400  1.0000
  S   S8        1.0  0.12200  0.25000  0.47800  1.0000
  S   S9        1.0  0.87800  0.75000  0.52200  1.0000
  S   S10       1.0  0.58000  0.75000  0.57600  1.0000
  S   S11       1.0  0.29300  0.75000  0.65900  1.0000
  S   S12       1.0  0.02350  0.25000  0.71700  1.0000
  S   S13       1.0  0.52300  0.25000  0.78300  1.0000
  S   S14       1.0  0.79300  0.75000  0.84100  1.0000
  S   S15       1.0  0.08050  0.75000  0.92400  1.0000
  S   S16       1.0  0.37800  0.75000  0.97800  1.0000
