data_image0
_chemical_formula_structural       Li2Zn26
_chemical_formula_sum              "Li2 Zn26"
_cell_length_a       8.61928
_cell_length_b       8.61928
_cell_length_c       8.61928
_cell_angle_alpha    120
_cell_angle_beta     90
_cell_angle_gamma    120

_space_group_name_H-M_alt    "P 1"
_space_group_IT_number       1

loop_
  _space_group_symop_operation_xyz
  'x, y, z'

loop_
  _atom_site_type_symbol
  _atom_site_label
  _atom_site_symmetry_multiplicity
  _atom_site_fract_x
  _atom_site_fract_y
  _atom_site_fract_z
  _atom_site_occupancy
  Li  Li1       1.0  0.75000  0.50000  0.25000  1.0000
  Li  Li2       1.0  0.25000  0.50000  0.75000  1.0000
  Zn  Zn1       1.0  0.00000  0.00000  0.00000  1.0000
  Zn  Zn2       1.0  0.69900  0.76000  0.06100  1.0000
  Zn  Zn3       1.0  0.30100  0.00000  0.06100  1.0000
  Zn  Zn4       1.0  0.06100  0.36200  0.06100  1.0000
  Zn  Zn5       1.0  0.56100  0.00000  0.19900  1.0000
  Zn  Zn6       1.0  0.19900  0.76000  0.19900  1.0000
  Zn  Zn7       1.0  0.43900  0.63800  0.19900  1.0000
  Zn  Zn8       1.0  0.93900  0.24000  0.30100  1.0000
  Zn  Zn9       1.0  0.06100  0.00000  0.30100  1.0000
  Zn  Zn10      1.0  0.30100  0.36200  0.30100  1.0000
  Zn  Zn11      1.0  0.80100  0.00000  0.43900  1.0000
  Zn  Zn12      1.0  0.43900  0.24000  0.43900  1.0000
  Zn  Zn13      1.0  0.19900  0.63800  0.43900  1.0000
  Zn  Zn14      1.0  0.50000  0.00000  0.50000  1.0000
  Zn  Zn15      1.0  0.19900  0.00000  0.56100  1.0000
  Zn  Zn16      1.0  0.56100  0.76000  0.56100  1.0000
  Zn  Zn17      1.0  0.80100  0.36200  0.56100  1.0000
  Zn  Zn18      1.0  0.93900  0.00000  0.69900  1.0000
  Zn  Zn19      1.0  0.69900  0.63800  0.69900  1.0000
  Zn  Zn20      1.0  0.06100  0.76000  0.69900  1.0000
  Zn  Zn21      1.0  0.43900  0.00000  0.80100  1.0000
  Zn  Zn22      1.0  0.80100  0.24000  0.80100  1.0000
  Zn  Zn23      1.0  0.56100  0.36200  0.80100  1.0000
  Zn  Zn24      1.0  0.69900  0.00000  0.93900  1.0000
  Zn  Zn25      1.0  0.30100  0.24000  0.93900  1.0000
  Zn  Zn26      1.0  0.93900  0.63800  0.93900  1.0000
