data_image0
_chemical_formula_structural       Er4F4Mo4O16
_chemical_formula_sum              "Er4 F4 Mo4 O16"
_cell_length_a       5.12733
_cell_length_b       12.147
_cell_length_c       6.57223
_cell_angle_alpha    89.9999
_cell_angle_beta     113.386
_cell_angle_gamma    90.0001

_space_group_name_H-M_alt    "P 1"
_space_group_IT_number       1

loop_
  _space_group_symop_operation_xyz
  'x, y, z'

loop_
  _atom_site_type_symbol
  _atom_site_label
  _atom_site_symmetry_multiplicity
  _atom_site_fract_x
  _atom_site_fract_y
  _atom_site_fract_z
  _atom_site_occupancy
  Er  Er1       1.0  0.36200  0.95000  0.19900  1.0000
  Er  Er2       1.0  0.63800  0.45000  0.30100  1.0000
  Er  Er3       1.0  0.36200  0.55000  0.69900  1.0000
  Er  Er4       1.0  0.63800  0.05020  0.80100  1.0000
  F   F1        1.0  0.45200  0.10100  0.03600  1.0000
  F   F2        1.0  0.54800  0.60100  0.46400  1.0000
  F   F3        1.0  0.45200  0.39900  0.53600  1.0000
  F   F4        1.0  0.54800  0.89900  0.96400  1.0000
  Mo  Mo1       1.0  0.07790  0.64400  0.13000  1.0000
  Mo  Mo2       1.0  0.92200  0.14400  0.37000  1.0000
  Mo  Mo3       1.0  0.07790  0.85600  0.63000  1.0000
  Mo  Mo4       1.0  0.92200  0.35600  0.87000  1.0000
  O   O1        1.0  0.31000  0.56400  0.03600  1.0000
  O   O2        1.0  0.24500  0.34300  0.09870  1.0000
  O   O3        1.0  0.99800  0.06930  0.16000  1.0000
  O   O4        1.0  0.19400  0.78000  0.20900  1.0000
  O   O5        1.0  0.80600  0.28000  0.29100  1.0000
  O   O6        1.0  0.00157  0.56900  0.34000  1.0000
  O   O7        1.0  0.75500  0.84300  0.40100  1.0000
  O   O8        1.0  0.69000  0.06420  0.46400  1.0000
  O   O9        1.0  0.31000  0.93600  0.53600  1.0000
  O   O10       1.0  0.24500  0.15700  0.59900  1.0000
  O   O11       1.0  0.99800  0.43100  0.66000  1.0000
  O   O12       1.0  0.19400  0.72000  0.70900  1.0000
  O   O13       1.0  0.80600  0.22000  0.79100  1.0000
  O   O14       1.0  0.00157  0.93100  0.84000  1.0000
  O   O15       1.0  0.75500  0.65700  0.90100  1.0000
  O   O16       1.0  0.69000  0.43600  0.96400  1.0000
