data_image0
_chemical_formula_structural       B2Hf18Os8
_chemical_formula_sum              "B2 Hf18 Os8"
_cell_length_a       8.35905
_cell_length_b       8.35895
_cell_length_c       8.592
_cell_angle_alpha    90
_cell_angle_beta     90
_cell_angle_gamma    120

_space_group_name_H-M_alt    "P 1"
_space_group_IT_number       1

loop_
  _space_group_symop_operation_xyz
  'x, y, z'

loop_
  _atom_site_type_symbol
  _atom_site_label
  _atom_site_symmetry_multiplicity
  _atom_site_fract_x
  _atom_site_fract_y
  _atom_site_fract_z
  _atom_site_occupancy
  B   B1        1.0  0.33300  0.66700  0.25000  1.0000
  B   B2        1.0  0.66700  0.33300  0.75000  1.0000
  Hf  Hf1       1.0  0.19900  0.39900  0.05940  1.0000
  Hf  Hf2       1.0  0.19900  0.80100  0.05940  1.0000
  Hf  Hf3       1.0  0.60100  0.80100  0.05940  1.0000
  Hf  Hf4       1.0  0.54100  0.08300  0.25000  1.0000
  Hf  Hf5       1.0  0.54100  0.45900  0.25000  1.0000
  Hf  Hf6       1.0  0.91700  0.45900  0.25000  1.0000
  Hf  Hf7       1.0  0.19900  0.80100  0.44100  1.0000
  Hf  Hf8       1.0  0.60100  0.80100  0.44100  1.0000
  Hf  Hf9       1.0  0.19900  0.39900  0.44100  1.0000
  Hf  Hf10      1.0  0.80100  0.60100  0.55900  1.0000
  Hf  Hf11      1.0  0.39900  0.19900  0.55900  1.0000
  Hf  Hf12      1.0  0.80100  0.19900  0.55900  1.0000
  Hf  Hf13      1.0  0.08300  0.54100  0.75000  1.0000
  Hf  Hf14      1.0  0.45900  0.54100  0.75000  1.0000
  Hf  Hf15      1.0  0.45900  0.91700  0.75000  1.0000
  Hf  Hf16      1.0  0.39900  0.19900  0.94100  1.0000
  Hf  Hf17      1.0  0.80100  0.19900  0.94100  1.0000
  Hf  Hf18      1.0  0.80100  0.60100  0.94100  1.0000
  Os  Os1       1.0  0.00000  0.00000  0.00000  1.0000
  Os  Os2       1.0  0.22700  0.11300  0.25000  1.0000
  Os  Os3       1.0  0.88700  0.11300  0.25000  1.0000
  Os  Os4       1.0  0.88700  0.77300  0.25000  1.0000
  Os  Os5       1.0  0.00000  0.00000  0.50000  1.0000
  Os  Os6       1.0  0.11300  0.22700  0.75000  1.0000
  Os  Os7       1.0  0.11300  0.88700  0.75000  1.0000
  Os  Os8       1.0  0.77300  0.88700  0.75000  1.0000
