data_image0
_chemical_formula_structural       Eu4Rb4S16Si4
_chemical_formula_sum              "Eu4 Rb4 S16 Si4"
_cell_length_a       6.93359
_cell_length_b       5.73465
_cell_length_c       18.6991
_cell_angle_alpha    90
_cell_angle_beta     90
_cell_angle_gamma    90

_space_group_name_H-M_alt    "P 1"
_space_group_IT_number       1

loop_
  _space_group_symop_operation_xyz
  'x, y, z'

loop_
  _atom_site_type_symbol
  _atom_site_label
  _atom_site_symmetry_multiplicity
  _atom_site_fract_x
  _atom_site_fract_y
  _atom_site_fract_z
  _atom_site_occupancy
  Eu  Eu1       1.0  0.22300  0.00587  0.22600  1.0000
  Eu  Eu2       1.0  0.77700  0.50600  0.27400  1.0000
  Eu  Eu3       1.0  0.27700  0.99400  0.72600  1.0000
  Eu  Eu4       1.0  0.72300  0.49400  0.77400  1.0000
  Rb  Rb1       1.0  0.56800  0.50300  0.02140  1.0000
  Rb  Rb2       1.0  0.43200  0.00268  0.47900  1.0000
  Rb  Rb3       1.0  0.93200  0.49700  0.52100  1.0000
  Rb  Rb4       1.0  0.06750  0.99700  0.97900  1.0000
  S   S1        1.0  0.45400  0.00390  0.09510  1.0000
  S   S2        1.0  0.91500  0.26500  0.13700  1.0000
  S   S3        1.0  0.91500  0.74600  0.13800  1.0000
  S   S4        1.0  0.36000  0.50600  0.22800  1.0000
  S   S5        1.0  0.64000  0.00572  0.27200  1.0000
  S   S6        1.0  0.08520  0.24600  0.36200  1.0000
  S   S7        1.0  0.08520  0.76500  0.36300  1.0000
  S   S8        1.0  0.54600  0.50400  0.40500  1.0000
  S   S9        1.0  0.04600  0.99600  0.59500  1.0000
  S   S10       1.0  0.58500  0.73500  0.63700  1.0000
  S   S11       1.0  0.58500  0.25400  0.63800  1.0000
  S   S12       1.0  0.14000  0.49400  0.72800  1.0000
  S   S13       1.0  0.86000  0.99400  0.77200  1.0000
  S   S14       1.0  0.41500  0.75400  0.86200  1.0000
  S   S15       1.0  0.41500  0.23500  0.86300  1.0000
  S   S16       1.0  0.95400  0.49600  0.90500  1.0000
  Si  Si1       1.0  0.69500  0.00525  0.16200  1.0000
  Si  Si2       1.0  0.30500  0.50500  0.33800  1.0000
  Si  Si3       1.0  0.80500  0.99500  0.66200  1.0000
  Si  Si4       1.0  0.19500  0.49500  0.83800  1.0000
