data_image0
_chemical_formula_structural       Bi4Ge4K4S16
_chemical_formula_sum              "Bi4 Ge4 K4 S16"
_cell_length_a       6.68313
_cell_length_b       6.85623
_cell_length_c       17.4759
_cell_angle_alpha    90
_cell_angle_beta     107.805
_cell_angle_gamma    90

_space_group_name_H-M_alt    "P 1"
_space_group_IT_number       1

loop_
  _space_group_symop_operation_xyz
  'x, y, z'

loop_
  _atom_site_type_symbol
  _atom_site_label
  _atom_site_symmetry_multiplicity
  _atom_site_fract_x
  _atom_site_fract_y
  _atom_site_fract_z
  _atom_site_occupancy
  Bi  Bi1       1.0  0.76200  0.18900  0.22000  1.0000
  Bi  Bi2       1.0  0.23800  0.68900  0.28000  1.0000
  Bi  Bi3       1.0  0.76200  0.31100  0.72000  1.0000
  Bi  Bi4       1.0  0.23800  0.81100  0.78000  1.0000
  Ge  Ge1       1.0  0.20900  0.26300  0.15500  1.0000
  Ge  Ge2       1.0  0.79100  0.76300  0.34500  1.0000
  Ge  Ge3       1.0  0.20900  0.23700  0.65500  1.0000
  Ge  Ge4       1.0  0.79100  0.73700  0.84500  1.0000
  K   K1        1.0  0.28200  0.74200  0.03480  1.0000
  K   K2        1.0  0.71800  0.24200  0.46500  1.0000
  K   K3        1.0  0.28200  0.75800  0.53500  1.0000
  K   K4        1.0  0.71800  0.25800  0.96500  1.0000
  S   S1        1.0  0.42200  0.23400  0.08040  1.0000
  S   S2        1.0  0.98700  0.51100  0.13000  1.0000
  S   S3        1.0  0.00251  0.00081  0.14100  1.0000
  S   S4        1.0  0.58900  0.82200  0.21700  1.0000
  S   S5        1.0  0.41100  0.32200  0.28300  1.0000
  S   S6        1.0  0.99700  0.50100  0.35900  1.0000
  S   S7        1.0  0.01250  0.01110  0.37000  1.0000
  S   S8        1.0  0.57800  0.73400  0.42000  1.0000
  S   S9        1.0  0.42200  0.26600  0.58000  1.0000
  S   S10       1.0  0.98700  0.98900  0.63000  1.0000
  S   S11       1.0  0.00251  0.49900  0.64100  1.0000
  S   S12       1.0  0.58900  0.67800  0.71700  1.0000
  S   S13       1.0  0.41100  0.17800  0.78300  1.0000
  S   S14       1.0  0.99700  0.99900  0.85900  1.0000
  S   S15       1.0  0.01250  0.48900  0.87000  1.0000
  S   S16       1.0  0.57800  0.76600  0.92000  1.0000
