data_image0
_chemical_formula_structural       Cs18Ga2O8
_chemical_formula_sum              "Cs18 Ga2 O8"
_cell_length_a       12.6075
_cell_length_b       12.3983
_cell_length_c       12.3983
_cell_angle_alpha    104.982
_cell_angle_beta     59.4402
_cell_angle_gamma    120.56

_space_group_name_H-M_alt    "P 1"
_space_group_IT_number       1

loop_
  _space_group_symop_operation_xyz
  'x, y, z'

loop_
  _atom_site_type_symbol
  _atom_site_label
  _atom_site_symmetry_multiplicity
  _atom_site_fract_x
  _atom_site_fract_y
  _atom_site_fract_z
  _atom_site_occupancy
  Cs  Cs1       1.0  0.00000  0.00000  0.00000  1.0000
  Cs  Cs2       1.0  0.50000  0.00000  0.00000  1.0000
  Cs  Cs3       1.0  0.66900  0.50000  0.16200  1.0000
  Cs  Cs4       1.0  0.25000  0.26800  0.26800  1.0000
  Cs  Cs5       1.0  0.75000  0.26800  0.26800  1.0000
  Cs  Cs6       1.0  0.48200  0.73200  0.26800  1.0000
  Cs  Cs7       1.0  0.98200  0.73200  0.26800  1.0000
  Cs  Cs8       1.0  0.08400  0.50000  0.33200  1.0000
  Cs  Cs9       1.0  0.41600  0.33200  0.50000  1.0000
  Cs  Cs10      1.0  0.83100  0.16200  0.50000  1.0000
  Cs  Cs11      1.0  0.16900  0.83800  0.50000  1.0000
  Cs  Cs12      1.0  0.58400  0.66800  0.50000  1.0000
  Cs  Cs13      1.0  0.91600  0.50000  0.66800  1.0000
  Cs  Cs14      1.0  0.25000  0.73200  0.73200  1.0000
  Cs  Cs15      1.0  0.75000  0.73200  0.73200  1.0000
  Cs  Cs16      1.0  0.01800  0.26800  0.73200  1.0000
  Cs  Cs17      1.0  0.51800  0.26800  0.73200  1.0000
  Cs  Cs18      1.0  0.33100  0.50000  0.83800  1.0000
  Ga  Ga1       1.0  0.25000  0.50000  0.50000  1.0000
  Ga  Ga2       1.0  0.75000  0.50000  0.50000  1.0000
  O   O1        1.0  0.41300  0.50000  0.35700  1.0000
  O   O2        1.0  0.73100  0.50000  0.35700  1.0000
  O   O3        1.0  0.23100  0.64300  0.50000  1.0000
  O   O4        1.0  0.91300  0.64300  0.50000  1.0000
  O   O5        1.0  0.08750  0.35700  0.50000  1.0000
  O   O6        1.0  0.76900  0.35700  0.50000  1.0000
  O   O7        1.0  0.26900  0.50000  0.64300  1.0000
  O   O8        1.0  0.58700  0.50000  0.64300  1.0000
