data_image0
_chemical_formula_structural       Al8C4Co4Ta12
_chemical_formula_sum              "Al8 C4 Co4 Ta12"
_cell_length_a       8.20264
_cell_length_b       8.20264
_cell_length_c       8.20264
_cell_angle_alpha    120
_cell_angle_beta     90
_cell_angle_gamma    120

_space_group_name_H-M_alt    "P 1"
_space_group_IT_number       1

loop_
  _space_group_symop_operation_xyz
  'x, y, z'

loop_
  _atom_site_type_symbol
  _atom_site_label
  _atom_site_symmetry_multiplicity
  _atom_site_fract_x
  _atom_site_fract_y
  _atom_site_fract_z
  _atom_site_occupancy
  Al  Al1       1.0  0.20700  0.58600  0.29300  1.0000
  Al  Al2       1.0  0.88000  0.58600  0.29300  1.0000
  Al  Al3       1.0  0.20700  0.91400  0.29300  1.0000
  Al  Al4       1.0  0.79300  0.08640  0.38000  1.0000
  Al  Al5       1.0  0.20700  0.91400  0.62000  1.0000
  Al  Al6       1.0  0.12000  0.41400  0.70700  1.0000
  Al  Al7       1.0  0.79300  0.08640  0.70700  1.0000
  Al  Al8       1.0  0.79300  0.41400  0.70700  1.0000
  C   C1        1.0  0.00000  0.00000  0.00000  1.0000
  C   C2        1.0  0.50000  0.00000  0.00000  1.0000
  C   C3        1.0  0.50000  0.50000  0.00000  1.0000
  C   C4        1.0  0.50000  0.50000  0.50000  1.0000
  Co  Co1       1.0  0.00000  0.50000  0.00000  1.0000
  Co  Co2       1.0  0.00000  0.00000  0.50000  1.0000
  Co  Co3       1.0  0.50000  0.00000  0.50000  1.0000
  Co  Co4       1.0  0.00000  0.50000  0.50000  1.0000
  Ta  Ta1       1.0  0.43600  0.75000  0.06390  1.0000
  Ta  Ta2       1.0  0.81400  0.75000  0.06390  1.0000
  Ta  Ta3       1.0  0.81400  0.12800  0.06390  1.0000
  Ta  Ta4       1.0  0.56400  0.25000  0.31400  1.0000
  Ta  Ta5       1.0  0.56400  0.62800  0.31400  1.0000
  Ta  Ta6       1.0  0.18600  0.25000  0.31400  1.0000
  Ta  Ta7       1.0  0.43600  0.75000  0.68600  1.0000
  Ta  Ta8       1.0  0.81400  0.75000  0.68600  1.0000
  Ta  Ta9       1.0  0.43600  0.37200  0.68600  1.0000
  Ta  Ta10      1.0  0.56400  0.25000  0.93600  1.0000
  Ta  Ta11      1.0  0.18600  0.25000  0.93600  1.0000
  Ta  Ta12      1.0  0.18600  0.87200  0.93600  1.0000
