data_image0
_chemical_formula_structural       I6InO18Rb3
_chemical_formula_sum              "I6 In1 O18 Rb3"
_cell_length_a       6.97735
_cell_length_b       7.00776
_cell_length_c       10.5708
_cell_angle_alpha    87.7849
_cell_angle_beta     72.1167
_cell_angle_gamma    72.099

_space_group_name_H-M_alt    "P 1"
_space_group_IT_number       1

loop_
  _space_group_symop_operation_xyz
  'x, y, z'

loop_
  _atom_site_type_symbol
  _atom_site_label
  _atom_site_symmetry_multiplicity
  _atom_site_fract_x
  _atom_site_fract_y
  _atom_site_fract_z
  _atom_site_occupancy
  I   I1        1.0  0.96000  0.47600  0.19200  1.0000
  I   I2        1.0  0.44100  0.96800  0.19200  1.0000
  I   I3        1.0  0.40200  0.45400  0.36900  1.0000
  I   I4        1.0  0.59800  0.54600  0.63100  1.0000
  I   I5        1.0  0.55900  0.03220  0.80800  1.0000
  I   I6        1.0  0.04010  0.52400  0.80800  1.0000
  In  In1       1.0  0.50000  0.50000  0.00000  1.0000
  O   O1        1.0  0.16100  0.54600  0.04880  1.0000
  O   O2        1.0  0.42600  0.82400  0.05140  1.0000
  O   O3        1.0  0.53500  0.39000  0.18600  1.0000
  O   O4        1.0  0.08060  0.20200  0.18700  1.0000
  O   O5        1.0  0.71600  0.84300  0.18800  1.0000
  O   O6        1.0  0.04210  0.55200  0.32500  1.0000
  O   O7        1.0  0.30500  0.84200  0.32800  1.0000
  O   O8        1.0  0.66500  0.43500  0.39000  1.0000
  O   O9        1.0  0.40200  0.19800  0.40400  1.0000
  O   O10       1.0  0.59800  0.80200  0.59600  1.0000
  O   O11       1.0  0.33500  0.56500  0.61000  1.0000
  O   O12       1.0  0.69500  0.15800  0.67200  1.0000
  O   O13       1.0  0.95800  0.44800  0.67500  1.0000
  O   O14       1.0  0.28400  0.15700  0.81200  1.0000
  O   O15       1.0  0.91900  0.79800  0.81300  1.0000
  O   O16       1.0  0.46500  0.61000  0.81400  1.0000
  O   O17       1.0  0.57400  0.17600  0.94900  1.0000
  O   O18       1.0  0.83900  0.45400  0.95100  1.0000
  Rb  Rb1       1.0  0.00000  0.00000  0.00000  1.0000
  Rb  Rb2       1.0  0.84000  0.97900  0.39600  1.0000
  Rb  Rb3       1.0  0.16000  0.02050  0.60400  1.0000
