data_image0
_chemical_formula_structural       Hf20Mo6Si2
_chemical_formula_sum              "Hf20 Mo6 Si2"
_cell_length_a       8.68871
_cell_length_b       8.68944
_cell_length_c       8.74715
_cell_angle_alpha    90
_cell_angle_beta     90
_cell_angle_gamma    119.997

_space_group_name_H-M_alt    "P 1"
_space_group_IT_number       1

loop_
  _space_group_symop_operation_xyz
  'x, y, z'

loop_
  _atom_site_type_symbol
  _atom_site_label
  _atom_site_symmetry_multiplicity
  _atom_site_fract_x
  _atom_site_fract_y
  _atom_site_fract_z
  _atom_site_occupancy
  Hf  Hf1       1.0  0.00000  0.00000  0.00000  1.0000
  Hf  Hf2       1.0  0.20000  0.80000  0.04450  1.0000
  Hf  Hf3       1.0  0.59900  0.80000  0.04450  1.0000
  Hf  Hf4       1.0  0.20000  0.40100  0.04450  1.0000
  Hf  Hf5       1.0  0.53900  0.07710  0.25000  1.0000
  Hf  Hf6       1.0  0.53900  0.46100  0.25000  1.0000
  Hf  Hf7       1.0  0.92300  0.46100  0.25000  1.0000
  Hf  Hf8       1.0  0.20000  0.40100  0.45500  1.0000
  Hf  Hf9       1.0  0.20000  0.80000  0.45500  1.0000
  Hf  Hf10      1.0  0.59900  0.80000  0.45500  1.0000
  Hf  Hf11      1.0  0.00000  0.00000  0.50000  1.0000
  Hf  Hf12      1.0  0.40100  0.20000  0.54500  1.0000
  Hf  Hf13      1.0  0.80000  0.20000  0.54500  1.0000
  Hf  Hf14      1.0  0.80000  0.59900  0.54500  1.0000
  Hf  Hf15      1.0  0.07710  0.53900  0.75000  1.0000
  Hf  Hf16      1.0  0.46100  0.53900  0.75000  1.0000
  Hf  Hf17      1.0  0.46100  0.92300  0.75000  1.0000
  Hf  Hf18      1.0  0.80000  0.59900  0.95500  1.0000
  Hf  Hf19      1.0  0.40100  0.20000  0.95500  1.0000
  Hf  Hf20      1.0  0.80000  0.20000  0.95500  1.0000
  Mo  Mo1       1.0  0.23100  0.11500  0.25000  1.0000
  Mo  Mo2       1.0  0.88500  0.11500  0.25000  1.0000
  Mo  Mo3       1.0  0.88500  0.76900  0.25000  1.0000
  Mo  Mo4       1.0  0.11500  0.23100  0.75000  1.0000
  Mo  Mo5       1.0  0.11500  0.88500  0.75000  1.0000
  Mo  Mo6       1.0  0.76900  0.88500  0.75000  1.0000
  Si  Si1       1.0  0.33300  0.66700  0.25000  1.0000
  Si  Si2       1.0  0.66700  0.33300  0.75000  1.0000
