data_image0
_chemical_formula_structural       Ba4Gd8Se16
_chemical_formula_sum              "Ba4 Gd8 Se16"
_cell_length_a       12.8464
_cell_length_b       4.24157
_cell_length_c       15.2956
_cell_angle_alpha    90
_cell_angle_beta     90
_cell_angle_gamma    90

_space_group_name_H-M_alt    "P 1"
_space_group_IT_number       1

loop_
  _space_group_symop_operation_xyz
  'x, y, z'

loop_
  _atom_site_type_symbol
  _atom_site_label
  _atom_site_symmetry_multiplicity
  _atom_site_fract_x
  _atom_site_fract_y
  _atom_site_fract_z
  _atom_site_occupancy
  Ba  Ba1       1.0  0.74100  0.75000  0.16400  1.0000
  Ba  Ba2       1.0  0.24100  0.75000  0.33600  1.0000
  Ba  Ba3       1.0  0.75900  0.25000  0.66400  1.0000
  Ba  Ba4       1.0  0.25900  0.25000  0.83600  1.0000
  Gd  Gd1       1.0  0.42200  0.25000  0.10100  1.0000
  Gd  Gd2       1.0  0.06730  0.75000  0.10800  1.0000
  Gd  Gd3       1.0  0.56700  0.75000  0.39200  1.0000
  Gd  Gd4       1.0  0.92200  0.25000  0.39900  1.0000
  Gd  Gd5       1.0  0.07830  0.75000  0.60100  1.0000
  Gd  Gd6       1.0  0.43300  0.25000  0.60800  1.0000
  Gd  Gd7       1.0  0.93300  0.25000  0.89200  1.0000
  Gd  Gd8       1.0  0.57800  0.75000  0.89900  1.0000
  Se  Se1       1.0  0.62800  0.25000  0.02480  1.0000
  Se  Se2       1.0  0.91600  0.25000  0.07820  1.0000
  Se  Se3       1.0  0.20800  0.25000  0.16600  1.0000
  Se  Se4       1.0  0.47700  0.75000  0.21700  1.0000
  Se  Se5       1.0  0.97700  0.75000  0.28300  1.0000
  Se  Se6       1.0  0.70800  0.25000  0.33400  1.0000
  Se  Se7       1.0  0.41600  0.25000  0.42200  1.0000
  Se  Se8       1.0  0.12800  0.25000  0.47500  1.0000
  Se  Se9       1.0  0.87200  0.75000  0.52500  1.0000
  Se  Se10      1.0  0.58400  0.75000  0.57800  1.0000
  Se  Se11      1.0  0.29200  0.75000  0.66600  1.0000
  Se  Se12      1.0  0.02280  0.25000  0.71700  1.0000
  Se  Se13      1.0  0.52300  0.25000  0.78300  1.0000
  Se  Se14      1.0  0.79200  0.75000  0.83400  1.0000
  Se  Se15      1.0  0.08400  0.75000  0.92200  1.0000
  Se  Se16      1.0  0.37200  0.75000  0.97500  1.0000
