data_image0
_chemical_formula_structural       Ba4Lu8Se16
_chemical_formula_sum              "Ba4 Lu8 Se16"
_cell_length_a       12.7016
_cell_length_b       4.13231
_cell_length_c       14.963
_cell_angle_alpha    90
_cell_angle_beta     90
_cell_angle_gamma    90

_space_group_name_H-M_alt    "P 1"
_space_group_IT_number       1

loop_
  _space_group_symop_operation_xyz
  'x, y, z'

loop_
  _atom_site_type_symbol
  _atom_site_label
  _atom_site_symmetry_multiplicity
  _atom_site_fract_x
  _atom_site_fract_y
  _atom_site_fract_z
  _atom_site_occupancy
  Ba  Ba1       1.0  0.73900  0.75000  0.16600  1.0000
  Ba  Ba2       1.0  0.23900  0.75000  0.33400  1.0000
  Ba  Ba3       1.0  0.76100  0.25000  0.66600  1.0000
  Ba  Ba4       1.0  0.26100  0.25000  0.83400  1.0000
  Lu  Lu1       1.0  0.41900  0.25000  0.09890  1.0000
  Lu  Lu2       1.0  0.06080  0.75000  0.10900  1.0000
  Lu  Lu3       1.0  0.56100  0.75000  0.39100  1.0000
  Lu  Lu4       1.0  0.91900  0.25000  0.40100  1.0000
  Lu  Lu5       1.0  0.08090  0.75000  0.59900  1.0000
  Lu  Lu6       1.0  0.43900  0.25000  0.60900  1.0000
  Lu  Lu7       1.0  0.93900  0.25000  0.89100  1.0000
  Lu  Lu8       1.0  0.58100  0.75000  0.90100  1.0000
  Se  Se1       1.0  0.62300  0.25000  0.02530  1.0000
  Se  Se2       1.0  0.91400  0.25000  0.07500  1.0000
  Se  Se3       1.0  0.20400  0.25000  0.15900  1.0000
  Se  Se4       1.0  0.47300  0.75000  0.21600  1.0000
  Se  Se5       1.0  0.97300  0.75000  0.28400  1.0000
  Se  Se6       1.0  0.70400  0.25000  0.34100  1.0000
  Se  Se7       1.0  0.41400  0.25000  0.42500  1.0000
  Se  Se8       1.0  0.12300  0.25000  0.47500  1.0000
  Se  Se9       1.0  0.87700  0.75000  0.52500  1.0000
  Se  Se10      1.0  0.58600  0.75000  0.57500  1.0000
  Se  Se11      1.0  0.29600  0.75000  0.65900  1.0000
  Se  Se12      1.0  0.02710  0.25000  0.71600  1.0000
  Se  Se13      1.0  0.52700  0.25000  0.78400  1.0000
  Se  Se14      1.0  0.79600  0.75000  0.84100  1.0000
  Se  Se15      1.0  0.08560  0.75000  0.92500  1.0000
  Se  Se16      1.0  0.37700  0.75000  0.97500  1.0000
