data_image0
_chemical_formula_structural       La12N4S12
_chemical_formula_sum              "La12 N4 S12"
_cell_length_a       12.2028
_cell_length_b       4.16941
_cell_length_c       13.2268
_cell_angle_alpha    90
_cell_angle_beta     90
_cell_angle_gamma    90

_space_group_name_H-M_alt    "P 1"
_space_group_IT_number       1

loop_
  _space_group_symop_operation_xyz
  'x, y, z'

loop_
  _atom_site_type_symbol
  _atom_site_label
  _atom_site_symmetry_multiplicity
  _atom_site_fract_x
  _atom_site_fract_y
  _atom_site_fract_z
  _atom_site_occupancy
  La  La1       1.0  0.40500  0.75000  0.12500  1.0000
  La  La2       1.0  0.77000  0.75000  0.13000  1.0000
  La  La3       1.0  0.03340  0.25000  0.15300  1.0000
  La  La4       1.0  0.53300  0.25000  0.34700  1.0000
  La  La5       1.0  0.27000  0.75000  0.37000  1.0000
  La  La6       1.0  0.90500  0.75000  0.37500  1.0000
  La  La7       1.0  0.09530  0.25000  0.62500  1.0000
  La  La8       1.0  0.73000  0.25000  0.63000  1.0000
  La  La9       1.0  0.46700  0.75000  0.65300  1.0000
  La  La10      1.0  0.96700  0.75000  0.84700  1.0000
  La  La11      1.0  0.23000  0.25000  0.87000  1.0000
  La  La12      1.0  0.59500  0.25000  0.87500  1.0000
  N   N1        1.0  0.94500  0.75000  0.20200  1.0000
  N   N2        1.0  0.44500  0.75000  0.29800  1.0000
  N   N3        1.0  0.55500  0.25000  0.70200  1.0000
  N   N4        1.0  0.05500  0.25000  0.79800  1.0000
  S   S1        1.0  0.14600  0.75000  0.00206  1.0000
  S   S2        1.0  0.57100  0.25000  0.10800  1.0000
  S   S3        1.0  0.26600  0.25000  0.20600  1.0000
  S   S4        1.0  0.76600  0.25000  0.29400  1.0000
  S   S5        1.0  0.07150  0.25000  0.39200  1.0000
  S   S6        1.0  0.64600  0.75000  0.49800  1.0000
  S   S7        1.0  0.35400  0.25000  0.50200  1.0000
  S   S8        1.0  0.92900  0.75000  0.60800  1.0000
  S   S9        1.0  0.23400  0.75000  0.70600  1.0000
  S   S10       1.0  0.73400  0.75000  0.79400  1.0000
  S   S11       1.0  0.42900  0.75000  0.89200  1.0000
  S   S12       1.0  0.85400  0.25000  0.99800  1.0000
