data_image0
_chemical_formula_structural       Ag4Mn2O16Sr2V4
_chemical_formula_sum              "Ag4 Mn2 O16 Sr2 V4"
_cell_length_a       5.5974
_cell_length_b       5.6042
_cell_length_c       13.8214
_cell_angle_alpha    90.292
_cell_angle_beta     90
_cell_angle_gamma    119.96

_space_group_name_H-M_alt    "P 1"
_space_group_IT_number       1

loop_
  _space_group_symop_operation_xyz
  'x, y, z'

loop_
  _atom_site_type_symbol
  _atom_site_label
  _atom_site_symmetry_multiplicity
  _atom_site_fract_x
  _atom_site_fract_y
  _atom_site_fract_z
  _atom_site_occupancy
  Ag  Ag1       1.0  0.71300  0.32600  0.09410  1.0000
  Ag  Ag2       1.0  0.38700  0.67400  0.40600  1.0000
  Ag  Ag3       1.0  0.61300  0.32600  0.59400  1.0000
  Ag  Ag4       1.0  0.28700  0.67400  0.90600  1.0000
  Mn  Mn1       1.0  0.00000  0.00000  0.00000  1.0000
  Mn  Mn2       1.0  0.00000  0.00000  0.50000  1.0000
  O   O1        1.0  0.18700  0.77400  0.06080  1.0000
  O   O2        1.0  0.26100  0.31500  0.09710  1.0000
  O   O3        1.0  0.72300  0.86700  0.12000  1.0000
  O   O4        1.0  0.26800  0.65900  0.24800  1.0000
  O   O5        1.0  0.60900  0.34100  0.25200  1.0000
  O   O6        1.0  0.85600  0.13300  0.38000  1.0000
  O   O7        1.0  0.94600  0.68500  0.40300  1.0000
  O   O8        1.0  0.41200  0.22600  0.43900  1.0000
  O   O9        1.0  0.58800  0.77400  0.56100  1.0000
  O   O10       1.0  0.05400  0.31500  0.59700  1.0000
  O   O11       1.0  0.14400  0.86700  0.62000  1.0000
  O   O12       1.0  0.39100  0.65900  0.74800  1.0000
  O   O13       1.0  0.73200  0.34100  0.75200  1.0000
  O   O14       1.0  0.27700  0.13300  0.88000  1.0000
  O   O15       1.0  0.73900  0.68500  0.90300  1.0000
  O   O16       1.0  0.81300  0.22600  0.93900  1.0000
  Sr  Sr1       1.0  0.08290  0.00000  0.25000  1.0000
  Sr  Sr2       1.0  0.91700  0.00000  0.75000  1.0000
  V   V1        1.0  0.36500  0.65400  0.13100  1.0000
  V   V2        1.0  0.71200  0.34600  0.36900  1.0000
  V   V3        1.0  0.28800  0.65400  0.63100  1.0000
  V   V4        1.0  0.63500  0.34600  0.86900  1.0000
