data_image0
_chemical_formula_structural       S16Sb8Yb4
_chemical_formula_sum              "S16 Sb8 Yb4"
_cell_length_a       11.5297
_cell_length_b       3.95387
_cell_length_c       14.1645
_cell_angle_alpha    90
_cell_angle_beta     90
_cell_angle_gamma    90

_space_group_name_H-M_alt    "P 1"
_space_group_IT_number       1

loop_
  _space_group_symop_operation_xyz
  'x, y, z'

loop_
  _atom_site_type_symbol
  _atom_site_label
  _atom_site_symmetry_multiplicity
  _atom_site_fract_x
  _atom_site_fract_y
  _atom_site_fract_z
  _atom_site_occupancy
  S   S1        1.0  0.31100  0.25000  0.01640  1.0000
  S   S2        1.0  0.05270  0.25000  0.09180  1.0000
  S   S3        1.0  0.74900  0.25000  0.20000  1.0000
  S   S4        1.0  0.47900  0.75000  0.20600  1.0000
  S   S5        1.0  0.97900  0.75000  0.29400  1.0000
  S   S6        1.0  0.24900  0.25000  0.30000  1.0000
  S   S7        1.0  0.55300  0.25000  0.40800  1.0000
  S   S8        1.0  0.81100  0.25000  0.48400  1.0000
  S   S9        1.0  0.18900  0.75000  0.51600  1.0000
  S   S10       1.0  0.44700  0.75000  0.59200  1.0000
  S   S11       1.0  0.75100  0.75000  0.70000  1.0000
  S   S12       1.0  0.02130  0.25000  0.70600  1.0000
  S   S13       1.0  0.52100  0.25000  0.79400  1.0000
  S   S14       1.0  0.25100  0.75000  0.80000  1.0000
  S   S15       1.0  0.94700  0.75000  0.90800  1.0000
  S   S16       1.0  0.68900  0.75000  0.98400  1.0000
  Sb  Sb1       1.0  0.88100  0.75000  0.08510  1.0000
  Sb  Sb2       1.0  0.56300  0.25000  0.10700  1.0000
  Sb  Sb3       1.0  0.06350  0.25000  0.39300  1.0000
  Sb  Sb4       1.0  0.38100  0.75000  0.41500  1.0000
  Sb  Sb5       1.0  0.61900  0.25000  0.58500  1.0000
  Sb  Sb6       1.0  0.93700  0.75000  0.60700  1.0000
  Sb  Sb7       1.0  0.43700  0.75000  0.89300  1.0000
  Sb  Sb8       1.0  0.11900  0.25000  0.91500  1.0000
  Yb  Yb1       1.0  0.22800  0.75000  0.15500  1.0000
  Yb  Yb2       1.0  0.72800  0.75000  0.34500  1.0000
  Yb  Yb3       1.0  0.27200  0.25000  0.65500  1.0000
  Yb  Yb4       1.0  0.77200  0.25000  0.84500  1.0000
