data_image0
_chemical_formula_structural       Eu4N8O8Si8
_chemical_formula_sum              "Eu4 N8 O8 Si8"
_cell_length_a       6.99416
_cell_length_b       7.09344
_cell_length_c       7.19171
_cell_angle_alpha    88.8506
_cell_angle_beta     85.2275
_cell_angle_gamma    75.7851

_space_group_name_H-M_alt    "P 1"
_space_group_IT_number       1

loop_
  _space_group_symop_operation_xyz
  'x, y, z'

loop_
  _atom_site_type_symbol
  _atom_site_label
  _atom_site_symmetry_multiplicity
  _atom_site_fract_x
  _atom_site_fract_y
  _atom_site_fract_z
  _atom_site_occupancy
  Eu  Eu1       1.0  0.16000  0.12000  0.06830  1.0000
  Eu  Eu2       1.0  0.63800  0.22500  0.31800  1.0000
  Eu  Eu3       1.0  0.14900  0.11200  0.55900  1.0000
  Eu  Eu4       1.0  0.62400  0.21800  0.81100  1.0000
  N   N1        1.0  0.14700  0.72700  0.05230  1.0000
  N   N2        1.0  0.76100  0.73900  0.17000  1.0000
  N   N3        1.0  0.43200  0.60100  0.30300  1.0000
  N   N4        1.0  0.04530  0.59300  0.41800  1.0000
  N   N5        1.0  0.64400  0.74500  0.55100  1.0000
  N   N6        1.0  0.25900  0.73400  0.66300  1.0000
  N   N7        1.0  0.92500  0.60700  0.80100  1.0000
  N   N8        1.0  0.54300  0.61000  0.91400  1.0000
  O   O1        1.0  0.83000  0.34200  0.06480  1.0000
  O   O2        1.0  0.37800  0.33000  0.07020  1.0000
  O   O3        1.0  0.41400  0.99900  0.31300  1.0000
  O   O4        1.0  0.96100  0.99200  0.32100  1.0000
  O   O5        1.0  0.82300  0.34400  0.56600  1.0000
  O   O6        1.0  0.37000  0.33600  0.56800  1.0000
  O   O7        1.0  0.40500  0.00541  0.81200  1.0000
  O   O8        1.0  0.95300  0.00564  0.82400  1.0000
  Si  Si1       1.0  0.36700  0.56000  0.08120  1.0000
  Si  Si2       1.0  0.97800  0.77200  0.24900  1.0000
  Si  Si3       1.0  0.55400  0.78300  0.33000  1.0000
  Si  Si4       1.0  0.28000  0.55500  0.49600  1.0000
  Si  Si5       1.0  0.85600  0.56200  0.58000  1.0000
  Si  Si6       1.0  0.47100  0.78200  0.74200  1.0000
  Si  Si7       1.0  0.05880  0.77600  0.83100  1.0000
  Si  Si8       1.0  0.77700  0.56600  0.99600  1.0000
