data_image0
_chemical_formula_structural       Au12Pr6Sn10
_chemical_formula_sum              "Au12 Pr6 Sn10"
_cell_length_a       4.60927
_cell_length_b       13.652
_cell_length_c       10.4241
_cell_angle_alpha    90
_cell_angle_beta     90
_cell_angle_gamma    90

_space_group_name_H-M_alt    "P 1"
_space_group_IT_number       1

loop_
  _space_group_symop_operation_xyz
  'x, y, z'

loop_
  _atom_site_type_symbol
  _atom_site_label
  _atom_site_symmetry_multiplicity
  _atom_site_fract_x
  _atom_site_fract_y
  _atom_site_fract_z
  _atom_site_occupancy
  Au  Au1       1.0  0.75000  0.75000  0.06070  1.0000
  Au  Au2       1.0  0.25000  0.08820  0.12100  1.0000
  Au  Au3       1.0  0.25000  0.41200  0.12100  1.0000
  Au  Au4       1.0  0.75000  0.75000  0.46000  1.0000
  Au  Au5       1.0  0.25000  0.60500  0.47500  1.0000
  Au  Au6       1.0  0.25000  0.89500  0.47500  1.0000
  Au  Au7       1.0  0.75000  0.10500  0.52500  1.0000
  Au  Au8       1.0  0.75000  0.39500  0.52500  1.0000
  Au  Au9       1.0  0.25000  0.25000  0.54000  1.0000
  Au  Au10      1.0  0.75000  0.58800  0.87900  1.0000
  Au  Au11      1.0  0.75000  0.91200  0.87900  1.0000
  Au  Au12      1.0  0.25000  0.25000  0.93900  1.0000
  Pr  Pr1       1.0  0.75000  0.56500  0.25500  1.0000
  Pr  Pr2       1.0  0.75000  0.93500  0.25500  1.0000
  Pr  Pr3       1.0  0.75000  0.25000  0.25500  1.0000
  Pr  Pr4       1.0  0.25000  0.75000  0.74500  1.0000
  Pr  Pr5       1.0  0.25000  0.06530  0.74500  1.0000
  Pr  Pr6       1.0  0.25000  0.43500  0.74500  1.0000
  Sn  Sn1       1.0  0.25000  0.60900  0.02350  1.0000
  Sn  Sn2       1.0  0.25000  0.89100  0.02350  1.0000
  Sn  Sn3       1.0  0.25000  0.75000  0.27300  1.0000
  Sn  Sn4       1.0  0.25000  0.08730  0.37900  1.0000
  Sn  Sn5       1.0  0.25000  0.41300  0.37900  1.0000
  Sn  Sn6       1.0  0.75000  0.58700  0.62100  1.0000
  Sn  Sn7       1.0  0.75000  0.91300  0.62100  1.0000
  Sn  Sn8       1.0  0.75000  0.25000  0.72700  1.0000
  Sn  Sn9       1.0  0.75000  0.10900  0.97600  1.0000
  Sn  Sn10      1.0  0.75000  0.39100  0.97600  1.0000
