data_image0
_chemical_formula_structural       Au2Cs2N24
_chemical_formula_sum              "Au2 Cs2 N24"
_cell_length_a       7.32987
_cell_length_b       7.32987
_cell_length_c       8.1753
_cell_angle_alpha    93.8876
_cell_angle_beta     93.8876
_cell_angle_gamma    95.1738

_space_group_name_H-M_alt    "P 1"
_space_group_IT_number       1

loop_
  _space_group_symop_operation_xyz
  'x, y, z'

loop_
  _atom_site_type_symbol
  _atom_site_label
  _atom_site_symmetry_multiplicity
  _atom_site_fract_x
  _atom_site_fract_y
  _atom_site_fract_z
  _atom_site_occupancy
  Au  Au1       1.0  0.51100  0.48900  0.25000  1.0000
  Au  Au2       1.0  0.48900  0.51100  0.75000  1.0000
  Cs  Cs1       1.0  0.91800  0.08150  0.25000  1.0000
  Cs  Cs2       1.0  0.08150  0.91800  0.75000  1.0000
  N   N1        1.0  0.90200  0.70500  0.02460  1.0000
  N   N2        1.0  0.83500  0.58900  0.09740  1.0000
  N   N3        1.0  0.27500  0.91600  0.10100  1.0000
  N   N4        1.0  0.39300  0.82700  0.13600  1.0000
  N   N5        1.0  0.52900  0.75000  0.17000  1.0000
  N   N6        1.0  0.77200  0.46500  0.17400  1.0000
  N   N7        1.0  0.53500  0.22800  0.32600  1.0000
  N   N8        1.0  0.25000  0.47100  0.33000  1.0000
  N   N9        1.0  0.17300  0.60700  0.36400  1.0000
  N   N10       1.0  0.08360  0.72500  0.39900  1.0000
  N   N11       1.0  0.41100  0.16500  0.40300  1.0000
  N   N12       1.0  0.29500  0.09790  0.47500  1.0000
  N   N13       1.0  0.70500  0.90200  0.52500  1.0000
  N   N14       1.0  0.58900  0.83500  0.59700  1.0000
  N   N15       1.0  0.91600  0.27500  0.60100  1.0000
  N   N16       1.0  0.82700  0.39300  0.63600  1.0000
  N   N17       1.0  0.75000  0.52900  0.67000  1.0000
  N   N18       1.0  0.46500  0.77200  0.67400  1.0000
  N   N19       1.0  0.22800  0.53500  0.82600  1.0000
  N   N20       1.0  0.47100  0.25000  0.83000  1.0000
  N   N21       1.0  0.60700  0.17300  0.86400  1.0000
  N   N22       1.0  0.72500  0.08360  0.89900  1.0000
  N   N23       1.0  0.16500  0.41100  0.90300  1.0000
  N   N24       1.0  0.09790  0.29500  0.97500  1.0000
