data_image0
_chemical_formula_structural       O20P4Re4
_chemical_formula_sum              "O20 P4 Re4"
_cell_length_a       5.21251
_cell_length_b       8.78472
_cell_length_c       8.78472
_cell_angle_alpha    91.2971
_cell_angle_beta     90.0802
_cell_angle_gamma    90.0802

_space_group_name_H-M_alt    "P 1"
_space_group_IT_number       1

loop_
  _space_group_symop_operation_xyz
  'x, y, z'

loop_
  _atom_site_type_symbol
  _atom_site_label
  _atom_site_symmetry_multiplicity
  _atom_site_fract_x
  _atom_site_fract_y
  _atom_site_fract_z
  _atom_site_occupancy
  O   O1        1.0  0.92300  0.68400  0.05980  1.0000
  O   O2        1.0  0.25000  0.92000  0.07960  1.0000
  O   O3        1.0  0.44900  0.63300  0.10600  1.0000
  O   O4        1.0  0.46500  0.18800  0.15100  1.0000
  O   O5        1.0  0.77900  0.43800  0.18000  1.0000
  O   O6        1.0  0.96500  0.15100  0.18800  1.0000
  O   O7        1.0  0.57700  0.94000  0.31600  1.0000
  O   O8        1.0  0.75000  0.67100  0.32900  1.0000
  O   O9        1.0  0.05110  0.89400  0.36700  1.0000
  O   O10       1.0  0.27900  0.18000  0.43800  1.0000
  O   O11       1.0  0.72100  0.82000  0.56200  1.0000
  O   O12       1.0  0.94900  0.10600  0.63300  1.0000
  O   O13       1.0  0.25000  0.32900  0.67100  1.0000
  O   O14       1.0  0.42300  0.05980  0.68400  1.0000
  O   O15       1.0  0.03490  0.84900  0.81200  1.0000
  O   O16       1.0  0.22100  0.56200  0.82000  1.0000
  O   O17       1.0  0.53500  0.81200  0.84900  1.0000
  O   O18       1.0  0.55100  0.36700  0.89400  1.0000
  O   O19       1.0  0.75000  0.07960  0.92000  1.0000
  O   O20       1.0  0.07730  0.31600  0.94000  1.0000
  P   P1        1.0  0.72600  0.60700  0.15700  1.0000
  P   P2        1.0  0.77400  0.84300  0.39300  1.0000
  P   P3        1.0  0.22600  0.15700  0.60700  1.0000
  P   P4        1.0  0.27400  0.39300  0.84300  1.0000
  Re  Re1       1.0  0.75200  0.24800  0.05070  1.0000
  Re  Re2       1.0  0.25200  0.05070  0.24800  1.0000
  Re  Re3       1.0  0.74800  0.94900  0.75200  1.0000
  Re  Re4       1.0  0.24800  0.75200  0.94900  1.0000
