data_image0
_chemical_formula_structural       Ba4Er8S16
_chemical_formula_sum              "Ba4 Er8 S16"
_cell_length_a       12.2535
_cell_length_b       4.0223
_cell_length_c       14.4597
_cell_angle_alpha    90
_cell_angle_beta     90
_cell_angle_gamma    90

_space_group_name_H-M_alt    "P 1"
_space_group_IT_number       1

loop_
  _space_group_symop_operation_xyz
  'x, y, z'

loop_
  _atom_site_type_symbol
  _atom_site_label
  _atom_site_symmetry_multiplicity
  _atom_site_fract_x
  _atom_site_fract_y
  _atom_site_fract_z
  _atom_site_occupancy
  Ba  Ba1       1.0  0.74300  0.75000  0.16100  1.0000
  Ba  Ba2       1.0  0.24300  0.75000  0.33900  1.0000
  Ba  Ba3       1.0  0.75700  0.25000  0.66100  1.0000
  Ba  Ba4       1.0  0.25700  0.25000  0.83900  1.0000
  Er  Er1       1.0  0.42200  0.25000  0.10200  1.0000
  Er  Er2       1.0  0.06770  0.75000  0.10900  1.0000
  Er  Er3       1.0  0.56800  0.75000  0.39100  1.0000
  Er  Er4       1.0  0.92200  0.25000  0.39800  1.0000
  Er  Er5       1.0  0.07790  0.75000  0.60200  1.0000
  Er  Er6       1.0  0.43200  0.25000  0.60900  1.0000
  Er  Er7       1.0  0.93200  0.25000  0.89100  1.0000
  Er  Er8       1.0  0.57800  0.75000  0.89800  1.0000
  S   S1        1.0  0.62400  0.25000  0.02250  1.0000
  S   S2        1.0  0.92000  0.25000  0.07680  1.0000
  S   S3        1.0  0.20800  0.25000  0.16200  1.0000
  S   S4        1.0  0.47800  0.75000  0.21700  1.0000
  S   S5        1.0  0.97800  0.75000  0.28300  1.0000
  S   S6        1.0  0.70800  0.25000  0.33800  1.0000
  S   S7        1.0  0.42000  0.25000  0.42300  1.0000
  S   S8        1.0  0.12400  0.25000  0.47800  1.0000
  S   S9        1.0  0.87600  0.75000  0.52200  1.0000
  S   S10       1.0  0.58000  0.75000  0.57700  1.0000
  S   S11       1.0  0.29200  0.75000  0.66200  1.0000
  S   S12       1.0  0.02180  0.25000  0.71700  1.0000
  S   S13       1.0  0.52200  0.25000  0.78300  1.0000
  S   S14       1.0  0.79200  0.75000  0.83800  1.0000
  S   S15       1.0  0.08000  0.75000  0.92300  1.0000
  S   S16       1.0  0.37600  0.75000  0.97800  1.0000
