data_image0
_chemical_formula_structural       Cl2La6S16Si4
_chemical_formula_sum              "Cl2 La6 S16 Si4"
_cell_length_a       7.80804
_cell_length_b       8.78548
_cell_length_c       11.0593
_cell_angle_alpha    96.2493
_cell_angle_beta     90
_cell_angle_gamma    116.383

_space_group_name_H-M_alt    "P 1"
_space_group_IT_number       1

loop_
  _space_group_symop_operation_xyz
  'x, y, z'

loop_
  _atom_site_type_symbol
  _atom_site_label
  _atom_site_symmetry_multiplicity
  _atom_site_fract_x
  _atom_site_fract_y
  _atom_site_fract_z
  _atom_site_occupancy
  Cl  Cl1       1.0  0.00566  0.00000  0.25000  1.0000
  Cl  Cl2       1.0  0.99400  0.00000  0.75000  1.0000
  La  La1       1.0  0.07290  0.38500  0.18500  1.0000
  La  La2       1.0  0.38200  0.00000  0.25000  1.0000
  La  La3       1.0  0.68800  0.61500  0.31500  1.0000
  La  La4       1.0  0.31200  0.38500  0.68500  1.0000
  La  La5       1.0  0.61800  0.00000  0.75000  1.0000
  La  La6       1.0  0.92700  0.61500  0.81500  1.0000
  S   S1        1.0  0.72000  0.13000  0.05120  1.0000
  S   S2        1.0  0.85900  0.56900  0.08470  1.0000
  S   S3        1.0  0.40000  0.29400  0.14200  1.0000
  S   S4        1.0  0.44200  0.70300  0.15900  1.0000
  S   S5        1.0  0.73900  0.29700  0.34100  1.0000
  S   S6        1.0  0.10500  0.70600  0.35800  1.0000
  S   S7        1.0  0.29000  0.43100  0.41500  1.0000
  S   S8        1.0  0.59000  0.87000  0.44900  1.0000
  S   S9        1.0  0.41000  0.13000  0.55100  1.0000
  S   S10       1.0  0.71000  0.56900  0.58500  1.0000
  S   S11       1.0  0.89500  0.29400  0.64200  1.0000
  S   S12       1.0  0.26100  0.70300  0.65900  1.0000
  S   S13       1.0  0.55800  0.29700  0.84100  1.0000
  S   S14       1.0  0.60000  0.70600  0.85800  1.0000
  S   S15       1.0  0.14100  0.43100  0.91500  1.0000
  S   S16       1.0  0.28000  0.87000  0.94900  1.0000
  Si  Si1       1.0  0.62900  0.32100  0.03010  1.0000
  Si  Si2       1.0  0.30800  0.67900  0.47000  1.0000
  Si  Si3       1.0  0.69200  0.32100  0.53000  1.0000
  Si  Si4       1.0  0.37100  0.67900  0.97000  1.0000
