data_image0
_chemical_formula_structural       Ba4Se16Y8
_chemical_formula_sum              "Ba4 Se16 Y8"
_cell_length_a       12.8003
_cell_length_b       4.21122
_cell_length_c       15.1985
_cell_angle_alpha    90
_cell_angle_beta     90
_cell_angle_gamma    90

_space_group_name_H-M_alt    "P 1"
_space_group_IT_number       1

loop_
  _space_group_symop_operation_xyz
  'x, y, z'

loop_
  _atom_site_type_symbol
  _atom_site_label
  _atom_site_symmetry_multiplicity
  _atom_site_fract_x
  _atom_site_fract_y
  _atom_site_fract_z
  _atom_site_occupancy
  Ba  Ba1       1.0  0.74100  0.75000  0.16500  1.0000
  Ba  Ba2       1.0  0.24100  0.75000  0.33500  1.0000
  Ba  Ba3       1.0  0.75900  0.25000  0.66500  1.0000
  Ba  Ba4       1.0  0.25900  0.25000  0.83500  1.0000
  Se  Se1       1.0  0.62700  0.25000  0.02460  1.0000
  Se  Se2       1.0  0.91500  0.25000  0.07770  1.0000
  Se  Se3       1.0  0.20700  0.25000  0.16400  1.0000
  Se  Se4       1.0  0.47700  0.75000  0.21700  1.0000
  Se  Se5       1.0  0.97700  0.75000  0.28300  1.0000
  Se  Se6       1.0  0.70700  0.25000  0.33600  1.0000
  Se  Se7       1.0  0.41500  0.25000  0.42200  1.0000
  Se  Se8       1.0  0.12700  0.25000  0.47500  1.0000
  Se  Se9       1.0  0.87300  0.75000  0.52500  1.0000
  Se  Se10      1.0  0.58500  0.75000  0.57800  1.0000
  Se  Se11      1.0  0.29300  0.75000  0.66400  1.0000
  Se  Se12      1.0  0.02300  0.25000  0.71700  1.0000
  Se  Se13      1.0  0.52300  0.25000  0.78300  1.0000
  Se  Se14      1.0  0.79300  0.75000  0.83600  1.0000
  Se  Se15      1.0  0.08450  0.75000  0.92200  1.0000
  Se  Se16      1.0  0.37300  0.75000  0.97500  1.0000
  Y   Y1        1.0  0.42200  0.25000  0.10000  1.0000
  Y   Y2        1.0  0.06580  0.75000  0.10800  1.0000
  Y   Y3        1.0  0.56600  0.75000  0.39200  1.0000
  Y   Y4        1.0  0.92200  0.25000  0.40000  1.0000
  Y   Y5        1.0  0.07840  0.75000  0.60000  1.0000
  Y   Y6        1.0  0.43400  0.25000  0.60800  1.0000
  Y   Y7        1.0  0.93400  0.25000  0.89200  1.0000
  Y   Y8        1.0  0.57800  0.75000  0.90000  1.0000
