data_image0
_chemical_formula_structural       Ca4Er8S16
_chemical_formula_sum              "Ca4 Er8 S16"
_cell_length_a       12.8925
_cell_length_b       3.86795
_cell_length_c       13.0552
_cell_angle_alpha    90
_cell_angle_beta     90
_cell_angle_gamma    90

_space_group_name_H-M_alt    "P 1"
_space_group_IT_number       1

loop_
  _space_group_symop_operation_xyz
  'x, y, z'

loop_
  _atom_site_type_symbol
  _atom_site_label
  _atom_site_symmetry_multiplicity
  _atom_site_fract_x
  _atom_site_fract_y
  _atom_site_fract_z
  _atom_site_occupancy
  Ca  Ca1       1.0  0.87000  0.25000  0.08080  1.0000
  Ca  Ca2       1.0  0.37000  0.25000  0.41900  1.0000
  Ca  Ca3       1.0  0.63000  0.75000  0.58100  1.0000
  Ca  Ca4       1.0  0.13000  0.75000  0.91900  1.0000
  Er  Er1       1.0  0.39300  0.75000  0.08440  1.0000
  Er  Er2       1.0  0.14700  0.25000  0.20300  1.0000
  Er  Er3       1.0  0.64700  0.25000  0.29700  1.0000
  Er  Er4       1.0  0.89300  0.75000  0.41600  1.0000
  Er  Er5       1.0  0.10700  0.25000  0.58400  1.0000
  Er  Er6       1.0  0.35300  0.75000  0.70300  1.0000
  Er  Er7       1.0  0.85300  0.75000  0.79700  1.0000
  Er  Er8       1.0  0.60700  0.25000  0.91600  1.0000
  S   S1        1.0  0.25800  0.25000  0.02650  1.0000
  S   S2        1.0  0.53500  0.25000  0.11700  1.0000
  S   S3        1.0  0.02980  0.75000  0.11900  1.0000
  S   S4        1.0  0.78300  0.75000  0.23700  1.0000
  S   S5        1.0  0.28300  0.75000  0.26300  1.0000
  S   S6        1.0  0.53000  0.75000  0.38100  1.0000
  S   S7        1.0  0.03460  0.25000  0.38300  1.0000
  S   S8        1.0  0.75800  0.25000  0.47300  1.0000
  S   S9        1.0  0.24200  0.75000  0.52700  1.0000
  S   S10       1.0  0.96500  0.75000  0.61700  1.0000
  S   S11       1.0  0.47000  0.25000  0.61900  1.0000
  S   S12       1.0  0.71700  0.25000  0.73700  1.0000
  S   S13       1.0  0.21700  0.25000  0.76300  1.0000
  S   S14       1.0  0.97000  0.25000  0.88100  1.0000
  S   S15       1.0  0.46500  0.75000  0.88300  1.0000
  S   S16       1.0  0.74200  0.75000  0.97300  1.0000
