data_image0
_chemical_formula_structural       Dy12N4Se12
_chemical_formula_sum              "Dy12 N4 Se12"
_cell_length_a       12.5324
_cell_length_b       3.94197
_cell_length_c       13.1748
_cell_angle_alpha    90
_cell_angle_beta     90
_cell_angle_gamma    90

_space_group_name_H-M_alt    "P 1"
_space_group_IT_number       1

loop_
  _space_group_symop_operation_xyz
  'x, y, z'

loop_
  _atom_site_type_symbol
  _atom_site_label
  _atom_site_symmetry_multiplicity
  _atom_site_fract_x
  _atom_site_fract_y
  _atom_site_fract_z
  _atom_site_occupancy
  Dy  Dy1       1.0  0.43700  0.75000  0.13400  1.0000
  Dy  Dy2       1.0  0.79700  0.75000  0.14200  1.0000
  Dy  Dy3       1.0  0.04210  0.25000  0.15000  1.0000
  Dy  Dy4       1.0  0.54200  0.25000  0.35000  1.0000
  Dy  Dy5       1.0  0.29700  0.75000  0.35800  1.0000
  Dy  Dy6       1.0  0.93700  0.75000  0.36600  1.0000
  Dy  Dy7       1.0  0.06270  0.25000  0.63400  1.0000
  Dy  Dy8       1.0  0.70300  0.25000  0.64200  1.0000
  Dy  Dy9       1.0  0.45800  0.75000  0.65000  1.0000
  Dy  Dy10      1.0  0.95800  0.75000  0.85000  1.0000
  Dy  Dy11      1.0  0.20300  0.25000  0.85800  1.0000
  Dy  Dy12      1.0  0.56300  0.25000  0.86600  1.0000
  N   N1        1.0  0.96400  0.75000  0.20300  1.0000
  N   N2        1.0  0.46400  0.75000  0.29700  1.0000
  N   N3        1.0  0.53600  0.25000  0.70300  1.0000
  N   N4        1.0  0.03630  0.25000  0.79700  1.0000
  Se  Se1       1.0  0.87000  0.25000  0.00553  1.0000
  Se  Se2       1.0  0.59700  0.25000  0.10200  1.0000
  Se  Se3       1.0  0.27500  0.25000  0.18800  1.0000
  Se  Se4       1.0  0.77500  0.25000  0.31200  1.0000
  Se  Se5       1.0  0.09680  0.25000  0.39800  1.0000
  Se  Se6       1.0  0.37000  0.25000  0.49400  1.0000
  Se  Se7       1.0  0.63000  0.75000  0.50600  1.0000
  Se  Se8       1.0  0.90300  0.75000  0.60200  1.0000
  Se  Se9       1.0  0.22500  0.75000  0.68800  1.0000
  Se  Se10      1.0  0.72500  0.75000  0.81200  1.0000
  Se  Se11      1.0  0.40300  0.75000  0.89800  1.0000
  Se  Se12      1.0  0.13000  0.75000  0.99400  1.0000
