data_image0
_chemical_formula_structural       As4Dy2K6S16
_chemical_formula_sum              "As4 Dy2 K6 S16"
_cell_length_a       8.96482
_cell_length_b       10.1579
_cell_length_c       10.8345
_cell_angle_alpha    107.449
_cell_angle_beta     102.846
_cell_angle_gamma    114.1

_space_group_name_H-M_alt    "P 1"
_space_group_IT_number       1

loop_
  _space_group_symop_operation_xyz
  'x, y, z'

loop_
  _atom_site_type_symbol
  _atom_site_label
  _atom_site_symmetry_multiplicity
  _atom_site_fract_x
  _atom_site_fract_y
  _atom_site_fract_z
  _atom_site_occupancy
  As  As1       1.0  0.00537  0.90500  0.24800  1.0000
  As  As2       1.0  0.74300  0.34300  0.24800  1.0000
  As  As3       1.0  0.25700  0.65700  0.75200  1.0000
  As  As4       1.0  0.99500  0.09490  0.75200  1.0000
  Dy  Dy1       1.0  0.99300  0.24300  0.48600  1.0000
  Dy  Dy2       1.0  0.00703  0.75700  0.51400  1.0000
  K   K1        1.0  0.50000  0.50000  0.00000  1.0000
  K   K2        1.0  0.00000  0.50000  0.00000  1.0000
  K   K3        1.0  0.25500  0.00523  0.01050  1.0000
  K   K4        1.0  0.48800  0.73800  0.47700  1.0000
  K   K5        1.0  0.51200  0.26200  0.52300  1.0000
  K   K6        1.0  0.74500  0.99500  0.99000  1.0000
  S   S1        1.0  0.63800  0.26500  0.02360  1.0000
  S   S2        1.0  0.88500  0.75900  0.02360  1.0000
  S   S3        1.0  0.13400  0.16000  0.29200  1.0000
  S   S4        1.0  0.65700  0.13200  0.29200  1.0000
  S   S5        1.0  0.03480  0.47300  0.34800  1.0000
  S   S6        1.0  0.81300  0.87500  0.34800  1.0000
  S   S7        1.0  0.65500  0.50000  0.35600  1.0000
  S   S8        1.0  0.20100  0.85600  0.35600  1.0000
  S   S9        1.0  0.79900  0.14400  0.64400  1.0000
  S   S10       1.0  0.34500  0.50000  0.64400  1.0000
  S   S11       1.0  0.18700  0.12500  0.65200  1.0000
  S   S12       1.0  0.96500  0.52700  0.65200  1.0000
  S   S13       1.0  0.34300  0.86800  0.70800  1.0000
  S   S14       1.0  0.86600  0.84000  0.70800  1.0000
  S   S15       1.0  0.11500  0.24100  0.97600  1.0000
  S   S16       1.0  0.36200  0.73500  0.97600  1.0000
