data_image0
_chemical_formula_structural       F4Ho4Mo4O16
_chemical_formula_sum              "F4 Ho4 Mo4 O16"
_cell_length_a       5.1512
_cell_length_b       12.1898
_cell_length_c       6.5965
_cell_angle_alpha    90
_cell_angle_beta     113.238
_cell_angle_gamma    90

_space_group_name_H-M_alt    "P 1"
_space_group_IT_number       1

loop_
  _space_group_symop_operation_xyz
  'x, y, z'

loop_
  _atom_site_type_symbol
  _atom_site_label
  _atom_site_symmetry_multiplicity
  _atom_site_fract_x
  _atom_site_fract_y
  _atom_site_fract_z
  _atom_site_occupancy
  F   F1        1.0  0.45200  0.10000  0.03610  1.0000
  F   F2        1.0  0.54800  0.60000  0.46400  1.0000
  F   F3        1.0  0.45200  0.40000  0.53600  1.0000
  F   F4        1.0  0.54800  0.90000  0.96400  1.0000
  Ho  Ho1       1.0  0.36100  0.94900  0.20000  1.0000
  Ho  Ho2       1.0  0.63900  0.44900  0.30000  1.0000
  Ho  Ho3       1.0  0.36100  0.55100  0.70000  1.0000
  Ho  Ho4       1.0  0.63900  0.05070  0.80000  1.0000
  Mo  Mo1       1.0  0.07790  0.64400  0.13000  1.0000
  Mo  Mo2       1.0  0.92200  0.14400  0.37000  1.0000
  Mo  Mo3       1.0  0.07790  0.85600  0.63000  1.0000
  Mo  Mo4       1.0  0.92200  0.35600  0.87000  1.0000
  O   O1        1.0  0.31000  0.56400  0.03660  1.0000
  O   O2        1.0  0.24400  0.34400  0.09670  1.0000
  O   O3        1.0  0.99800  0.06890  0.16000  1.0000
  O   O4        1.0  0.19400  0.77900  0.20900  1.0000
  O   O5        1.0  0.80600  0.27900  0.29100  1.0000
  O   O6        1.0  0.00222  0.56900  0.34000  1.0000
  O   O7        1.0  0.75600  0.84400  0.40300  1.0000
  O   O8        1.0  0.69000  0.06440  0.46300  1.0000
  O   O9        1.0  0.31000  0.93600  0.53700  1.0000
  O   O10       1.0  0.24400  0.15600  0.59700  1.0000
  O   O11       1.0  0.99800  0.43100  0.66000  1.0000
  O   O12       1.0  0.19400  0.72100  0.70900  1.0000
  O   O13       1.0  0.80600  0.22100  0.79100  1.0000
  O   O14       1.0  0.00222  0.93100  0.84000  1.0000
  O   O15       1.0  0.75600  0.65600  0.90300  1.0000
  O   O16       1.0  0.69000  0.43600  0.96300  1.0000
