data_image0
_chemical_formula_structural       Eu2Ge8Ni18
_chemical_formula_sum              "Eu2 Ge8 Ni18"
_cell_length_a       7.96178
_cell_length_b       7.96178
_cell_length_c       8.15854
_cell_angle_alpha    119.205
_cell_angle_beta     119.205
_cell_angle_gamma    90

_space_group_name_H-M_alt    "P 1"
_space_group_IT_number       1

loop_
  _space_group_symop_operation_xyz
  'x, y, z'

loop_
  _atom_site_type_symbol
  _atom_site_label
  _atom_site_symmetry_multiplicity
  _atom_site_fract_x
  _atom_site_fract_y
  _atom_site_fract_z
  _atom_site_occupancy
  Eu  Eu1       1.0  0.25000  0.25000  0.50000  1.0000
  Eu  Eu2       1.0  0.75000  0.75000  0.50000  1.0000
  Ge  Ge1       1.0  0.79600  0.29600  0.24500  1.0000
  Ge  Ge2       1.0  0.29600  0.44900  0.24500  1.0000
  Ge  Ge3       1.0  0.94900  0.79600  0.24500  1.0000
  Ge  Ge4       1.0  0.44900  0.94900  0.24500  1.0000
  Ge  Ge5       1.0  0.55100  0.05120  0.75500  1.0000
  Ge  Ge6       1.0  0.05120  0.20400  0.75500  1.0000
  Ge  Ge7       1.0  0.70400  0.55100  0.75500  1.0000
  Ge  Ge8       1.0  0.20400  0.70400  0.75500  1.0000
  Ni  Ni1       1.0  0.50000  0.00000  0.00000  1.0000
  Ni  Ni2       1.0  0.20300  0.06770  0.00000  1.0000
  Ni  Ni3       1.0  0.93200  0.20300  0.00000  1.0000
  Ni  Ni4       1.0  0.43200  0.29700  0.00000  1.0000
  Ni  Ni5       1.0  0.70300  0.43200  0.00000  1.0000
  Ni  Ni6       1.0  0.00000  0.50000  0.00000  1.0000
  Ni  Ni7       1.0  0.29700  0.56800  0.00000  1.0000
  Ni  Ni8       1.0  0.56800  0.70300  0.00000  1.0000
  Ni  Ni9       1.0  0.06770  0.79700  0.00000  1.0000
  Ni  Ni10      1.0  0.79700  0.93200  0.00000  1.0000
  Ni  Ni11      1.0  0.80500  0.05680  0.36200  1.0000
  Ni  Ni12      1.0  0.55700  0.30500  0.36200  1.0000
  Ni  Ni13      1.0  0.05680  0.55700  0.36200  1.0000
  Ni  Ni14      1.0  0.30500  0.80500  0.36200  1.0000
  Ni  Ni15      1.0  0.69500  0.19500  0.63800  1.0000
  Ni  Ni16      1.0  0.94300  0.44300  0.63800  1.0000
  Ni  Ni17      1.0  0.44300  0.69500  0.63800  1.0000
  Ni  Ni18      1.0  0.19500  0.94300  0.63800  1.0000
