data_image0
_chemical_formula_structural       Ba4Se16Yb8
_chemical_formula_sum              "Ba4 Se16 Yb8"
_cell_length_a       10.7664
_cell_length_b       4.55953
_cell_length_c       16.7914
_cell_angle_alpha    90
_cell_angle_beta     90
_cell_angle_gamma    90

_space_group_name_H-M_alt    "P 1"
_space_group_IT_number       1

loop_
  _space_group_symop_operation_xyz
  'x, y, z'

loop_
  _atom_site_type_symbol
  _atom_site_label
  _atom_site_symmetry_multiplicity
  _atom_site_fract_x
  _atom_site_fract_y
  _atom_site_fract_z
  _atom_site_occupancy
  Ba  Ba1       1.0  0.72700  0.75000  0.18000  1.0000
  Ba  Ba2       1.0  0.22700  0.75000  0.32000  1.0000
  Ba  Ba3       1.0  0.77300  0.25000  0.68000  1.0000
  Ba  Ba4       1.0  0.27300  0.25000  0.82000  1.0000
  Se  Se1       1.0  0.67300  0.25000  0.03480  1.0000
  Se  Se2       1.0  0.94000  0.25000  0.10600  1.0000
  Se  Se3       1.0  0.15600  0.25000  0.16600  1.0000
  Se  Se4       1.0  0.43000  0.75000  0.18100  1.0000
  Se  Se5       1.0  0.93000  0.75000  0.31900  1.0000
  Se  Se6       1.0  0.65600  0.25000  0.33400  1.0000
  Se  Se7       1.0  0.44000  0.25000  0.39400  1.0000
  Se  Se8       1.0  0.17300  0.25000  0.46500  1.0000
  Se  Se9       1.0  0.82700  0.75000  0.53500  1.0000
  Se  Se10      1.0  0.56000  0.75000  0.60600  1.0000
  Se  Se11      1.0  0.34400  0.75000  0.66600  1.0000
  Se  Se12      1.0  0.07050  0.25000  0.68100  1.0000
  Se  Se13      1.0  0.57000  0.25000  0.81900  1.0000
  Se  Se14      1.0  0.84400  0.75000  0.83400  1.0000
  Se  Se15      1.0  0.06020  0.75000  0.89400  1.0000
  Se  Se16      1.0  0.32700  0.75000  0.96500  1.0000
  Yb  Yb1       1.0  0.11500  0.75000  0.06910  1.0000
  Yb  Yb2       1.0  0.40900  0.25000  0.08050  1.0000
  Yb  Yb3       1.0  0.90900  0.25000  0.42000  1.0000
  Yb  Yb4       1.0  0.61500  0.75000  0.43100  1.0000
  Yb  Yb5       1.0  0.38500  0.25000  0.56900  1.0000
  Yb  Yb6       1.0  0.09110  0.75000  0.58000  1.0000
  Yb  Yb7       1.0  0.59100  0.75000  0.92000  1.0000
  Yb  Yb8       1.0  0.88500  0.25000  0.93100  1.0000
