data_image0
_chemical_formula_structural       As2Hf18W8
_chemical_formula_sum              "As2 Hf18 W8"
_cell_length_a       8.69283
_cell_length_b       8.69289
_cell_length_c       8.69374
_cell_angle_alpha    90
_cell_angle_beta     90
_cell_angle_gamma    120

_space_group_name_H-M_alt    "P 1"
_space_group_IT_number       1

loop_
  _space_group_symop_operation_xyz
  'x, y, z'

loop_
  _atom_site_type_symbol
  _atom_site_label
  _atom_site_symmetry_multiplicity
  _atom_site_fract_x
  _atom_site_fract_y
  _atom_site_fract_z
  _atom_site_occupancy
  As  As1       1.0  0.33300  0.66700  0.25000  1.0000
  As  As2       1.0  0.66700  0.33300  0.75000  1.0000
  Hf  Hf1       1.0  0.19500  0.39000  0.04620  1.0000
  Hf  Hf2       1.0  0.19500  0.80500  0.04620  1.0000
  Hf  Hf3       1.0  0.61000  0.80500  0.04620  1.0000
  Hf  Hf4       1.0  0.54000  0.08040  0.25000  1.0000
  Hf  Hf5       1.0  0.54000  0.46000  0.25000  1.0000
  Hf  Hf6       1.0  0.92000  0.46000  0.25000  1.0000
  Hf  Hf7       1.0  0.19500  0.80500  0.45400  1.0000
  Hf  Hf8       1.0  0.61000  0.80500  0.45400  1.0000
  Hf  Hf9       1.0  0.19500  0.39000  0.45400  1.0000
  Hf  Hf10      1.0  0.39000  0.19500  0.54600  1.0000
  Hf  Hf11      1.0  0.80500  0.19500  0.54600  1.0000
  Hf  Hf12      1.0  0.80500  0.61000  0.54600  1.0000
  Hf  Hf13      1.0  0.08040  0.54000  0.75000  1.0000
  Hf  Hf14      1.0  0.46000  0.54000  0.75000  1.0000
  Hf  Hf15      1.0  0.46000  0.92000  0.75000  1.0000
  Hf  Hf16      1.0  0.39000  0.19500  0.95400  1.0000
  Hf  Hf17      1.0  0.80500  0.19500  0.95400  1.0000
  Hf  Hf18      1.0  0.80500  0.61000  0.95400  1.0000
  W   W1        1.0  0.00000  0.00000  0.00000  1.0000
  W   W2        1.0  0.22000  0.11000  0.25000  1.0000
  W   W3        1.0  0.89000  0.11000  0.25000  1.0000
  W   W4        1.0  0.89000  0.78000  0.25000  1.0000
  W   W5        1.0  0.00000  0.00000  0.50000  1.0000
  W   W6        1.0  0.11000  0.22000  0.75000  1.0000
  W   W7        1.0  0.11000  0.89000  0.75000  1.0000
  W   W8        1.0  0.78000  0.89000  0.75000  1.0000
