data_image0
_chemical_formula_structural       As4K12S12
_chemical_formula_sum              "As4 K12 S12"
_cell_length_a       9.4569
_cell_length_b       9.4569
_cell_length_c       9.4569
_cell_angle_alpha    90
_cell_angle_beta     90
_cell_angle_gamma    90

_space_group_name_H-M_alt    "P 1"
_space_group_IT_number       1

loop_
  _space_group_symop_operation_xyz
  'x, y, z'

loop_
  _atom_site_type_symbol
  _atom_site_label
  _atom_site_symmetry_multiplicity
  _atom_site_fract_x
  _atom_site_fract_y
  _atom_site_fract_z
  _atom_site_occupancy
  As  As1       1.0  0.22800  0.22800  0.22800  1.0000
  As  As2       1.0  0.77200  0.72800  0.27200  1.0000
  As  As3       1.0  0.27200  0.77200  0.72800  1.0000
  As  As4       1.0  0.72800  0.27200  0.77200  1.0000
  K   K1        1.0  0.55900  0.94100  0.05920  1.0000
  K   K2        1.0  0.43300  0.56700  0.06700  1.0000
  K   K3        1.0  0.82700  0.32700  0.17300  1.0000
  K   K4        1.0  0.17300  0.82700  0.32700  1.0000
  K   K5        1.0  0.56700  0.06700  0.43300  1.0000
  K   K6        1.0  0.44100  0.44100  0.44100  1.0000
  K   K7        1.0  0.94100  0.05920  0.55900  1.0000
  K   K8        1.0  0.06700  0.43300  0.56700  1.0000
  K   K9        1.0  0.67300  0.67300  0.67300  1.0000
  K   K10       1.0  0.32700  0.17300  0.82700  1.0000
  K   K11       1.0  0.93300  0.93300  0.93300  1.0000
  K   K12       1.0  0.05920  0.55900  0.94100  1.0000
  S   S1        1.0  0.75300  0.65400  0.04270  1.0000
  S   S2        1.0  0.45700  0.24700  0.15400  1.0000
  S   S3        1.0  0.15400  0.45700  0.24700  1.0000
  S   S4        1.0  0.84600  0.95700  0.25300  1.0000
  S   S5        1.0  0.54300  0.74700  0.34600  1.0000
  S   S6        1.0  0.24700  0.15400  0.45700  1.0000
  S   S7        1.0  0.74700  0.34600  0.54300  1.0000
  S   S8        1.0  0.04270  0.75300  0.65400  1.0000
  S   S9        1.0  0.34600  0.54300  0.74700  1.0000
  S   S10       1.0  0.65400  0.04270  0.75300  1.0000
  S   S11       1.0  0.95700  0.25300  0.84600  1.0000
  S   S12       1.0  0.25300  0.84600  0.95700  1.0000
