data_image0
_chemical_formula_structural       Eu4Ho8Se16
_chemical_formula_sum              "Eu4 Ho8 Se16"
_cell_length_a       12.4102
_cell_length_b       4.09704
_cell_length_c       14.811
_cell_angle_alpha    90
_cell_angle_beta     90
_cell_angle_gamma    90

_space_group_name_H-M_alt    "P 1"
_space_group_IT_number       1

loop_
  _space_group_symop_operation_xyz
  'x, y, z'

loop_
  _atom_site_type_symbol
  _atom_site_label
  _atom_site_symmetry_multiplicity
  _atom_site_fract_x
  _atom_site_fract_y
  _atom_site_fract_z
  _atom_site_occupancy
  Eu  Eu1       1.0  0.74100  0.75000  0.16500  1.0000
  Eu  Eu2       1.0  0.24100  0.75000  0.33500  1.0000
  Eu  Eu3       1.0  0.75900  0.25000  0.66500  1.0000
  Eu  Eu4       1.0  0.25900  0.25000  0.83500  1.0000
  Ho  Ho1       1.0  0.41700  0.25000  0.09760  1.0000
  Ho  Ho2       1.0  0.06520  0.75000  0.11000  1.0000
  Ho  Ho3       1.0  0.56500  0.75000  0.39000  1.0000
  Ho  Ho4       1.0  0.91700  0.25000  0.40200  1.0000
  Ho  Ho5       1.0  0.08280  0.75000  0.59800  1.0000
  Ho  Ho6       1.0  0.43500  0.25000  0.61000  1.0000
  Ho  Ho7       1.0  0.93500  0.25000  0.89000  1.0000
  Ho  Ho8       1.0  0.58300  0.75000  0.90200  1.0000
  Se  Se1       1.0  0.63300  0.25000  0.03180  1.0000
  Se  Se2       1.0  0.90900  0.25000  0.07960  1.0000
  Se  Se3       1.0  0.20700  0.25000  0.17700  1.0000
  Se  Se4       1.0  0.47500  0.75000  0.21600  1.0000
  Se  Se5       1.0  0.97500  0.75000  0.28400  1.0000
  Se  Se6       1.0  0.70700  0.25000  0.32300  1.0000
  Se  Se7       1.0  0.40900  0.25000  0.42000  1.0000
  Se  Se8       1.0  0.13300  0.25000  0.46800  1.0000
  Se  Se9       1.0  0.86700  0.75000  0.53200  1.0000
  Se  Se10      1.0  0.59100  0.75000  0.58000  1.0000
  Se  Se11      1.0  0.29300  0.75000  0.67700  1.0000
  Se  Se12      1.0  0.02550  0.25000  0.71600  1.0000
  Se  Se13      1.0  0.52500  0.25000  0.78400  1.0000
  Se  Se14      1.0  0.79300  0.75000  0.82300  1.0000
  Se  Se15      1.0  0.09150  0.75000  0.92000  1.0000
  Se  Se16      1.0  0.36700  0.75000  0.96800  1.0000
