data_image0
_chemical_formula_structural       P4Pd24
_chemical_formula_sum              "P4 Pd24"
_cell_length_a       5.74613
_cell_length_b       9.58873
_cell_length_c       8.33229
_cell_angle_alpha    90
_cell_angle_beta     110.237
_cell_angle_gamma    90

_space_group_name_H-M_alt    "P 1"
_space_group_IT_number       1

loop_
  _space_group_symop_operation_xyz
  'x, y, z'

loop_
  _atom_site_type_symbol
  _atom_site_label
  _atom_site_symmetry_multiplicity
  _atom_site_fract_x
  _atom_site_fract_y
  _atom_site_fract_z
  _atom_site_occupancy
  P   P1        1.0  0.87600  0.23900  0.25000  1.0000
  P   P2        1.0  0.12400  0.73900  0.25000  1.0000
  P   P3        1.0  0.87600  0.26100  0.75000  1.0000
  P   P4        1.0  0.12400  0.76100  0.75000  1.0000
  Pd  Pd1       1.0  0.03980  0.13500  0.06350  1.0000
  Pd  Pd2       1.0  0.28700  0.63400  0.06420  1.0000
  Pd  Pd3       1.0  0.52800  0.13300  0.06870  1.0000
  Pd  Pd4       1.0  0.77300  0.63500  0.07030  1.0000
  Pd  Pd5       1.0  0.13200  0.42000  0.24800  1.0000
  Pd  Pd6       1.0  0.38200  0.91800  0.24900  1.0000
  Pd  Pd7       1.0  0.61800  0.41800  0.25100  1.0000
  Pd  Pd8       1.0  0.86800  0.92000  0.25200  1.0000
  Pd  Pd9       1.0  0.22700  0.13500  0.43000  1.0000
  Pd  Pd10      1.0  0.47200  0.63300  0.43100  1.0000
  Pd  Pd11      1.0  0.71300  0.13400  0.43600  1.0000
  Pd  Pd12      1.0  0.96000  0.63500  0.43600  1.0000
  Pd  Pd13      1.0  0.03980  0.36500  0.56400  1.0000
  Pd  Pd14      1.0  0.28700  0.86600  0.56400  1.0000
  Pd  Pd15      1.0  0.52800  0.36700  0.56900  1.0000
  Pd  Pd16      1.0  0.77300  0.86500  0.57000  1.0000
  Pd  Pd17      1.0  0.13200  0.07960  0.74800  1.0000
  Pd  Pd18      1.0  0.38200  0.58200  0.74900  1.0000
  Pd  Pd19      1.0  0.61800  0.08150  0.75100  1.0000
  Pd  Pd20      1.0  0.86800  0.58000  0.75200  1.0000
  Pd  Pd21      1.0  0.22700  0.36500  0.93000  1.0000
  Pd  Pd22      1.0  0.47200  0.86700  0.93100  1.0000
  Pd  Pd23      1.0  0.71300  0.36600  0.93600  1.0000
  Pd  Pd24      1.0  0.96000  0.86500  0.93600  1.0000
