data_image0
_chemical_formula_structural       Ba4S16Yb8
_chemical_formula_sum              "Ba4 S16 Yb8"
_cell_length_a       11.6808
_cell_length_b       4.31324
_cell_length_c       15.038
_cell_angle_alpha    90
_cell_angle_beta     90
_cell_angle_gamma    90

_space_group_name_H-M_alt    "P 1"
_space_group_IT_number       1

loop_
  _space_group_symop_operation_xyz
  'x, y, z'

loop_
  _atom_site_type_symbol
  _atom_site_label
  _atom_site_symmetry_multiplicity
  _atom_site_fract_x
  _atom_site_fract_y
  _atom_site_fract_z
  _atom_site_occupancy
  Ba  Ba1       1.0  0.70200  0.75000  0.18000  1.0000
  Ba  Ba2       1.0  0.20200  0.75000  0.32000  1.0000
  Ba  Ba3       1.0  0.79800  0.25000  0.68000  1.0000
  Ba  Ba4       1.0  0.29800  0.25000  0.82000  1.0000
  S   S1        1.0  0.69100  0.25000  0.01830  1.0000
  S   S2        1.0  0.86400  0.25000  0.06250  1.0000
  S   S3        1.0  0.14500  0.25000  0.17000  1.0000
  S   S4        1.0  0.43400  0.75000  0.20600  1.0000
  S   S5        1.0  0.93400  0.75000  0.29400  1.0000
  S   S6        1.0  0.64500  0.25000  0.33000  1.0000
  S   S7        1.0  0.36400  0.25000  0.43800  1.0000
  S   S8        1.0  0.19100  0.25000  0.48200  1.0000
  S   S9        1.0  0.80900  0.75000  0.51800  1.0000
  S   S10       1.0  0.63600  0.75000  0.56200  1.0000
  S   S11       1.0  0.35500  0.75000  0.67000  1.0000
  S   S12       1.0  0.06560  0.25000  0.70600  1.0000
  S   S13       1.0  0.56600  0.25000  0.79400  1.0000
  S   S14       1.0  0.85500  0.75000  0.83000  1.0000
  S   S15       1.0  0.13600  0.75000  0.93800  1.0000
  S   S16       1.0  0.30900  0.75000  0.98200  1.0000
  Yb  Yb1       1.0  0.35800  0.25000  0.11200  1.0000
  Yb  Yb2       1.0  0.02030  0.75000  0.11800  1.0000
  Yb  Yb3       1.0  0.52000  0.75000  0.38200  1.0000
  Yb  Yb4       1.0  0.85800  0.25000  0.38800  1.0000
  Yb  Yb5       1.0  0.14200  0.75000  0.61200  1.0000
  Yb  Yb6       1.0  0.48000  0.25000  0.61800  1.0000
  Yb  Yb7       1.0  0.98000  0.25000  0.88200  1.0000
  Yb  Yb8       1.0  0.64200  0.75000  0.88800  1.0000
