data_image0
_chemical_formula_structural       Eu4Sb8Se16
_chemical_formula_sum              "Eu4 Sb8 Se16"
_cell_length_a       12.5662
_cell_length_b       4.09924
_cell_length_c       15.0546
_cell_angle_alpha    90
_cell_angle_beta     90
_cell_angle_gamma    90

_space_group_name_H-M_alt    "P 1"
_space_group_IT_number       1

loop_
  _space_group_symop_operation_xyz
  'x, y, z'

loop_
  _atom_site_type_symbol
  _atom_site_label
  _atom_site_symmetry_multiplicity
  _atom_site_fract_x
  _atom_site_fract_y
  _atom_site_fract_z
  _atom_site_occupancy
  Eu  Eu1       1.0  0.26200  0.75000  0.17000  1.0000
  Eu  Eu2       1.0  0.76200  0.75000  0.33000  1.0000
  Eu  Eu3       1.0  0.23800  0.25000  0.67000  1.0000
  Eu  Eu4       1.0  0.73800  0.25000  0.83000  1.0000
  Sb  Sb1       1.0  0.57900  0.25000  0.09680  1.0000
  Sb  Sb2       1.0  0.94000  0.75000  0.11200  1.0000
  Sb  Sb3       1.0  0.44000  0.75000  0.38800  1.0000
  Sb  Sb4       1.0  0.07900  0.25000  0.40300  1.0000
  Sb  Sb5       1.0  0.92100  0.75000  0.59700  1.0000
  Sb  Sb6       1.0  0.56000  0.25000  0.61200  1.0000
  Sb  Sb7       1.0  0.06040  0.25000  0.88800  1.0000
  Sb  Sb8       1.0  0.42100  0.75000  0.90300  1.0000
  Se  Se1       1.0  0.37000  0.25000  0.04260  1.0000
  Se  Se2       1.0  0.09890  0.25000  0.07830  1.0000
  Se  Se3       1.0  0.79800  0.25000  0.17700  1.0000
  Se  Se4       1.0  0.53600  0.75000  0.21700  1.0000
  Se  Se5       1.0  0.03620  0.75000  0.28300  1.0000
  Se  Se6       1.0  0.29800  0.25000  0.32300  1.0000
  Se  Se7       1.0  0.59900  0.25000  0.42200  1.0000
  Se  Se8       1.0  0.87000  0.25000  0.45700  1.0000
  Se  Se9       1.0  0.13000  0.75000  0.54300  1.0000
  Se  Se10      1.0  0.40100  0.75000  0.57800  1.0000
  Se  Se11      1.0  0.70200  0.75000  0.67700  1.0000
  Se  Se12      1.0  0.96400  0.25000  0.71700  1.0000
  Se  Se13      1.0  0.46400  0.25000  0.78300  1.0000
  Se  Se14      1.0  0.20200  0.75000  0.82300  1.0000
  Se  Se15      1.0  0.90100  0.75000  0.92200  1.0000
  Se  Se16      1.0  0.63000  0.75000  0.95700  1.0000
