data_image0
_chemical_formula_structural       Cs2H2O8S2
_chemical_formula_sum              "Cs2 H2 O8 S2"
_cell_length_a       7.11453
_cell_length_b       5.6585
_cell_length_c       5.37501
_cell_angle_alpha    90
_cell_angle_beta     102.198
_cell_angle_gamma    90

_space_group_name_H-M_alt    "P 1"
_space_group_IT_number       1

loop_
  _space_group_symop_operation_xyz
  'x, y, z'

loop_
  _atom_site_type_symbol
  _atom_site_label
  _atom_site_symmetry_multiplicity
  _atom_site_fract_x
  _atom_site_fract_y
  _atom_site_fract_z
  _atom_site_occupancy
  Cs  Cs1       1.0  0.71700  0.75000  0.01670  1.0000
  Cs  Cs2       1.0  0.28300  0.25000  0.98300  1.0000
  H   H1        1.0  0.00000  0.00000  0.50000  1.0000
  H   H2        1.0  0.00000  0.50000  0.50000  1.0000
  O   O1        1.0  0.69600  0.25000  0.27000  1.0000
  O   O2        1.0  0.39700  0.75000  0.31300  1.0000
  O   O3        1.0  0.11600  0.53400  0.36900  1.0000
  O   O4        1.0  0.11600  0.96600  0.36900  1.0000
  O   O5        1.0  0.88400  0.03390  0.63100  1.0000
  O   O6        1.0  0.88400  0.46600  0.63100  1.0000
  O   O7        1.0  0.60300  0.25000  0.68700  1.0000
  O   O8        1.0  0.30400  0.75000  0.73000  1.0000
  S   S1        1.0  0.24400  0.75000  0.45300  1.0000
  S   S2        1.0  0.75600  0.25000  0.54700  1.0000
