data_image0
_chemical_formula_structural       I16Li8Zn4
_chemical_formula_sum              "I16 Li8 Zn4"
_cell_length_a       14.8185
_cell_length_b       8.56373
_cell_length_c       7.0282
_cell_angle_alpha    90
_cell_angle_beta     90
_cell_angle_gamma    90

_space_group_name_H-M_alt    "P 1"
_space_group_IT_number       1

loop_
  _space_group_symop_operation_xyz
  'x, y, z'

loop_
  _atom_site_type_symbol
  _atom_site_label
  _atom_site_symmetry_multiplicity
  _atom_site_fract_x
  _atom_site_fract_y
  _atom_site_fract_z
  _atom_site_occupancy
  I   I1        1.0  0.91100  0.75000  0.22500  1.0000
  I   I2        1.0  0.16700  0.00622  0.24500  1.0000
  I   I3        1.0  0.16700  0.49400  0.24500  1.0000
  I   I4        1.0  0.92300  0.25000  0.24900  1.0000
  I   I5        1.0  0.42300  0.25000  0.25100  1.0000
  I   I6        1.0  0.66700  0.00622  0.25500  1.0000
  I   I7        1.0  0.66700  0.49400  0.25500  1.0000
  I   I8        1.0  0.41100  0.75000  0.27500  1.0000
  I   I9        1.0  0.58900  0.25000  0.72500  1.0000
  I   I10       1.0  0.33300  0.50600  0.74500  1.0000
  I   I11       1.0  0.33300  0.99400  0.74500  1.0000
  I   I12       1.0  0.57700  0.75000  0.74900  1.0000
  I   I13       1.0  0.07660  0.75000  0.75100  1.0000
  I   I14       1.0  0.83300  0.50600  0.75500  1.0000
  I   I15       1.0  0.83300  0.99400  0.75500  1.0000
  I   I16       1.0  0.08880  0.25000  0.77500  1.0000
  Li  Li1       1.0  0.00000  0.00000  0.00000  1.0000
  Li  Li2       1.0  0.00000  0.50000  0.00000  1.0000
  Li  Li3       1.0  0.26400  0.25000  0.00141  1.0000
  Li  Li4       1.0  0.76400  0.25000  0.49900  1.0000
  Li  Li5       1.0  0.50000  0.00000  0.50000  1.0000
  Li  Li6       1.0  0.50000  0.50000  0.50000  1.0000
  Li  Li7       1.0  0.23600  0.75000  0.50100  1.0000
  Li  Li8       1.0  0.73600  0.75000  0.99900  1.0000
  Zn  Zn1       1.0  0.58700  0.25000  0.09660  1.0000
  Zn  Zn2       1.0  0.08650  0.25000  0.40300  1.0000
  Zn  Zn3       1.0  0.91300  0.75000  0.59700  1.0000
  Zn  Zn4       1.0  0.41300  0.75000  0.90300  1.0000
