data_image0
_chemical_formula_structural       Ba4S16Sm8
_chemical_formula_sum              "Ba4 S16 Sm8"
_cell_length_a       12.3619
_cell_length_b       4.14213
_cell_length_c       14.8126
_cell_angle_alpha    90
_cell_angle_beta     90
_cell_angle_gamma    90

_space_group_name_H-M_alt    "P 1"
_space_group_IT_number       1

loop_
  _space_group_symop_operation_xyz
  'x, y, z'

loop_
  _atom_site_type_symbol
  _atom_site_label
  _atom_site_symmetry_multiplicity
  _atom_site_fract_x
  _atom_site_fract_y
  _atom_site_fract_z
  _atom_site_occupancy
  Ba  Ba1       1.0  0.74500  0.75000  0.16000  1.0000
  Ba  Ba2       1.0  0.24500  0.75000  0.34000  1.0000
  Ba  Ba3       1.0  0.75500  0.25000  0.66000  1.0000
  Ba  Ba4       1.0  0.25500  0.25000  0.84000  1.0000
  S   S1        1.0  0.62900  0.25000  0.02200  1.0000
  S   S2        1.0  0.92100  0.25000  0.07930  1.0000
  S   S3        1.0  0.20900  0.25000  0.17100  1.0000
  S   S4        1.0  0.48100  0.75000  0.21700  1.0000
  S   S5        1.0  0.98100  0.75000  0.28300  1.0000
  S   S6        1.0  0.70900  0.25000  0.32900  1.0000
  S   S7        1.0  0.42100  0.25000  0.42100  1.0000
  S   S8        1.0  0.12900  0.25000  0.47800  1.0000
  S   S9        1.0  0.87100  0.75000  0.52200  1.0000
  S   S10       1.0  0.57900  0.75000  0.57900  1.0000
  S   S11       1.0  0.29100  0.75000  0.67100  1.0000
  S   S12       1.0  0.01900  0.25000  0.71700  1.0000
  S   S13       1.0  0.51900  0.25000  0.78300  1.0000
  S   S14       1.0  0.79100  0.75000  0.82900  1.0000
  S   S15       1.0  0.07920  0.75000  0.92100  1.0000
  S   S16       1.0  0.37100  0.75000  0.97800  1.0000
  Sm  Sm1       1.0  0.42300  0.25000  0.10400  1.0000
  Sm  Sm2       1.0  0.07330  0.75000  0.10800  1.0000
  Sm  Sm3       1.0  0.57300  0.75000  0.39200  1.0000
  Sm  Sm4       1.0  0.92300  0.25000  0.39600  1.0000
  Sm  Sm5       1.0  0.07710  0.75000  0.60400  1.0000
  Sm  Sm6       1.0  0.42700  0.25000  0.60800  1.0000
  Sm  Sm7       1.0  0.92700  0.25000  0.89200  1.0000
  Sm  Sm8       1.0  0.57700  0.75000  0.89600  1.0000
