data_image0
_chemical_formula_structural       C4Co12Mo12
_chemical_formula_sum              "C4 Co12 Mo12"
_cell_length_a       7.82523
_cell_length_b       7.82523
_cell_length_c       7.82523
_cell_angle_alpha    120
_cell_angle_beta     90
_cell_angle_gamma    120

_space_group_name_H-M_alt    "P 1"
_space_group_IT_number       1

loop_
  _space_group_symop_operation_xyz
  'x, y, z'

loop_
  _atom_site_type_symbol
  _atom_site_label
  _atom_site_symmetry_multiplicity
  _atom_site_fract_x
  _atom_site_fract_y
  _atom_site_fract_z
  _atom_site_occupancy
  C   C1        1.0  0.00000  0.50000  0.00000  1.0000
  C   C2        1.0  0.50000  0.00000  0.50000  1.0000
  C   C3        1.0  0.00000  0.00000  0.50000  1.0000
  C   C4        1.0  0.00000  0.50000  0.50000  1.0000
  Co  Co1       1.0  0.00000  0.00000  0.00000  1.0000
  Co  Co2       1.0  0.50000  0.00000  0.00000  1.0000
  Co  Co3       1.0  0.50000  0.50000  0.00000  1.0000
  Co  Co4       1.0  0.70500  0.91000  0.11500  1.0000
  Co  Co5       1.0  0.29500  0.09010  0.20500  1.0000
  Co  Co6       1.0  0.29500  0.41000  0.20500  1.0000
  Co  Co7       1.0  0.61500  0.41000  0.20500  1.0000
  Co  Co8       1.0  0.50000  0.50000  0.50000  1.0000
  Co  Co9       1.0  0.70500  0.59000  0.79500  1.0000
  Co  Co10      1.0  0.70500  0.91000  0.79500  1.0000
  Co  Co11      1.0  0.38500  0.59000  0.79500  1.0000
  Co  Co12      1.0  0.29500  0.09010  0.88500  1.0000
  Mo  Mo1       1.0  0.92400  0.34800  0.17400  1.0000
  Mo  Mo2       1.0  0.92400  0.75000  0.17400  1.0000
  Mo  Mo3       1.0  0.32600  0.75000  0.17400  1.0000
  Mo  Mo4       1.0  0.67400  0.84800  0.42400  1.0000
  Mo  Mo5       1.0  0.07600  0.25000  0.42400  1.0000
  Mo  Mo6       1.0  0.67400  0.25000  0.42400  1.0000
  Mo  Mo7       1.0  0.32600  0.15200  0.57600  1.0000
  Mo  Mo8       1.0  0.32600  0.75000  0.57600  1.0000
  Mo  Mo9       1.0  0.92400  0.75000  0.57600  1.0000
  Mo  Mo10      1.0  0.07600  0.25000  0.82600  1.0000
  Mo  Mo11      1.0  0.67400  0.25000  0.82600  1.0000
  Mo  Mo12      1.0  0.07600  0.65200  0.82600  1.0000
