data_image0
_chemical_formula_structural       Ga8Pd20
_chemical_formula_sum              "Ga8 Pd20"
_cell_length_a       18.6501
_cell_length_b       5.51393
_cell_length_c       4.12281
_cell_angle_alpha    90
_cell_angle_beta     90
_cell_angle_gamma    90

_space_group_name_H-M_alt    "P 1"
_space_group_IT_number       1

loop_
  _space_group_symop_operation_xyz
  'x, y, z'

loop_
  _atom_site_type_symbol
  _atom_site_label
  _atom_site_symmetry_multiplicity
  _atom_site_fract_x
  _atom_site_fract_y
  _atom_site_fract_z
  _atom_site_occupancy
  Ga  Ga1       1.0  0.45600  0.29700  0.25000  1.0000
  Ga  Ga2       1.0  0.17700  0.33200  0.25000  1.0000
  Ga  Ga3       1.0  0.04370  0.79700  0.25000  1.0000
  Ga  Ga4       1.0  0.32300  0.83200  0.25000  1.0000
  Ga  Ga5       1.0  0.67700  0.16800  0.75000  1.0000
  Ga  Ga6       1.0  0.95600  0.20300  0.75000  1.0000
  Ga  Ga7       1.0  0.82300  0.66800  0.75000  1.0000
  Ga  Ga8       1.0  0.54400  0.70300  0.75000  1.0000
  Pd  Pd1       1.0  0.03070  0.33000  0.25000  1.0000
  Pd  Pd2       1.0  0.32000  0.33300  0.25000  1.0000
  Pd  Pd3       1.0  0.73400  0.36400  0.25000  1.0000
  Pd  Pd4       1.0  0.88200  0.46700  0.25000  1.0000
  Pd  Pd5       1.0  0.58800  0.46800  0.25000  1.0000
  Pd  Pd6       1.0  0.46900  0.83000  0.25000  1.0000
  Pd  Pd7       1.0  0.18000  0.83300  0.25000  1.0000
  Pd  Pd8       1.0  0.76600  0.86400  0.25000  1.0000
  Pd  Pd9       1.0  0.61800  0.96700  0.25000  1.0000
  Pd  Pd10      1.0  0.91200  0.96800  0.25000  1.0000
  Pd  Pd11      1.0  0.08810  0.03230  0.75000  1.0000
  Pd  Pd12      1.0  0.38200  0.03350  0.75000  1.0000
  Pd  Pd13      1.0  0.23400  0.13600  0.75000  1.0000
  Pd  Pd14      1.0  0.82000  0.16700  0.75000  1.0000
  Pd  Pd15      1.0  0.53100  0.17000  0.75000  1.0000
  Pd  Pd16      1.0  0.41200  0.53200  0.75000  1.0000
  Pd  Pd17      1.0  0.11800  0.53300  0.75000  1.0000
  Pd  Pd18      1.0  0.26600  0.63600  0.75000  1.0000
  Pd  Pd19      1.0  0.68000  0.66700  0.75000  1.0000
  Pd  Pd20      1.0  0.96900  0.67000  0.75000  1.0000
