data_image0
_chemical_formula_structural       Er8Pb4S16
_chemical_formula_sum              "Er8 Pb4 S16"
_cell_length_a       12.0048
_cell_length_b       3.95393
_cell_length_c       14.2848
_cell_angle_alpha    90
_cell_angle_beta     90
_cell_angle_gamma    90

_space_group_name_H-M_alt    "P 1"
_space_group_IT_number       1

loop_
  _space_group_symop_operation_xyz
  'x, y, z'

loop_
  _atom_site_type_symbol
  _atom_site_label
  _atom_site_symmetry_multiplicity
  _atom_site_fract_x
  _atom_site_fract_y
  _atom_site_fract_z
  _atom_site_occupancy
  Er  Er1       1.0  0.41800  0.25000  0.09880  1.0000
  Er  Er2       1.0  0.06290  0.75000  0.11100  1.0000
  Er  Er3       1.0  0.56300  0.75000  0.38900  1.0000
  Er  Er4       1.0  0.91800  0.25000  0.40100  1.0000
  Er  Er5       1.0  0.08220  0.75000  0.59900  1.0000
  Er  Er6       1.0  0.43700  0.25000  0.61100  1.0000
  Er  Er7       1.0  0.93700  0.25000  0.88900  1.0000
  Er  Er8       1.0  0.58200  0.75000  0.90100  1.0000
  Pb  Pb1       1.0  0.73900  0.75000  0.16600  1.0000
  Pb  Pb2       1.0  0.23900  0.75000  0.33400  1.0000
  Pb  Pb3       1.0  0.76100  0.25000  0.66600  1.0000
  Pb  Pb4       1.0  0.26100  0.25000  0.83400  1.0000
  S   S1        1.0  0.62800  0.25000  0.02860  1.0000
  S   S2        1.0  0.91300  0.25000  0.07640  1.0000
  S   S3        1.0  0.20600  0.25000  0.17000  1.0000
  S   S4        1.0  0.47600  0.75000  0.21400  1.0000
  S   S5        1.0  0.97600  0.75000  0.28600  1.0000
  S   S6        1.0  0.70600  0.25000  0.33000  1.0000
  S   S7        1.0  0.41300  0.25000  0.42400  1.0000
  S   S8        1.0  0.12800  0.25000  0.47100  1.0000
  S   S9        1.0  0.87200  0.75000  0.52900  1.0000
  S   S10       1.0  0.58700  0.75000  0.57600  1.0000
  S   S11       1.0  0.29400  0.75000  0.67000  1.0000
  S   S12       1.0  0.02400  0.25000  0.71400  1.0000
  S   S13       1.0  0.52400  0.25000  0.78600  1.0000
  S   S14       1.0  0.79400  0.75000  0.83000  1.0000
  S   S15       1.0  0.08700  0.75000  0.92400  1.0000
  S   S16       1.0  0.37200  0.75000  0.97100  1.0000
