data_image0
_chemical_formula_structural       Eu4Ho8S16
_chemical_formula_sum              "Eu4 Ho8 S16"
_cell_length_a       11.8323
_cell_length_b       3.93896
_cell_length_c       14.2004
_cell_angle_alpha    90
_cell_angle_beta     90
_cell_angle_gamma    90

_space_group_name_H-M_alt    "P 1"
_space_group_IT_number       1

loop_
  _space_group_symop_operation_xyz
  'x, y, z'

loop_
  _atom_site_type_symbol
  _atom_site_label
  _atom_site_symmetry_multiplicity
  _atom_site_fract_x
  _atom_site_fract_y
  _atom_site_fract_z
  _atom_site_occupancy
  Eu  Eu1       1.0  0.74200  0.75000  0.16300  1.0000
  Eu  Eu2       1.0  0.24200  0.75000  0.33700  1.0000
  Eu  Eu3       1.0  0.75800  0.25000  0.66300  1.0000
  Eu  Eu4       1.0  0.25800  0.25000  0.83700  1.0000
  Ho  Ho1       1.0  0.41800  0.25000  0.10000  1.0000
  Ho  Ho2       1.0  0.06790  0.75000  0.11000  1.0000
  Ho  Ho3       1.0  0.56800  0.75000  0.39000  1.0000
  Ho  Ho4       1.0  0.91800  0.25000  0.40000  1.0000
  Ho  Ho5       1.0  0.08230  0.75000  0.60000  1.0000
  Ho  Ho6       1.0  0.43200  0.25000  0.61000  1.0000
  Ho  Ho7       1.0  0.93200  0.25000  0.89000  1.0000
  Ho  Ho8       1.0  0.58200  0.75000  0.90000  1.0000
  S   S1        1.0  0.63300  0.25000  0.02930  1.0000
  S   S2        1.0  0.91200  0.25000  0.07980  1.0000
  S   S3        1.0  0.20700  0.25000  0.17900  1.0000
  S   S4        1.0  0.47700  0.75000  0.21600  1.0000
  S   S5        1.0  0.97700  0.75000  0.28400  1.0000
  S   S6        1.0  0.70700  0.25000  0.32100  1.0000
  S   S7        1.0  0.41200  0.25000  0.42000  1.0000
  S   S8        1.0  0.13300  0.25000  0.47100  1.0000
  S   S9        1.0  0.86700  0.75000  0.52900  1.0000
  S   S10       1.0  0.58800  0.75000  0.58000  1.0000
  S   S11       1.0  0.29300  0.75000  0.67900  1.0000
  S   S12       1.0  0.02320  0.25000  0.71600  1.0000
  S   S13       1.0  0.52300  0.25000  0.78400  1.0000
  S   S14       1.0  0.79300  0.75000  0.82100  1.0000
  S   S15       1.0  0.08820  0.75000  0.92000  1.0000
  S   S16       1.0  0.36700  0.75000  0.97100  1.0000
