data_image0
_chemical_formula_structural       Al2H16K2N8
_chemical_formula_sum              "Al2 H16 K2 N8"
_cell_length_a       5.68028
_cell_length_b       5.68028
_cell_length_c       10.8159
_cell_angle_alpha    90
_cell_angle_beta     90
_cell_angle_gamma    124.763

_space_group_name_H-M_alt    "P 1"
_space_group_IT_number       1

loop_
  _space_group_symop_operation_xyz
  'x, y, z'

loop_
  _atom_site_type_symbol
  _atom_site_label
  _atom_site_symmetry_multiplicity
  _atom_site_fract_x
  _atom_site_fract_y
  _atom_site_fract_z
  _atom_site_occupancy
  Al  Al1       1.0  0.48300  0.48300  0.25000  1.0000
  Al  Al2       1.0  0.51700  0.51700  0.75000  1.0000
  H   H1        1.0  0.72100  0.27400  0.03490  1.0000
  H   H2        1.0  0.69600  0.66600  0.05890  1.0000
  H   H3        1.0  0.02110  0.24700  0.13800  1.0000
  H   H4        1.0  0.78900  0.53800  0.20700  1.0000
  H   H5        1.0  0.53800  0.78900  0.29300  1.0000
  H   H6        1.0  0.24700  0.02110  0.36200  1.0000
  H   H7        1.0  0.66600  0.69600  0.44100  1.0000
  H   H8        1.0  0.27400  0.72100  0.46500  1.0000
  H   H9        1.0  0.27900  0.72600  0.53500  1.0000
  H   H10       1.0  0.30400  0.33400  0.55900  1.0000
  H   H11       1.0  0.97900  0.75300  0.63800  1.0000
  H   H12       1.0  0.21100  0.46200  0.70700  1.0000
  H   H13       1.0  0.46200  0.21100  0.79300  1.0000
  H   H14       1.0  0.75300  0.97900  0.86200  1.0000
  H   H15       1.0  0.33400  0.30400  0.94100  1.0000
  H   H16       1.0  0.72600  0.27900  0.96500  1.0000
  K   K1        1.0  0.17900  0.82100  0.00000  1.0000
  K   K2        1.0  0.82100  0.17900  0.50000  1.0000
  N   N1        1.0  0.57500  0.70600  0.00257  1.0000
  N   N2        1.0  0.22200  0.29800  0.11800  1.0000
  N   N3        1.0  0.29800  0.22200  0.38200  1.0000
  N   N4        1.0  0.70600  0.57500  0.49700  1.0000
  N   N5        1.0  0.42500  0.29400  0.50300  1.0000
  N   N6        1.0  0.77800  0.70200  0.61800  1.0000
  N   N7        1.0  0.70200  0.77800  0.88200  1.0000
  N   N8        1.0  0.29400  0.42500  0.99700  1.0000
