data_image0
_chemical_formula_structural       Cs8Se16W4
_chemical_formula_sum              "Cs8 Se16 W4"
_cell_length_a       10.7202
_cell_length_b       7.57303
_cell_length_c       13.4652
_cell_angle_alpha    90
_cell_angle_beta     90
_cell_angle_gamma    90

_space_group_name_H-M_alt    "P 1"
_space_group_IT_number       1

loop_
  _space_group_symop_operation_xyz
  'x, y, z'

loop_
  _atom_site_type_symbol
  _atom_site_label
  _atom_site_symmetry_multiplicity
  _atom_site_fract_x
  _atom_site_fract_y
  _atom_site_fract_z
  _atom_site_occupancy
  Cs  Cs1       1.0  0.84200  0.75000  0.11200  1.0000
  Cs  Cs2       1.0  0.45700  0.25000  0.16300  1.0000
  Cs  Cs3       1.0  0.95700  0.25000  0.33700  1.0000
  Cs  Cs4       1.0  0.34200  0.75000  0.38800  1.0000
  Cs  Cs5       1.0  0.65800  0.25000  0.61200  1.0000
  Cs  Cs6       1.0  0.04280  0.75000  0.66300  1.0000
  Cs  Cs7       1.0  0.54300  0.75000  0.83700  1.0000
  Cs  Cs8       1.0  0.15800  0.25000  0.88800  1.0000
  Se  Se1       1.0  0.78200  0.25000  0.09990  1.0000
  Se  Se2       1.0  0.46500  0.75000  0.10800  1.0000
  Se  Se3       1.0  0.15700  0.00019  0.14100  1.0000
  Se  Se4       1.0  0.15700  0.50000  0.14100  1.0000
  Se  Se5       1.0  0.65700  0.00019  0.35900  1.0000
  Se  Se6       1.0  0.65700  0.50000  0.35900  1.0000
  Se  Se7       1.0  0.96500  0.75000  0.39200  1.0000
  Se  Se8       1.0  0.28200  0.25000  0.40000  1.0000
  Se  Se9       1.0  0.71800  0.75000  0.60000  1.0000
  Se  Se10      1.0  0.03490  0.25000  0.60800  1.0000
  Se  Se11      1.0  0.34300  0.50000  0.64100  1.0000
  Se  Se12      1.0  0.34300  0.00000  0.64100  1.0000
  Se  Se13      1.0  0.84300  0.50000  0.85900  1.0000
  Se  Se14      1.0  0.84300  0.00000  0.85900  1.0000
  Se  Se15      1.0  0.53500  0.25000  0.89200  1.0000
  Se  Se16      1.0  0.21800  0.75000  0.90000  1.0000
  W   W1        1.0  0.25100  0.75000  0.07190  1.0000
  W   W2        1.0  0.75100  0.75000  0.42800  1.0000
  W   W3        1.0  0.24900  0.25000  0.57200  1.0000
  W   W4        1.0  0.74900  0.25000  0.92800  1.0000
