data_image0
_chemical_formula_structural       C4Nb12Ni12
_chemical_formula_sum              "C4 Nb12 Ni12"
_cell_length_a       8.04957
_cell_length_b       8.04957
_cell_length_c       8.04957
_cell_angle_alpha    120
_cell_angle_beta     90
_cell_angle_gamma    120

_space_group_name_H-M_alt    "P 1"
_space_group_IT_number       1

loop_
  _space_group_symop_operation_xyz
  'x, y, z'

loop_
  _atom_site_type_symbol
  _atom_site_label
  _atom_site_symmetry_multiplicity
  _atom_site_fract_x
  _atom_site_fract_y
  _atom_site_fract_z
  _atom_site_occupancy
  C   C1        1.0  0.00000  0.50000  0.00000  1.0000
  C   C2        1.0  0.50000  0.00000  0.50000  1.0000
  C   C3        1.0  0.00000  0.00000  0.50000  1.0000
  C   C4        1.0  0.00000  0.50000  0.50000  1.0000
  Nb  Nb1       1.0  0.93100  0.36100  0.18100  1.0000
  Nb  Nb2       1.0  0.93100  0.75000  0.18100  1.0000
  Nb  Nb3       1.0  0.31900  0.75000  0.18100  1.0000
  Nb  Nb4       1.0  0.06930  0.25000  0.43100  1.0000
  Nb  Nb5       1.0  0.68100  0.25000  0.43100  1.0000
  Nb  Nb6       1.0  0.68100  0.86100  0.43100  1.0000
  Nb  Nb7       1.0  0.31900  0.13900  0.56900  1.0000
  Nb  Nb8       1.0  0.31900  0.75000  0.56900  1.0000
  Nb  Nb9       1.0  0.93100  0.75000  0.56900  1.0000
  Nb  Nb10      1.0  0.06930  0.25000  0.81900  1.0000
  Nb  Nb11      1.0  0.06930  0.63900  0.81900  1.0000
  Nb  Nb12      1.0  0.68100  0.25000  0.81900  1.0000
  Ni  Ni1       1.0  0.00000  0.00000  0.00000  1.0000
  Ni  Ni2       1.0  0.50000  0.00000  0.00000  1.0000
  Ni  Ni3       1.0  0.50000  0.50000  0.00000  1.0000
  Ni  Ni4       1.0  0.70600  0.91200  0.11700  1.0000
  Ni  Ni5       1.0  0.29400  0.08830  0.20600  1.0000
  Ni  Ni6       1.0  0.29400  0.41200  0.20600  1.0000
  Ni  Ni7       1.0  0.61700  0.41200  0.20600  1.0000
  Ni  Ni8       1.0  0.50000  0.50000  0.50000  1.0000
  Ni  Ni9       1.0  0.70600  0.58800  0.79400  1.0000
  Ni  Ni10      1.0  0.70600  0.91200  0.79400  1.0000
  Ni  Ni11      1.0  0.38300  0.58800  0.79400  1.0000
  Ni  Ni12      1.0  0.29400  0.08830  0.88300  1.0000
