data_image0
_chemical_formula_structural       Ce2Co18Si8
_chemical_formula_sum              "Ce2 Co18 Si8"
_cell_length_a       7.74291
_cell_length_b       7.74291
_cell_length_c       7.92339
_cell_angle_alpha    119.249
_cell_angle_beta     119.249
_cell_angle_gamma    90

_space_group_name_H-M_alt    "P 1"
_space_group_IT_number       1

loop_
  _space_group_symop_operation_xyz
  'x, y, z'

loop_
  _atom_site_type_symbol
  _atom_site_label
  _atom_site_symmetry_multiplicity
  _atom_site_fract_x
  _atom_site_fract_y
  _atom_site_fract_z
  _atom_site_occupancy
  Ce  Ce1       1.0  0.25000  0.25000  0.50000  1.0000
  Ce  Ce2       1.0  0.75000  0.75000  0.50000  1.0000
  Co  Co1       1.0  0.50000  0.00000  0.00000  1.0000
  Co  Co2       1.0  0.80000  0.07010  0.00000  1.0000
  Co  Co3       1.0  0.07010  0.20000  0.00000  1.0000
  Co  Co4       1.0  0.57000  0.30000  0.00000  1.0000
  Co  Co5       1.0  0.30000  0.43000  0.00000  1.0000
  Co  Co6       1.0  0.00000  0.50000  0.00000  1.0000
  Co  Co7       1.0  0.70000  0.57000  0.00000  1.0000
  Co  Co8       1.0  0.43000  0.70000  0.00000  1.0000
  Co  Co9       1.0  0.93000  0.80000  0.00000  1.0000
  Co  Co10      1.0  0.20000  0.93000  0.00000  1.0000
  Co  Co11      1.0  0.55100  0.05100  0.35900  1.0000
  Co  Co12      1.0  0.80800  0.30800  0.35900  1.0000
  Co  Co13      1.0  0.30800  0.55100  0.35900  1.0000
  Co  Co14      1.0  0.05100  0.80800  0.35900  1.0000
  Co  Co15      1.0  0.94900  0.19200  0.64100  1.0000
  Co  Co16      1.0  0.69200  0.44900  0.64100  1.0000
  Co  Co17      1.0  0.19200  0.69200  0.64100  1.0000
  Co  Co18      1.0  0.44900  0.94900  0.64100  1.0000
  Si  Si1       1.0  0.45200  0.29000  0.24200  1.0000
  Si  Si2       1.0  0.95200  0.45200  0.24200  1.0000
  Si  Si3       1.0  0.29000  0.79000  0.24200  1.0000
  Si  Si4       1.0  0.79000  0.95200  0.24200  1.0000
  Si  Si5       1.0  0.21000  0.04810  0.75800  1.0000
  Si  Si6       1.0  0.71000  0.21000  0.75800  1.0000
  Si  Si7       1.0  0.04810  0.54800  0.75800  1.0000
  Si  Si8       1.0  0.54800  0.71000  0.75800  1.0000
