data_image0
_chemical_formula_structural       Al4Mg12Pt8
_chemical_formula_sum              "Al4 Mg12 Pt8"
_cell_length_a       8.40368
_cell_length_b       8.40368
_cell_length_c       8.40368
_cell_angle_alpha    120
_cell_angle_beta     90
_cell_angle_gamma    120

_space_group_name_H-M_alt    "P 1"
_space_group_IT_number       1

loop_
  _space_group_symop_operation_xyz
  'x, y, z'

loop_
  _atom_site_type_symbol
  _atom_site_label
  _atom_site_symmetry_multiplicity
  _atom_site_fract_x
  _atom_site_fract_y
  _atom_site_fract_z
  _atom_site_occupancy
  Al  Al1       1.0  0.37500  0.75000  0.12500  1.0000
  Al  Al2       1.0  0.37500  0.25000  0.62500  1.0000
  Al  Al3       1.0  0.37500  0.75000  0.62500  1.0000
  Al  Al4       1.0  0.87500  0.25000  0.62500  1.0000
  Mg  Mg1       1.0  0.94700  0.50000  0.05260  1.0000
  Mg  Mg2       1.0  0.55300  0.10500  0.05260  1.0000
  Mg  Mg3       1.0  0.55300  0.50000  0.05260  1.0000
  Mg  Mg4       1.0  0.80300  0.00000  0.19700  1.0000
  Mg  Mg5       1.0  0.19700  0.00000  0.19700  1.0000
  Mg  Mg6       1.0  0.19700  0.39500  0.19700  1.0000
  Mg  Mg7       1.0  0.55300  0.50000  0.44700  1.0000
  Mg  Mg8       1.0  0.94700  0.50000  0.44700  1.0000
  Mg  Mg9       1.0  0.94700  0.89500  0.44700  1.0000
  Mg  Mg10      1.0  0.19700  0.00000  0.80300  1.0000
  Mg  Mg11      1.0  0.80300  0.60500  0.80300  1.0000
  Mg  Mg12      1.0  0.80300  0.00000  0.80300  1.0000
  Pt  Pt1       1.0  0.59100  0.18200  0.40900  1.0000
  Pt  Pt2       1.0  0.22700  0.81800  0.40900  1.0000
  Pt  Pt3       1.0  0.59100  0.81800  0.40900  1.0000
  Pt  Pt4       1.0  0.15900  0.31800  0.47700  1.0000
  Pt  Pt5       1.0  0.59100  0.18200  0.77300  1.0000
  Pt  Pt6       1.0  0.15900  0.31800  0.84100  1.0000
  Pt  Pt7       1.0  0.15900  0.68200  0.84100  1.0000
  Pt  Pt8       1.0  0.52300  0.68200  0.84100  1.0000
