data_image0
_chemical_formula_structural       C4Nb16Ni8
_chemical_formula_sum              "C4 Nb16 Ni8"
_cell_length_a       8.3052
_cell_length_b       8.3052
_cell_length_c       8.3052
_cell_angle_alpha    120
_cell_angle_beta     90
_cell_angle_gamma    120

_space_group_name_H-M_alt    "P 1"
_space_group_IT_number       1

loop_
  _space_group_symop_operation_xyz
  'x, y, z'

loop_
  _atom_site_type_symbol
  _atom_site_label
  _atom_site_symmetry_multiplicity
  _atom_site_fract_x
  _atom_site_fract_y
  _atom_site_fract_z
  _atom_site_occupancy
  C   C1        1.0  0.00000  0.50000  0.00000  1.0000
  C   C2        1.0  0.00000  0.00000  0.50000  1.0000
  C   C3        1.0  0.50000  0.00000  0.50000  1.0000
  C   C4        1.0  0.00000  0.50000  0.50000  1.0000
  Nb  Nb1       1.0  0.00000  0.00000  0.00000  1.0000
  Nb  Nb2       1.0  0.50000  0.00000  0.00000  1.0000
  Nb  Nb3       1.0  0.50000  0.50000  0.00000  1.0000
  Nb  Nb4       1.0  0.94100  0.38300  0.19100  1.0000
  Nb  Nb5       1.0  0.30900  0.75000  0.19100  1.0000
  Nb  Nb6       1.0  0.94100  0.75000  0.19100  1.0000
  Nb  Nb7       1.0  0.05860  0.25000  0.44100  1.0000
  Nb  Nb8       1.0  0.69100  0.25000  0.44100  1.0000
  Nb  Nb9       1.0  0.69100  0.88300  0.44100  1.0000
  Nb  Nb10      1.0  0.50000  0.50000  0.50000  1.0000
  Nb  Nb11      1.0  0.30900  0.11700  0.55900  1.0000
  Nb  Nb12      1.0  0.30900  0.75000  0.55900  1.0000
  Nb  Nb13      1.0  0.94100  0.75000  0.55900  1.0000
  Nb  Nb14      1.0  0.05860  0.25000  0.80900  1.0000
  Nb  Nb15      1.0  0.05860  0.61700  0.80900  1.0000
  Nb  Nb16      1.0  0.69100  0.25000  0.80900  1.0000
  Ni  Ni1       1.0  0.70500  0.91000  0.11500  1.0000
  Ni  Ni2       1.0  0.29500  0.09020  0.20500  1.0000
  Ni  Ni3       1.0  0.29500  0.41000  0.20500  1.0000
  Ni  Ni4       1.0  0.61500  0.41000  0.20500  1.0000
  Ni  Ni5       1.0  0.38500  0.59000  0.79500  1.0000
  Ni  Ni6       1.0  0.70500  0.59000  0.79500  1.0000
  Ni  Ni7       1.0  0.70500  0.91000  0.79500  1.0000
  Ni  Ni8       1.0  0.29500  0.09020  0.88500  1.0000
