data_image0
_chemical_formula_structural       Co6Ga18Yb4
_chemical_formula_sum              "Co6 Ga18 Yb4"
_cell_length_a       7.33779
_cell_length_b       7.29406
_cell_length_c       9.49448
_cell_angle_alpha    90
_cell_angle_beta     90
_cell_angle_gamma    59.8015

_space_group_name_H-M_alt    "P 1"
_space_group_IT_number       1

loop_
  _space_group_symop_operation_xyz
  'x, y, z'

loop_
  _atom_site_type_symbol
  _atom_site_label
  _atom_site_symmetry_multiplicity
  _atom_site_fract_x
  _atom_site_fract_y
  _atom_site_fract_z
  _atom_site_occupancy
  Co  Co1       1.0  0.00000  0.00000  0.00000  1.0000
  Co  Co2       1.0  0.32800  0.34300  0.00000  1.0000
  Co  Co3       1.0  0.67200  0.65700  0.00000  1.0000
  Co  Co4       1.0  0.00000  0.00000  0.50000  1.0000
  Co  Co5       1.0  0.32800  0.34300  0.50000  1.0000
  Co  Co6       1.0  0.67200  0.65700  0.50000  1.0000
  Ga  Ga1       1.0  0.33400  0.00000  0.05700  1.0000
  Ga  Ga2       1.0  0.66600  0.33300  0.06920  1.0000
  Ga  Ga3       1.0  0.99900  0.66700  0.06920  1.0000
  Ga  Ga4       1.0  0.88200  0.00000  0.25000  1.0000
  Ga  Ga5       1.0  0.44700  0.21800  0.25000  1.0000
  Ga  Ga6       1.0  0.66500  0.78200  0.25000  1.0000
  Ga  Ga7       1.0  0.66600  0.33300  0.43100  1.0000
  Ga  Ga8       1.0  0.99900  0.66700  0.43100  1.0000
  Ga  Ga9       1.0  0.33400  0.00000  0.44300  1.0000
  Ga  Ga10      1.0  0.66600  0.00000  0.55700  1.0000
  Ga  Ga11      1.0  0.00146  0.33300  0.56900  1.0000
  Ga  Ga12      1.0  0.33400  0.66700  0.56900  1.0000
  Ga  Ga13      1.0  0.11800  0.00000  0.75000  1.0000
  Ga  Ga14      1.0  0.33500  0.21800  0.75000  1.0000
  Ga  Ga15      1.0  0.55300  0.78200  0.75000  1.0000
  Ga  Ga16      1.0  0.00146  0.33300  0.93100  1.0000
  Ga  Ga17      1.0  0.33400  0.66700  0.93100  1.0000
  Ga  Ga18      1.0  0.66600  0.00000  0.94300  1.0000
  Yb  Yb1       1.0  0.00253  0.32900  0.25000  1.0000
  Yb  Yb2       1.0  0.33100  0.67100  0.25000  1.0000
  Yb  Yb3       1.0  0.66900  0.32900  0.75000  1.0000
  Yb  Yb4       1.0  0.99700  0.67100  0.75000  1.0000
