data_image0
_chemical_formula_structural       Co8N4Nb16
_chemical_formula_sum              "Co8 N4 Nb16"
_cell_length_a       8.23092
_cell_length_b       8.23092
_cell_length_c       8.23092
_cell_angle_alpha    120
_cell_angle_beta     90
_cell_angle_gamma    120

_space_group_name_H-M_alt    "P 1"
_space_group_IT_number       1

loop_
  _space_group_symop_operation_xyz
  'x, y, z'

loop_
  _atom_site_type_symbol
  _atom_site_label
  _atom_site_symmetry_multiplicity
  _atom_site_fract_x
  _atom_site_fract_y
  _atom_site_fract_z
  _atom_site_occupancy
  Co  Co1       1.0  0.70300  0.90700  0.11000  1.0000
  Co  Co2       1.0  0.29700  0.09310  0.20300  1.0000
  Co  Co3       1.0  0.29700  0.40700  0.20300  1.0000
  Co  Co4       1.0  0.61000  0.40700  0.20300  1.0000
  Co  Co5       1.0  0.70300  0.59300  0.79700  1.0000
  Co  Co6       1.0  0.70300  0.90700  0.79700  1.0000
  Co  Co7       1.0  0.39000  0.59300  0.79700  1.0000
  Co  Co8       1.0  0.29700  0.09310  0.89000  1.0000
  N   N1        1.0  0.00000  0.50000  0.00000  1.0000
  N   N2        1.0  0.00000  0.00000  0.50000  1.0000
  N   N3        1.0  0.50000  0.00000  0.50000  1.0000
  N   N4        1.0  0.00000  0.50000  0.50000  1.0000
  Nb  Nb1       1.0  0.00000  0.00000  0.00000  1.0000
  Nb  Nb2       1.0  0.50000  0.00000  0.00000  1.0000
  Nb  Nb3       1.0  0.50000  0.50000  0.00000  1.0000
  Nb  Nb4       1.0  0.31100  0.75000  0.18900  1.0000
  Nb  Nb5       1.0  0.93900  0.37700  0.18900  1.0000
  Nb  Nb6       1.0  0.93900  0.75000  0.18900  1.0000
  Nb  Nb7       1.0  0.68900  0.87700  0.43900  1.0000
  Nb  Nb8       1.0  0.68900  0.25000  0.43900  1.0000
  Nb  Nb9       1.0  0.06140  0.25000  0.43900  1.0000
  Nb  Nb10      1.0  0.50000  0.50000  0.50000  1.0000
  Nb  Nb11      1.0  0.31100  0.12300  0.56100  1.0000
  Nb  Nb12      1.0  0.31100  0.75000  0.56100  1.0000
  Nb  Nb13      1.0  0.93900  0.75000  0.56100  1.0000
  Nb  Nb14      1.0  0.68900  0.25000  0.81100  1.0000
  Nb  Nb15      1.0  0.06140  0.62300  0.81100  1.0000
  Nb  Nb16      1.0  0.06140  0.25000  0.81100  1.0000
