data_image0
_chemical_formula_structural       C4Fe12Mo12
_chemical_formula_sum              "C4 Fe12 Mo12"
_cell_length_a       7.81413
_cell_length_b       7.81413
_cell_length_c       7.81413
_cell_angle_alpha    120
_cell_angle_beta     90
_cell_angle_gamma    120

_space_group_name_H-M_alt    "P 1"
_space_group_IT_number       1

loop_
  _space_group_symop_operation_xyz
  'x, y, z'

loop_
  _atom_site_type_symbol
  _atom_site_label
  _atom_site_symmetry_multiplicity
  _atom_site_fract_x
  _atom_site_fract_y
  _atom_site_fract_z
  _atom_site_occupancy
  C   C1        1.0  0.00000  0.50000  0.00000  1.0000
  C   C2        1.0  0.00000  0.00000  0.50000  1.0000
  C   C3        1.0  0.50000  0.00000  0.50000  1.0000
  C   C4        1.0  0.00000  0.50000  0.50000  1.0000
  Fe  Fe1       1.0  0.00000  0.00000  0.00000  1.0000
  Fe  Fe2       1.0  0.50000  0.00000  0.00000  1.0000
  Fe  Fe3       1.0  0.50000  0.50000  0.00000  1.0000
  Fe  Fe4       1.0  0.70200  0.90400  0.10600  1.0000
  Fe  Fe5       1.0  0.29800  0.09600  0.20200  1.0000
  Fe  Fe6       1.0  0.29800  0.40400  0.20200  1.0000
  Fe  Fe7       1.0  0.60600  0.40400  0.20200  1.0000
  Fe  Fe8       1.0  0.50000  0.50000  0.50000  1.0000
  Fe  Fe9       1.0  0.39400  0.59600  0.79800  1.0000
  Fe  Fe10      1.0  0.70200  0.59600  0.79800  1.0000
  Fe  Fe11      1.0  0.70200  0.90400  0.79800  1.0000
  Fe  Fe12      1.0  0.29800  0.09600  0.89400  1.0000
  Mo  Mo1       1.0  0.92300  0.34600  0.17300  1.0000
  Mo  Mo2       1.0  0.92300  0.75000  0.17300  1.0000
  Mo  Mo3       1.0  0.32700  0.75000  0.17300  1.0000
  Mo  Mo4       1.0  0.67300  0.25000  0.42300  1.0000
  Mo  Mo5       1.0  0.67300  0.84600  0.42300  1.0000
  Mo  Mo6       1.0  0.07700  0.25000  0.42300  1.0000
  Mo  Mo7       1.0  0.32700  0.15400  0.57700  1.0000
  Mo  Mo8       1.0  0.32700  0.75000  0.57700  1.0000
  Mo  Mo9       1.0  0.92300  0.75000  0.57700  1.0000
  Mo  Mo10      1.0  0.67300  0.25000  0.82700  1.0000
  Mo  Mo11      1.0  0.07700  0.65400  0.82700  1.0000
  Mo  Mo12      1.0  0.07700  0.25000  0.82700  1.0000
