data_image0
_chemical_formula_structural       Be2Cu24La2
_chemical_formula_sum              "Be2 Cu24 La2"
_cell_length_a       8.10486
_cell_length_b       8.10486
_cell_length_c       8.10486
_cell_angle_alpha    120
_cell_angle_beta     90
_cell_angle_gamma    120

_space_group_name_H-M_alt    "P 1"
_space_group_IT_number       1

loop_
  _space_group_symop_operation_xyz
  'x, y, z'

loop_
  _atom_site_type_symbol
  _atom_site_label
  _atom_site_symmetry_multiplicity
  _atom_site_fract_x
  _atom_site_fract_y
  _atom_site_fract_z
  _atom_site_occupancy
  Be  Be1       1.0  0.00000  0.00000  0.00000  1.0000
  Be  Be2       1.0  0.50000  0.00000  0.50000  1.0000
  Cu  Cu1       1.0  0.29200  0.35400  0.06170  1.0000
  Cu  Cu2       1.0  0.70800  0.00000  0.06170  1.0000
  Cu  Cu3       1.0  0.06170  0.76900  0.06170  1.0000
  Cu  Cu4       1.0  0.43800  0.00000  0.20800  1.0000
  Cu  Cu5       1.0  0.20800  0.64600  0.20800  1.0000
  Cu  Cu6       1.0  0.56200  0.76900  0.20800  1.0000
  Cu  Cu7       1.0  0.29200  0.23100  0.29200  1.0000
  Cu  Cu8       1.0  0.06170  0.35400  0.29200  1.0000
  Cu  Cu9       1.0  0.93800  0.00000  0.29200  1.0000
  Cu  Cu10      1.0  0.20800  0.00000  0.43800  1.0000
  Cu  Cu11      1.0  0.43800  0.64600  0.43800  1.0000
  Cu  Cu12      1.0  0.79200  0.23100  0.43800  1.0000
  Cu  Cu13      1.0  0.56200  0.35400  0.56200  1.0000
  Cu  Cu14      1.0  0.20800  0.76900  0.56200  1.0000
  Cu  Cu15      1.0  0.79200  0.00000  0.56200  1.0000
  Cu  Cu16      1.0  0.06170  0.00000  0.70800  1.0000
  Cu  Cu17      1.0  0.93800  0.64600  0.70800  1.0000
  Cu  Cu18      1.0  0.70800  0.76900  0.70800  1.0000
  Cu  Cu19      1.0  0.43800  0.23100  0.79200  1.0000
  Cu  Cu20      1.0  0.79200  0.35400  0.79200  1.0000
  Cu  Cu21      1.0  0.56200  0.00000  0.79200  1.0000
  Cu  Cu22      1.0  0.70800  0.64600  0.93800  1.0000
  Cu  Cu23      1.0  0.93800  0.23100  0.93800  1.0000
  Cu  Cu24      1.0  0.29200  0.00000  0.93800  1.0000
  La  La1       1.0  0.75000  0.50000  0.25000  1.0000
  La  La2       1.0  0.25000  0.50000  0.75000  1.0000
