data_image0
_chemical_formula_structural       Eu4Se16Y8
_chemical_formula_sum              "Eu4 Se16 Y8"
_cell_length_a       12.4201
_cell_length_b       4.11701
_cell_length_c       14.8845
_cell_angle_alpha    90
_cell_angle_beta     90
_cell_angle_gamma    90

_space_group_name_H-M_alt    "P 1"
_space_group_IT_number       1

loop_
  _space_group_symop_operation_xyz
  'x, y, z'

loop_
  _atom_site_type_symbol
  _atom_site_label
  _atom_site_symmetry_multiplicity
  _atom_site_fract_x
  _atom_site_fract_y
  _atom_site_fract_z
  _atom_site_occupancy
  Eu  Eu1       1.0  0.74100  0.75000  0.16500  1.0000
  Eu  Eu2       1.0  0.24100  0.75000  0.33500  1.0000
  Eu  Eu3       1.0  0.75900  0.25000  0.66500  1.0000
  Eu  Eu4       1.0  0.25900  0.25000  0.83500  1.0000
  Se  Se1       1.0  0.63500  0.25000  0.03100  1.0000
  Se  Se2       1.0  0.90900  0.25000  0.08050  1.0000
  Se  Se3       1.0  0.20800  0.25000  0.18000  1.0000
  Se  Se4       1.0  0.47700  0.75000  0.21600  1.0000
  Se  Se5       1.0  0.97700  0.75000  0.28400  1.0000
  Se  Se6       1.0  0.70800  0.25000  0.32000  1.0000
  Se  Se7       1.0  0.40900  0.25000  0.41900  1.0000
  Se  Se8       1.0  0.13500  0.25000  0.46900  1.0000
  Se  Se9       1.0  0.86500  0.75000  0.53100  1.0000
  Se  Se10      1.0  0.59100  0.75000  0.58100  1.0000
  Se  Se11      1.0  0.29200  0.75000  0.68000  1.0000
  Se  Se12      1.0  0.02340  0.25000  0.71600  1.0000
  Se  Se13      1.0  0.52300  0.25000  0.78400  1.0000
  Se  Se14      1.0  0.79200  0.75000  0.82000  1.0000
  Se  Se15      1.0  0.09060  0.75000  0.91900  1.0000
  Se  Se16      1.0  0.36500  0.75000  0.96900  1.0000
  Y   Y1        1.0  0.41800  0.25000  0.09810  1.0000
  Y   Y2        1.0  0.06740  0.75000  0.11000  1.0000
  Y   Y3        1.0  0.56700  0.75000  0.39000  1.0000
  Y   Y4        1.0  0.91800  0.25000  0.40200  1.0000
  Y   Y5        1.0  0.08210  0.75000  0.59800  1.0000
  Y   Y6        1.0  0.43300  0.25000  0.61000  1.0000
  Y   Y7        1.0  0.93300  0.25000  0.89000  1.0000
  Y   Y8        1.0  0.58200  0.75000  0.90200  1.0000
