data_image0
_chemical_formula_structural       Cu4Na8S12Sb4
_chemical_formula_sum              "Cu4 Na8 S12 Sb4"
_cell_length_a       5.84291
_cell_length_b       17.15
_cell_length_c       6.79184
_cell_angle_alpha    90
_cell_angle_beta     113.122
_cell_angle_gamma    90

_space_group_name_H-M_alt    "P 1"
_space_group_IT_number       1

loop_
  _space_group_symop_operation_xyz
  'x, y, z'

loop_
  _atom_site_type_symbol
  _atom_site_label
  _atom_site_symmetry_multiplicity
  _atom_site_fract_x
  _atom_site_fract_y
  _atom_site_fract_z
  _atom_site_occupancy
  Cu  Cu1       1.0  0.98200  0.21200  0.10100  1.0000
  Cu  Cu2       1.0  0.51800  0.71200  0.39900  1.0000
  Cu  Cu3       1.0  0.48200  0.28800  0.60100  1.0000
  Cu  Cu4       1.0  0.01780  0.78800  0.89900  1.0000
  Na  Na1       1.0  0.55300  0.88700  0.11800  1.0000
  Na  Na2       1.0  0.34400  0.53800  0.19100  1.0000
  Na  Na3       1.0  0.15600  0.03840  0.30900  1.0000
  Na  Na4       1.0  0.94700  0.38700  0.38200  1.0000
  Na  Na5       1.0  0.05330  0.61300  0.61800  1.0000
  Na  Na6       1.0  0.84400  0.96200  0.69100  1.0000
  Na  Na7       1.0  0.65600  0.46200  0.80900  1.0000
  Na  Na8       1.0  0.44700  0.11300  0.88200  1.0000
  S   S1        1.0  0.32900  0.69600  0.03850  1.0000
  S   S2        1.0  0.05150  0.88800  0.12600  1.0000
  S   S3        1.0  0.85400  0.55700  0.19600  1.0000
  S   S4        1.0  0.64600  0.05660  0.30400  1.0000
  S   S5        1.0  0.44900  0.38800  0.37400  1.0000
  S   S6        1.0  0.17100  0.19600  0.46100  1.0000
  S   S7        1.0  0.82900  0.80400  0.53900  1.0000
  S   S8        1.0  0.55100  0.61200  0.62600  1.0000
  S   S9        1.0  0.35400  0.94300  0.69600  1.0000
  S   S10       1.0  0.14600  0.44300  0.80400  1.0000
  S   S11       1.0  0.94900  0.11200  0.87400  1.0000
  S   S12       1.0  0.67100  0.30400  0.96100  1.0000
  Sb  Sb1       1.0  0.27200  0.32600  0.01850  1.0000
  Sb  Sb2       1.0  0.22800  0.82600  0.48100  1.0000
  Sb  Sb3       1.0  0.77200  0.17400  0.51900  1.0000
  Sb  Sb4       1.0  0.72800  0.67400  0.98100  1.0000
