data_image0
_chemical_formula_structural       I8O20
_chemical_formula_sum              "I8 O20"
_cell_length_a       10.8543
_cell_length_b       4.9956
_cell_length_c       7.99974
_cell_angle_alpha    90
_cell_angle_beta     107.573
_cell_angle_gamma    90

_space_group_name_H-M_alt    "P 1"
_space_group_IT_number       1

loop_
  _space_group_symop_operation_xyz
  'x, y, z'

loop_
  _atom_site_type_symbol
  _atom_site_label
  _atom_site_symmetry_multiplicity
  _atom_site_fract_x
  _atom_site_fract_y
  _atom_site_fract_z
  _atom_site_occupancy
  I   I1        1.0  0.37400  0.66100  0.15100  1.0000
  I   I2        1.0  0.12500  0.12700  0.21000  1.0000
  I   I3        1.0  0.87500  0.62700  0.29000  1.0000
  I   I4        1.0  0.62600  0.16100  0.34900  1.0000
  I   I5        1.0  0.37400  0.83900  0.65100  1.0000
  I   I6        1.0  0.12500  0.37300  0.71000  1.0000
  I   I7        1.0  0.87500  0.87300  0.79000  1.0000
  I   I8        1.0  0.62600  0.33900  0.84900  1.0000
  O   O1        1.0  0.80500  0.53300  0.06100  1.0000
  O   O2        1.0  0.25200  0.97100  0.11700  1.0000
  O   O3        1.0  0.01180  0.84000  0.14900  1.0000
  O   O4        1.0  0.50500  0.33600  0.15700  1.0000
  O   O5        1.0  0.69300  0.98300  0.20100  1.0000
  O   O6        1.0  0.30700  0.48300  0.29900  1.0000
  O   O7        1.0  0.49500  0.83600  0.34300  1.0000
  O   O8        1.0  0.98800  0.34000  0.35100  1.0000
  O   O9        1.0  0.74800  0.47100  0.38300  1.0000
  O   O10       1.0  0.19500  0.03310  0.43900  1.0000
  O   O11       1.0  0.80500  0.96700  0.56100  1.0000
  O   O12       1.0  0.25200  0.52900  0.61700  1.0000
  O   O13       1.0  0.01180  0.66000  0.64900  1.0000
  O   O14       1.0  0.50500  0.16400  0.65700  1.0000
  O   O15       1.0  0.69300  0.51700  0.70100  1.0000
  O   O16       1.0  0.30700  0.01700  0.79900  1.0000
  O   O17       1.0  0.49500  0.66400  0.84300  1.0000
  O   O18       1.0  0.98800  0.16000  0.85100  1.0000
  O   O19       1.0  0.74800  0.02910  0.88300  1.0000
  O   O20       1.0  0.19500  0.46700  0.93900  1.0000
