data_image0
_chemical_formula_structural       Ce12Ge8Ru8
_chemical_formula_sum              "Ce12 Ge8 Ru8"
_cell_length_a       5.84216
_cell_length_b       8.07715
_cell_length_c       13.8648
_cell_angle_alpha    90
_cell_angle_beta     90
_cell_angle_gamma    90

_space_group_name_H-M_alt    "P 1"
_space_group_IT_number       1

loop_
  _space_group_symop_operation_xyz
  'x, y, z'

loop_
  _atom_site_type_symbol
  _atom_site_label
  _atom_site_symmetry_multiplicity
  _atom_site_fract_x
  _atom_site_fract_y
  _atom_site_fract_z
  _atom_site_occupancy
  Ce  Ce1       1.0  0.85200  0.10200  0.09890  1.0000
  Ce  Ce2       1.0  0.14800  0.60200  0.09890  1.0000
  Ce  Ce3       1.0  0.37000  0.24600  0.25000  1.0000
  Ce  Ce4       1.0  0.63000  0.74600  0.25000  1.0000
  Ce  Ce5       1.0  0.85200  0.10200  0.40100  1.0000
  Ce  Ce6       1.0  0.14800  0.60200  0.40100  1.0000
  Ce  Ce7       1.0  0.85200  0.39800  0.59900  1.0000
  Ce  Ce8       1.0  0.14800  0.89800  0.59900  1.0000
  Ce  Ce9       1.0  0.37000  0.25400  0.75000  1.0000
  Ce  Ce10      1.0  0.63000  0.75400  0.75000  1.0000
  Ce  Ce11      1.0  0.85200  0.39800  0.90100  1.0000
  Ce  Ce12      1.0  0.14800  0.89800  0.90100  1.0000
  Ge  Ge1       1.0  0.38700  0.25000  0.00000  1.0000
  Ge  Ge2       1.0  0.61300  0.75000  0.00000  1.0000
  Ge  Ge3       1.0  0.85700  0.39700  0.25000  1.0000
  Ge  Ge4       1.0  0.14300  0.89700  0.25000  1.0000
  Ge  Ge5       1.0  0.38700  0.25000  0.50000  1.0000
  Ge  Ge6       1.0  0.61300  0.75000  0.50000  1.0000
  Ge  Ge7       1.0  0.85700  0.10300  0.75000  1.0000
  Ge  Ge8       1.0  0.14300  0.60300  0.75000  1.0000
  Ru  Ru1       1.0  0.64300  0.47100  0.08980  1.0000
  Ru  Ru2       1.0  0.35700  0.97100  0.08980  1.0000
  Ru  Ru3       1.0  0.64300  0.47100  0.41000  1.0000
  Ru  Ru4       1.0  0.35700  0.97100  0.41000  1.0000
  Ru  Ru5       1.0  0.64300  0.02920  0.59000  1.0000
  Ru  Ru6       1.0  0.35700  0.52900  0.59000  1.0000
  Ru  Ru7       1.0  0.64300  0.02920  0.91000  1.0000
  Ru  Ru8       1.0  0.35700  0.52900  0.91000  1.0000
