data_image0
_chemical_formula_structural       N4Nd12S12
_chemical_formula_sum              "N4 Nd12 S12"
_cell_length_a       12.2249
_cell_length_b       4.03441
_cell_length_c       13.1127
_cell_angle_alpha    90
_cell_angle_beta     90
_cell_angle_gamma    90

_space_group_name_H-M_alt    "P 1"
_space_group_IT_number       1

loop_
  _space_group_symop_operation_xyz
  'x, y, z'

loop_
  _atom_site_type_symbol
  _atom_site_label
  _atom_site_symmetry_multiplicity
  _atom_site_fract_x
  _atom_site_fract_y
  _atom_site_fract_z
  _atom_site_occupancy
  N   N1        1.0  0.95300  0.75000  0.20200  1.0000
  N   N2        1.0  0.45300  0.75000  0.29800  1.0000
  N   N3        1.0  0.54700  0.25000  0.70200  1.0000
  N   N4        1.0  0.04700  0.25000  0.79800  1.0000
  Nd  Nd1       1.0  0.41600  0.75000  0.12800  1.0000
  Nd  Nd2       1.0  0.77700  0.75000  0.13300  1.0000
  Nd  Nd3       1.0  0.04000  0.25000  0.14900  1.0000
  Nd  Nd4       1.0  0.54000  0.25000  0.35100  1.0000
  Nd  Nd5       1.0  0.27700  0.75000  0.36700  1.0000
  Nd  Nd6       1.0  0.91600  0.75000  0.37200  1.0000
  Nd  Nd7       1.0  0.08380  0.25000  0.62800  1.0000
  Nd  Nd8       1.0  0.72300  0.25000  0.63300  1.0000
  Nd  Nd9       1.0  0.46000  0.75000  0.64900  1.0000
  Nd  Nd10      1.0  0.96000  0.75000  0.85100  1.0000
  Nd  Nd11      1.0  0.22300  0.25000  0.86700  1.0000
  Nd  Nd12      1.0  0.58400  0.25000  0.87200  1.0000
  S   S1        1.0  0.86000  0.25000  0.00336  1.0000
  S   S2        1.0  0.58100  0.25000  0.10700  1.0000
  S   S3        1.0  0.26900  0.25000  0.19800  1.0000
  S   S4        1.0  0.76900  0.25000  0.30200  1.0000
  S   S5        1.0  0.08080  0.25000  0.39300  1.0000
  S   S6        1.0  0.36000  0.25000  0.49700  1.0000
  S   S7        1.0  0.64000  0.75000  0.50300  1.0000
  S   S8        1.0  0.91900  0.75000  0.60700  1.0000
  S   S9        1.0  0.23100  0.75000  0.69800  1.0000
  S   S10       1.0  0.73100  0.75000  0.80200  1.0000
  S   S11       1.0  0.41900  0.75000  0.89300  1.0000
  S   S12       1.0  0.14000  0.75000  0.99700  1.0000
