data_image0
_chemical_formula_structural       Pb8S16Si4
_chemical_formula_sum              "Pb8 S16 Si4"
_cell_length_a       6.64868
_cell_length_b       6.82659
_cell_length_c       16.8241
_cell_angle_alpha    90
_cell_angle_beta     108.134
_cell_angle_gamma    90

_space_group_name_H-M_alt    "P 1"
_space_group_IT_number       1

loop_
  _space_group_symop_operation_xyz
  'x, y, z'

loop_
  _atom_site_type_symbol
  _atom_site_label
  _atom_site_symmetry_multiplicity
  _atom_site_fract_x
  _atom_site_fract_y
  _atom_site_fract_z
  _atom_site_occupancy
  Pb  Pb1       1.0  0.24300  0.29100  0.02180  1.0000
  Pb  Pb2       1.0  0.73700  0.82500  0.21100  1.0000
  Pb  Pb3       1.0  0.26300  0.32500  0.28900  1.0000
  Pb  Pb4       1.0  0.75700  0.79100  0.47800  1.0000
  Pb  Pb5       1.0  0.24300  0.20900  0.52200  1.0000
  Pb  Pb6       1.0  0.73700  0.67500  0.71100  1.0000
  Pb  Pb7       1.0  0.26300  0.17500  0.78900  1.0000
  Pb  Pb8       1.0  0.75700  0.70900  0.97800  1.0000
  S   S1        1.0  0.38000  0.72300  0.02850  1.0000
  S   S2        1.0  0.98700  0.99200  0.12400  1.0000
  S   S3        1.0  0.99200  0.49200  0.13900  1.0000
  S   S4        1.0  0.57900  0.21600  0.17600  1.0000
  S   S5        1.0  0.42100  0.71600  0.32400  1.0000
  S   S6        1.0  0.00783  0.99200  0.36100  1.0000
  S   S7        1.0  0.01340  0.49200  0.37600  1.0000
  S   S8        1.0  0.62000  0.22300  0.47100  1.0000
  S   S9        1.0  0.38000  0.77700  0.52900  1.0000
  S   S10       1.0  0.98700  0.50800  0.62400  1.0000
  S   S11       1.0  0.99200  0.00819  0.63900  1.0000
  S   S12       1.0  0.57900  0.28400  0.67600  1.0000
  S   S13       1.0  0.42100  0.78400  0.82400  1.0000
  S   S14       1.0  0.00783  0.50800  0.86100  1.0000
  S   S15       1.0  0.01340  0.00801  0.87600  1.0000
  S   S16       1.0  0.62000  0.27700  0.97100  1.0000
  Si  Si1       1.0  0.78800  0.24300  0.10200  1.0000
  Si  Si2       1.0  0.21200  0.74300  0.39800  1.0000
  Si  Si3       1.0  0.78800  0.25700  0.60200  1.0000
  Si  Si4       1.0  0.21200  0.75700  0.89800  1.0000
