data_image0
_chemical_formula_structural       Ba4S16Tb8
_chemical_formula_sum              "Ba4 S16 Tb8"
_cell_length_a       12.316
_cell_length_b       4.06922
_cell_length_c       14.6081
_cell_angle_alpha    90
_cell_angle_beta     90
_cell_angle_gamma    90

_space_group_name_H-M_alt    "P 1"
_space_group_IT_number       1

loop_
  _space_group_symop_operation_xyz
  'x, y, z'

loop_
  _atom_site_type_symbol
  _atom_site_label
  _atom_site_symmetry_multiplicity
  _atom_site_fract_x
  _atom_site_fract_y
  _atom_site_fract_z
  _atom_site_occupancy
  Ba  Ba1       1.0  0.74200  0.75000  0.16100  1.0000
  Ba  Ba2       1.0  0.24200  0.75000  0.33900  1.0000
  Ba  Ba3       1.0  0.75800  0.25000  0.66100  1.0000
  Ba  Ba4       1.0  0.25800  0.25000  0.83900  1.0000
  S   S1        1.0  0.62500  0.25000  0.02350  1.0000
  S   S2        1.0  0.91900  0.25000  0.07720  1.0000
  S   S3        1.0  0.20700  0.25000  0.16500  1.0000
  S   S4        1.0  0.47700  0.75000  0.21700  1.0000
  S   S5        1.0  0.97700  0.75000  0.28300  1.0000
  S   S6        1.0  0.70700  0.25000  0.33500  1.0000
  S   S7        1.0  0.41900  0.25000  0.42300  1.0000
  S   S8        1.0  0.12500  0.25000  0.47600  1.0000
  S   S9        1.0  0.87500  0.75000  0.52400  1.0000
  S   S10       1.0  0.58100  0.75000  0.57700  1.0000
  S   S11       1.0  0.29300  0.75000  0.66500  1.0000
  S   S12       1.0  0.02270  0.25000  0.71700  1.0000
  S   S13       1.0  0.52300  0.25000  0.78300  1.0000
  S   S14       1.0  0.79300  0.75000  0.83500  1.0000
  S   S15       1.0  0.08120  0.75000  0.92300  1.0000
  S   S16       1.0  0.37500  0.75000  0.97600  1.0000
  Tb  Tb1       1.0  0.42100  0.25000  0.10200  1.0000
  Tb  Tb2       1.0  0.06790  0.75000  0.10900  1.0000
  Tb  Tb3       1.0  0.56800  0.75000  0.39100  1.0000
  Tb  Tb4       1.0  0.92100  0.25000  0.39800  1.0000
  Tb  Tb5       1.0  0.07890  0.75000  0.60200  1.0000
  Tb  Tb6       1.0  0.43200  0.25000  0.60900  1.0000
  Tb  Tb7       1.0  0.93200  0.25000  0.89100  1.0000
  Tb  Tb8       1.0  0.57900  0.75000  0.89800  1.0000
