data_image0
_chemical_formula_structural       Co2Gd8S14
_chemical_formula_sum              "Co2 Gd8 S14"
_cell_length_a       9.57987
_cell_length_b       9.58353
_cell_length_c       6.62702
_cell_angle_alpha    90
_cell_angle_beta     90
_cell_angle_gamma    119.971

_space_group_name_H-M_alt    "P 1"
_space_group_IT_number       1

loop_
  _space_group_symop_operation_xyz
  'x, y, z'

loop_
  _atom_site_type_symbol
  _atom_site_label
  _atom_site_symmetry_multiplicity
  _atom_site_fract_x
  _atom_site_fract_y
  _atom_site_fract_z
  _atom_site_occupancy
  Co  Co1       1.0  0.00000  0.00010  0.07300  1.0000
  Co  Co2       1.0  0.00000  0.00000  0.57300  1.0000
  Gd  Gd1       1.0  0.66500  0.33400  0.17200  1.0000
  Gd  Gd2       1.0  0.62800  0.78400  0.22000  1.0000
  Gd  Gd3       1.0  0.15500  0.37200  0.22000  1.0000
  Gd  Gd4       1.0  0.21600  0.84500  0.22100  1.0000
  Gd  Gd5       1.0  0.33500  0.66600  0.67200  1.0000
  Gd  Gd6       1.0  0.37200  0.21600  0.72000  1.0000
  Gd  Gd7       1.0  0.84500  0.62800  0.72000  1.0000
  Gd  Gd8       1.0  0.78400  0.15500  0.72100  1.0000
  S   S1        1.0  0.33300  0.66700  0.06140  1.0000
  S   S2        1.0  0.21900  0.12300  0.33000  1.0000
  S   S3        1.0  0.90400  0.78100  0.33000  1.0000
  S   S4        1.0  0.87700  0.09530  0.33000  1.0000
  S   S5        1.0  0.44000  0.50800  0.46300  1.0000
  S   S6        1.0  0.49200  0.93000  0.46500  1.0000
  S   S7        1.0  0.07040  0.56100  0.46600  1.0000
  S   S8        1.0  0.66700  0.33300  0.56100  1.0000
  S   S9        1.0  0.78100  0.87700  0.83000  1.0000
  S   S10       1.0  0.09600  0.21900  0.83000  1.0000
  S   S11       1.0  0.12300  0.90500  0.83000  1.0000
  S   S12       1.0  0.56000  0.49200  0.96300  1.0000
  S   S13       1.0  0.50800  0.06960  0.96500  1.0000
  S   S14       1.0  0.93000  0.43900  0.96600  1.0000
