data_image0
_chemical_formula_structural       C12Cl6Gd10
_chemical_formula_sum              "C12 Cl6 Gd10"
_cell_length_a       3.72481
_cell_length_b       11.0167
_cell_length_c       13.208
_cell_angle_alpha    99.2265
_cell_angle_beta     98.1061
_cell_angle_gamma    99.7328

_space_group_name_H-M_alt    "P 1"
_space_group_IT_number       1

loop_
  _space_group_symop_operation_xyz
  'x, y, z'

loop_
  _atom_site_type_symbol
  _atom_site_label
  _atom_site_symmetry_multiplicity
  _atom_site_fract_x
  _atom_site_fract_y
  _atom_site_fract_z
  _atom_site_occupancy
  C   C1        1.0  0.99000  0.95300  0.02740  1.0000
  C   C2        1.0  0.60300  0.97800  0.22700  1.0000
  C   C3        1.0  0.58000  0.88300  0.27700  1.0000
  C   C4        1.0  0.83600  0.21200  0.46000  1.0000
  C   C5        1.0  0.50700  0.54400  0.47000  1.0000
  C   C6        1.0  0.18000  0.87700  0.48300  1.0000
  C   C7        1.0  0.82000  0.12300  0.51700  1.0000
  C   C8        1.0  0.49300  0.45600  0.53000  1.0000
  C   C9        1.0  0.16400  0.78800  0.54000  1.0000
  C   C10       1.0  0.42000  0.11700  0.72300  1.0000
  C   C11       1.0  0.39700  0.02190  0.77300  1.0000
  C   C12       1.0  0.00994  0.04730  0.97300  1.0000
  Cl  Cl1       1.0  0.34200  0.67300  0.01080  1.0000
  Cl  Cl2       1.0  0.25600  0.28400  0.22900  1.0000
  Cl  Cl3       1.0  0.92000  0.59100  0.24900  1.0000
  Cl  Cl4       1.0  0.08010  0.40900  0.75100  1.0000
  Cl  Cl5       1.0  0.74400  0.71600  0.77100  1.0000
  Cl  Cl6       1.0  0.65800  0.32700  0.98900  1.0000
  Gd  Gd1       1.0  0.61000  0.11700  0.10300  1.0000
  Gd  Gd2       1.0  0.97600  0.81300  0.13900  1.0000
  Gd  Gd3       1.0  0.20700  0.03280  0.38100  1.0000
  Gd  Gd4       1.0  0.89300  0.39900  0.38700  1.0000
  Gd  Gd5       1.0  0.55900  0.72600  0.39200  1.0000
  Gd  Gd6       1.0  0.44100  0.27400  0.60800  1.0000
  Gd  Gd7       1.0  0.10700  0.60100  0.61300  1.0000
  Gd  Gd8       1.0  0.79300  0.96700  0.61900  1.0000
  Gd  Gd9       1.0  0.02400  0.18700  0.86100  1.0000
  Gd  Gd10      1.0  0.39000  0.88300  0.89700  1.0000
