data_image0
_chemical_formula_structural       Cl8Cu8Te8
_chemical_formula_sum              "Cl8 Cu8 Te8"
_cell_length_a       4.514
_cell_length_b       12.7448
_cell_length_c       12.7448
_cell_angle_alpha    91.7972
_cell_angle_beta     100.2
_cell_angle_gamma    79.7996

_space_group_name_H-M_alt    "P 1"
_space_group_IT_number       1

loop_
  _space_group_symop_operation_xyz
  'x, y, z'

loop_
  _atom_site_type_symbol
  _atom_site_label
  _atom_site_symmetry_multiplicity
  _atom_site_fract_x
  _atom_site_fract_y
  _atom_site_fract_z
  _atom_site_occupancy
  Cl  Cl1       1.0  0.85800  0.62600  0.12600  1.0000
  Cl  Cl2       1.0  0.26800  0.87400  0.12600  1.0000
  Cl  Cl3       1.0  0.85800  0.87400  0.37400  1.0000
  Cl  Cl4       1.0  0.51500  0.62600  0.37400  1.0000
  Cl  Cl5       1.0  0.14200  0.12600  0.62600  1.0000
  Cl  Cl6       1.0  0.48500  0.37400  0.62600  1.0000
  Cl  Cl7       1.0  0.73200  0.12600  0.87400  1.0000
  Cl  Cl8       1.0  0.14200  0.37400  0.87400  1.0000
  Cu  Cu1       1.0  0.02110  0.75000  0.04220  1.0000
  Cu  Cu2       1.0  0.22900  0.54200  0.25000  1.0000
  Cu  Cu3       1.0  0.02110  0.95800  0.25000  1.0000
  Cu  Cu4       1.0  0.22900  0.75000  0.45800  1.0000
  Cu  Cu5       1.0  0.77100  0.25000  0.54200  1.0000
  Cu  Cu6       1.0  0.77100  0.45800  0.75000  1.0000
  Cu  Cu7       1.0  0.97900  0.04220  0.75000  1.0000
  Cu  Cu8       1.0  0.97900  0.25000  0.95800  1.0000
  Te  Te1       1.0  0.00000  0.14700  0.14700  1.0000
  Te  Te2       1.0  0.14700  0.35300  0.14700  1.0000
  Te  Te3       1.0  0.85300  0.14700  0.35300  1.0000
  Te  Te4       1.0  0.50000  0.35300  0.35300  1.0000
  Te  Te5       1.0  0.50000  0.64700  0.64700  1.0000
  Te  Te6       1.0  0.14700  0.85300  0.64700  1.0000
  Te  Te7       1.0  0.00000  0.85300  0.85300  1.0000
  Te  Te8       1.0  0.85300  0.64700  0.85300  1.0000
