data_image0
_chemical_formula_structural       Er8S16Yb4
_chemical_formula_sum              "Er8 S16 Yb4"
_cell_length_a       12.8624
_cell_length_b       3.85307
_cell_length_c       13.0158
_cell_angle_alpha    90
_cell_angle_beta     90
_cell_angle_gamma    90

_space_group_name_H-M_alt    "P 1"
_space_group_IT_number       1

loop_
  _space_group_symop_operation_xyz
  'x, y, z'

loop_
  _atom_site_type_symbol
  _atom_site_label
  _atom_site_symmetry_multiplicity
  _atom_site_fract_x
  _atom_site_fract_y
  _atom_site_fract_z
  _atom_site_occupancy
  Er  Er1       1.0  0.39200  0.75000  0.08340  1.0000
  Er  Er2       1.0  0.14700  0.25000  0.20200  1.0000
  Er  Er3       1.0  0.64700  0.25000  0.29800  1.0000
  Er  Er4       1.0  0.89200  0.75000  0.41700  1.0000
  Er  Er5       1.0  0.10800  0.25000  0.58300  1.0000
  Er  Er6       1.0  0.35300  0.75000  0.70200  1.0000
  Er  Er7       1.0  0.85300  0.75000  0.79800  1.0000
  Er  Er8       1.0  0.60800  0.25000  0.91700  1.0000
  S   S1        1.0  0.25700  0.25000  0.02490  1.0000
  S   S2        1.0  0.02950  0.75000  0.11700  1.0000
  S   S3        1.0  0.53400  0.25000  0.11800  1.0000
  S   S4        1.0  0.78300  0.75000  0.23600  1.0000
  S   S5        1.0  0.28300  0.75000  0.26400  1.0000
  S   S6        1.0  0.03400  0.25000  0.38200  1.0000
  S   S7        1.0  0.52900  0.75000  0.38300  1.0000
  S   S8        1.0  0.75700  0.25000  0.47500  1.0000
  S   S9        1.0  0.24300  0.75000  0.52500  1.0000
  S   S10       1.0  0.47100  0.25000  0.61700  1.0000
  S   S11       1.0  0.96600  0.75000  0.61800  1.0000
  S   S12       1.0  0.71700  0.25000  0.73600  1.0000
  S   S13       1.0  0.21700  0.25000  0.76400  1.0000
  S   S14       1.0  0.46600  0.75000  0.88200  1.0000
  S   S15       1.0  0.97100  0.25000  0.88300  1.0000
  S   S16       1.0  0.74300  0.75000  0.97500  1.0000
  Yb  Yb1       1.0  0.86900  0.25000  0.08300  1.0000
  Yb  Yb2       1.0  0.36900  0.25000  0.41700  1.0000
  Yb  Yb3       1.0  0.63100  0.75000  0.58300  1.0000
  Yb  Yb4       1.0  0.13100  0.75000  0.91700  1.0000
