data_image0
_chemical_formula_structural       Er8Se16Sr4
_chemical_formula_sum              "Er8 Se16 Sr4"
_cell_length_a       12.557
_cell_length_b       4.12575
_cell_length_c       14.9026
_cell_angle_alpha    90
_cell_angle_beta     90
_cell_angle_gamma    90

_space_group_name_H-M_alt    "P 1"
_space_group_IT_number       1

loop_
  _space_group_symop_operation_xyz
  'x, y, z'

loop_
  _atom_site_type_symbol
  _atom_site_label
  _atom_site_symmetry_multiplicity
  _atom_site_fract_x
  _atom_site_fract_y
  _atom_site_fract_z
  _atom_site_occupancy
  Er  Er1       1.0  0.41800  0.25000  0.09820  1.0000
  Er  Er2       1.0  0.06310  0.75000  0.11100  1.0000
  Er  Er3       1.0  0.56300  0.75000  0.38900  1.0000
  Er  Er4       1.0  0.91800  0.25000  0.40200  1.0000
  Er  Er5       1.0  0.08210  0.75000  0.59800  1.0000
  Er  Er6       1.0  0.43700  0.25000  0.61100  1.0000
  Er  Er7       1.0  0.93700  0.25000  0.88900  1.0000
  Er  Er8       1.0  0.58200  0.75000  0.90200  1.0000
  Se  Se1       1.0  0.62900  0.25000  0.02930  1.0000
  Se  Se2       1.0  0.91100  0.25000  0.07730  1.0000
  Se  Se3       1.0  0.20600  0.25000  0.17100  1.0000
  Se  Se4       1.0  0.47400  0.75000  0.21600  1.0000
  Se  Se5       1.0  0.97400  0.75000  0.28400  1.0000
  Se  Se6       1.0  0.70600  0.25000  0.32900  1.0000
  Se  Se7       1.0  0.41100  0.25000  0.42300  1.0000
  Se  Se8       1.0  0.12900  0.25000  0.47100  1.0000
  Se  Se9       1.0  0.87100  0.75000  0.52900  1.0000
  Se  Se10      1.0  0.58900  0.75000  0.57700  1.0000
  Se  Se11      1.0  0.29400  0.75000  0.67100  1.0000
  Se  Se12      1.0  0.02630  0.25000  0.71600  1.0000
  Se  Se13      1.0  0.52600  0.25000  0.78400  1.0000
  Se  Se14      1.0  0.79400  0.75000  0.82900  1.0000
  Se  Se15      1.0  0.08910  0.75000  0.92300  1.0000
  Se  Se16      1.0  0.37100  0.75000  0.97100  1.0000
  Sr  Sr1       1.0  0.74000  0.75000  0.16500  1.0000
  Sr  Sr2       1.0  0.24000  0.75000  0.33500  1.0000
  Sr  Sr3       1.0  0.76000  0.25000  0.66500  1.0000
  Sr  Sr4       1.0  0.26000  0.25000  0.83500  1.0000
