data_image0
_chemical_formula_structural       Hg8I8Pb4S8
_chemical_formula_sum              "Hg8 I8 Pb4 S8"
_cell_length_a       13.8367
_cell_length_b       13.8367
_cell_length_c       4.66644
_cell_angle_alpha    90
_cell_angle_beta     90
_cell_angle_gamma    90

_space_group_name_H-M_alt    "P 1"
_space_group_IT_number       1

loop_
  _space_group_symop_operation_xyz
  'x, y, z'

loop_
  _atom_site_type_symbol
  _atom_site_label
  _atom_site_symmetry_multiplicity
  _atom_site_fract_x
  _atom_site_fract_y
  _atom_site_fract_z
  _atom_site_occupancy
  Hg  Hg1       1.0  0.16700  0.08740  0.00000  1.0000
  Hg  Hg2       1.0  0.91300  0.16700  0.00000  1.0000
  Hg  Hg3       1.0  0.41300  0.33300  0.00000  1.0000
  Hg  Hg4       1.0  0.66700  0.41300  0.00000  1.0000
  Hg  Hg5       1.0  0.33300  0.58700  0.00000  1.0000
  Hg  Hg6       1.0  0.58700  0.66700  0.00000  1.0000
  Hg  Hg7       1.0  0.08740  0.83300  0.00000  1.0000
  Hg  Hg8       1.0  0.83300  0.91300  0.00000  1.0000
  I   I1        1.0  0.50000  0.00000  0.00000  1.0000
  I   I2        1.0  0.00000  0.50000  0.00000  1.0000
  I   I3        1.0  0.00000  0.00000  0.50000  1.0000
  I   I4        1.0  0.30400  0.19600  0.50000  1.0000
  I   I5        1.0  0.80400  0.30400  0.50000  1.0000
  I   I6        1.0  0.50000  0.50000  0.50000  1.0000
  I   I7        1.0  0.19600  0.69600  0.50000  1.0000
  I   I8        1.0  0.69600  0.80400  0.50000  1.0000
  Pb  Pb1       1.0  0.63600  0.13600  0.50000  1.0000
  Pb  Pb2       1.0  0.13600  0.36400  0.50000  1.0000
  Pb  Pb3       1.0  0.86400  0.63600  0.50000  1.0000
  Pb  Pb4       1.0  0.36400  0.86400  0.50000  1.0000
  S   S1        1.0  0.76300  0.07330  0.00000  1.0000
  S   S2        1.0  0.07330  0.23700  0.00000  1.0000
  S   S3        1.0  0.57300  0.26300  0.00000  1.0000
  S   S4        1.0  0.26300  0.42700  0.00000  1.0000
  S   S5        1.0  0.73700  0.57300  0.00000  1.0000
  S   S6        1.0  0.42700  0.73700  0.00000  1.0000
  S   S7        1.0  0.92700  0.76300  0.00000  1.0000
  S   S8        1.0  0.23700  0.92700  0.00000  1.0000
