data_image0
_chemical_formula_structural       Cr12N4Ta12
_chemical_formula_sum              "Cr12 N4 Ta12"
_cell_length_a       8.08288
_cell_length_b       8.08288
_cell_length_c       8.08288
_cell_angle_alpha    120
_cell_angle_beta     90
_cell_angle_gamma    120

_space_group_name_H-M_alt    "P 1"
_space_group_IT_number       1

loop_
  _space_group_symop_operation_xyz
  'x, y, z'

loop_
  _atom_site_type_symbol
  _atom_site_label
  _atom_site_symmetry_multiplicity
  _atom_site_fract_x
  _atom_site_fract_y
  _atom_site_fract_z
  _atom_site_occupancy
  Cr  Cr1       1.0  0.00000  0.00000  0.00000  1.0000
  Cr  Cr2       1.0  0.50000  0.00000  0.00000  1.0000
  Cr  Cr3       1.0  0.50000  0.50000  0.00000  1.0000
  Cr  Cr4       1.0  0.70300  0.90700  0.11000  1.0000
  Cr  Cr5       1.0  0.29700  0.09340  0.20300  1.0000
  Cr  Cr6       1.0  0.29700  0.40700  0.20300  1.0000
  Cr  Cr7       1.0  0.61000  0.40700  0.20300  1.0000
  Cr  Cr8       1.0  0.50000  0.50000  0.50000  1.0000
  Cr  Cr9       1.0  0.39000  0.59300  0.79700  1.0000
  Cr  Cr10      1.0  0.70300  0.59300  0.79700  1.0000
  Cr  Cr11      1.0  0.70300  0.90700  0.79700  1.0000
  Cr  Cr12      1.0  0.29700  0.09340  0.89000  1.0000
  N   N1        1.0  0.00000  0.50000  0.00000  1.0000
  N   N2        1.0  0.00000  0.00000  0.50000  1.0000
  N   N3        1.0  0.50000  0.00000  0.50000  1.0000
  N   N4        1.0  0.00000  0.50000  0.50000  1.0000
  Ta  Ta1       1.0  0.31800  0.75000  0.18200  1.0000
  Ta  Ta2       1.0  0.93200  0.36300  0.18200  1.0000
  Ta  Ta3       1.0  0.93200  0.75000  0.18200  1.0000
  Ta  Ta4       1.0  0.68200  0.25000  0.43200  1.0000
  Ta  Ta5       1.0  0.68200  0.86300  0.43200  1.0000
  Ta  Ta6       1.0  0.06840  0.25000  0.43200  1.0000
  Ta  Ta7       1.0  0.31800  0.13700  0.56800  1.0000
  Ta  Ta8       1.0  0.31800  0.75000  0.56800  1.0000
  Ta  Ta9       1.0  0.93200  0.75000  0.56800  1.0000
  Ta  Ta10      1.0  0.06840  0.25000  0.81800  1.0000
  Ta  Ta11      1.0  0.68200  0.25000  0.81800  1.0000
  Ta  Ta12      1.0  0.06840  0.63700  0.81800  1.0000
