data_image0
_chemical_formula_structural       Cu4Nb2O16Sm2Sr4
_chemical_formula_sum              "Cu4 Nb2 O16 Sm2 Sr4"
_cell_length_a       5.47078
_cell_length_b       5.47078
_cell_length_c       12.2707
_cell_angle_alpha    102.881
_cell_angle_beta     102.881
_cell_angle_gamma    90

_space_group_name_H-M_alt    "P 1"
_space_group_IT_number       1

loop_
  _space_group_symop_operation_xyz
  'x, y, z'

loop_
  _atom_site_type_symbol
  _atom_site_label
  _atom_site_symmetry_multiplicity
  _atom_site_fract_x
  _atom_site_fract_y
  _atom_site_fract_z
  _atom_site_occupancy
  Cu  Cu1       1.0  0.18000  0.18000  0.35900  1.0000
  Cu  Cu2       1.0  0.68000  0.68000  0.35900  1.0000
  Cu  Cu3       1.0  0.32000  0.32000  0.64100  1.0000
  Cu  Cu4       1.0  0.82000  0.82000  0.64100  1.0000
  Nb  Nb1       1.0  0.00000  0.00000  0.00000  1.0000
  Nb  Nb2       1.0  0.50000  0.50000  0.00000  1.0000
  O   O1        1.0  0.67700  0.17700  0.00000  1.0000
  O   O2        1.0  0.17700  0.32300  0.00000  1.0000
  O   O3        1.0  0.82300  0.67700  0.00000  1.0000
  O   O4        1.0  0.32300  0.82300  0.00000  1.0000
  O   O5        1.0  0.08470  0.08470  0.16900  1.0000
  O   O6        1.0  0.58500  0.58500  0.16900  1.0000
  O   O7        1.0  0.44200  0.42900  0.37100  1.0000
  O   O8        1.0  0.94200  0.44200  0.37100  1.0000
  O   O9        1.0  0.42900  0.92900  0.37100  1.0000
  O   O10       1.0  0.92900  0.94200  0.37100  1.0000
  O   O11       1.0  0.07060  0.05810  0.62900  1.0000
  O   O12       1.0  0.57100  0.07060  0.62900  1.0000
  O   O13       1.0  0.05810  0.55800  0.62900  1.0000
  O   O14       1.0  0.55800  0.57100  0.62900  1.0000
  O   O15       1.0  0.41500  0.41500  0.83100  1.0000
  O   O16       1.0  0.91500  0.91500  0.83100  1.0000
  Sm  Sm1       1.0  0.75000  0.25000  0.50000  1.0000
  Sm  Sm2       1.0  0.25000  0.75000  0.50000  1.0000
  Sr  Sr1       1.0  0.60000  0.10000  0.20000  1.0000
  Sr  Sr2       1.0  0.10000  0.60000  0.20000  1.0000
  Sr  Sr3       1.0  0.90000  0.40000  0.80000  1.0000
  Sr  Sr4       1.0  0.40000  0.90000  0.80000  1.0000
