data_image0
_chemical_formula_structural       Ag4Ba2Cu2O16V4
_chemical_formula_sum              "Ag4 Ba2 Cu2 O16 V4"
_cell_length_a       5.42604
_cell_length_b       5.584
_cell_length_c       14.2515
_cell_angle_alpha    94.2005
_cell_angle_beta     90.3751
_cell_angle_gamma    118.179

_space_group_name_H-M_alt    "P 1"
_space_group_IT_number       1

loop_
  _space_group_symop_operation_xyz
  'x, y, z'

loop_
  _atom_site_type_symbol
  _atom_site_label
  _atom_site_symmetry_multiplicity
  _atom_site_fract_x
  _atom_site_fract_y
  _atom_site_fract_z
  _atom_site_occupancy
  Ag  Ag1       1.0  0.83100  0.66900  0.08810  1.0000
  Ag  Ag2       1.0  0.19000  0.37600  0.41200  1.0000
  Ag  Ag3       1.0  0.81000  0.62400  0.58800  1.0000
  Ag  Ag4       1.0  0.16900  0.33100  0.91200  1.0000
  Ba  Ba1       1.0  0.53300  0.04410  0.25000  1.0000
  Ba  Ba2       1.0  0.46700  0.95600  0.75000  1.0000
  Cu  Cu1       1.0  0.50000  0.00000  0.00000  1.0000
  Cu  Cu2       1.0  0.50000  0.00000  0.50000  1.0000
  O   O1        1.0  0.82400  0.07820  0.08090  1.0000
  O   O2        1.0  0.42400  0.24000  0.08720  1.0000
  O   O3        1.0  0.24400  0.64900  0.10200  1.0000
  O   O4        1.0  0.14600  0.29700  0.24500  1.0000
  O   O5        1.0  0.79700  0.66100  0.25600  1.0000
  O   O6        1.0  0.21500  0.81600  0.39900  1.0000
  O   O7        1.0  0.76800  0.96800  0.41500  1.0000
  O   O8        1.0  0.64100  0.40700  0.42100  1.0000
  O   O9        1.0  0.35900  0.59300  0.57900  1.0000
  O   O10       1.0  0.23200  0.03190  0.58500  1.0000
  O   O11       1.0  0.78500  0.18400  0.60100  1.0000
  O   O12       1.0  0.20300  0.33900  0.74400  1.0000
  O   O13       1.0  0.85400  0.70300  0.75500  1.0000
  O   O14       1.0  0.75600  0.35100  0.89800  1.0000
  O   O15       1.0  0.57600  0.76000  0.91300  1.0000
  O   O16       1.0  0.17600  0.92200  0.91900  1.0000
  V   V1        1.0  0.16100  0.32100  0.12700  1.0000
  V   V2        1.0  0.85700  0.71400  0.37500  1.0000
  V   V3        1.0  0.14300  0.28600  0.62500  1.0000
  V   V4        1.0  0.83900  0.67900  0.87300  1.0000
