data_image0
_chemical_formula_structural       Co6Er4Ga18
_chemical_formula_sum              "Co6 Er4 Ga18"
_cell_length_a       7.36046
_cell_length_b       7.33087
_cell_length_c       9.38192
_cell_angle_alpha    90
_cell_angle_beta     90
_cell_angle_gamma    59.8664

_space_group_name_H-M_alt    "P 1"
_space_group_IT_number       1

loop_
  _space_group_symop_operation_xyz
  'x, y, z'

loop_
  _atom_site_type_symbol
  _atom_site_label
  _atom_site_symmetry_multiplicity
  _atom_site_fract_x
  _atom_site_fract_y
  _atom_site_fract_z
  _atom_site_occupancy
  Co  Co1       1.0  0.00000  0.00000  0.00000  1.0000
  Co  Co2       1.0  0.32900  0.34200  0.00000  1.0000
  Co  Co3       1.0  0.67100  0.65800  0.00000  1.0000
  Co  Co4       1.0  0.00000  0.00000  0.50000  1.0000
  Co  Co5       1.0  0.32900  0.34200  0.50000  1.0000
  Co  Co6       1.0  0.67100  0.65800  0.50000  1.0000
  Er  Er1       1.0  0.00355  0.32800  0.25000  1.0000
  Er  Er2       1.0  0.33200  0.67200  0.25000  1.0000
  Er  Er3       1.0  0.66800  0.32800  0.75000  1.0000
  Er  Er4       1.0  0.99600  0.67200  0.75000  1.0000
  Ga  Ga1       1.0  0.33300  0.00000  0.05880  1.0000
  Ga  Ga2       1.0  0.66600  0.33400  0.07230  1.0000
  Ga  Ga3       1.0  0.00037  0.66600  0.07230  1.0000
  Ga  Ga4       1.0  0.88000  0.00000  0.25000  1.0000
  Ga  Ga5       1.0  0.44900  0.21500  0.25000  1.0000
  Ga  Ga6       1.0  0.66400  0.78500  0.25000  1.0000
  Ga  Ga7       1.0  0.66600  0.33400  0.42800  1.0000
  Ga  Ga8       1.0  0.00037  0.66600  0.42800  1.0000
  Ga  Ga9       1.0  0.33300  0.00000  0.44100  1.0000
  Ga  Ga10      1.0  0.66700  0.00000  0.55900  1.0000
  Ga  Ga11      1.0  0.00000  0.33400  0.57200  1.0000
  Ga  Ga12      1.0  0.33400  0.66600  0.57200  1.0000
  Ga  Ga13      1.0  0.12000  0.00000  0.75000  1.0000
  Ga  Ga14      1.0  0.33600  0.21500  0.75000  1.0000
  Ga  Ga15      1.0  0.55100  0.78500  0.75000  1.0000
  Ga  Ga16      1.0  0.00000  0.33400  0.92800  1.0000
  Ga  Ga17      1.0  0.33400  0.66600  0.92800  1.0000
  Ga  Ga18      1.0  0.66700  0.00000  0.94100  1.0000
