data_image0
_chemical_formula_structural       Dy8Eu4Se16
_chemical_formula_sum              "Dy8 Eu4 Se16"
_cell_length_a       12.4108
_cell_length_b       4.11419
_cell_length_c       14.8633
_cell_angle_alpha    90
_cell_angle_beta     90
_cell_angle_gamma    90

_space_group_name_H-M_alt    "P 1"
_space_group_IT_number       1

loop_
  _space_group_symop_operation_xyz
  'x, y, z'

loop_
  _atom_site_type_symbol
  _atom_site_label
  _atom_site_symmetry_multiplicity
  _atom_site_fract_x
  _atom_site_fract_y
  _atom_site_fract_z
  _atom_site_occupancy
  Dy  Dy1       1.0  0.41800  0.25000  0.09810  1.0000
  Dy  Dy2       1.0  0.06780  0.75000  0.11000  1.0000
  Dy  Dy3       1.0  0.56800  0.75000  0.39000  1.0000
  Dy  Dy4       1.0  0.91800  0.25000  0.40200  1.0000
  Dy  Dy5       1.0  0.08180  0.75000  0.59800  1.0000
  Dy  Dy6       1.0  0.43200  0.25000  0.61000  1.0000
  Dy  Dy7       1.0  0.93200  0.25000  0.89000  1.0000
  Dy  Dy8       1.0  0.58200  0.75000  0.90200  1.0000
  Eu  Eu1       1.0  0.74300  0.75000  0.16500  1.0000
  Eu  Eu2       1.0  0.24300  0.75000  0.33500  1.0000
  Eu  Eu3       1.0  0.75700  0.25000  0.66500  1.0000
  Eu  Eu4       1.0  0.25700  0.25000  0.83500  1.0000
  Se  Se1       1.0  0.63500  0.25000  0.03110  1.0000
  Se  Se2       1.0  0.91000  0.25000  0.08060  1.0000
  Se  Se3       1.0  0.20800  0.25000  0.17900  1.0000
  Se  Se4       1.0  0.47600  0.75000  0.21600  1.0000
  Se  Se5       1.0  0.97600  0.75000  0.28400  1.0000
  Se  Se6       1.0  0.70800  0.25000  0.32100  1.0000
  Se  Se7       1.0  0.41000  0.25000  0.41900  1.0000
  Se  Se8       1.0  0.13500  0.25000  0.46900  1.0000
  Se  Se9       1.0  0.86500  0.75000  0.53100  1.0000
  Se  Se10      1.0  0.59000  0.75000  0.58100  1.0000
  Se  Se11      1.0  0.29200  0.75000  0.67900  1.0000
  Se  Se12      1.0  0.02360  0.25000  0.71600  1.0000
  Se  Se13      1.0  0.52400  0.25000  0.78400  1.0000
  Se  Se14      1.0  0.79200  0.75000  0.82100  1.0000
  Se  Se15      1.0  0.08990  0.75000  0.91900  1.0000
  Se  Se16      1.0  0.36500  0.75000  0.96900  1.0000
