data_image0
_chemical_formula_structural       Na8O12Tb4
_chemical_formula_sum              "Na8 O12 Tb4"
_cell_length_a       5.85863
_cell_length_b       5.86589
_cell_length_c       11.0932
_cell_angle_alpha    95.0915
_cell_angle_beta     100.237
_cell_angle_gamma    60.0409

_space_group_name_H-M_alt    "P 1"
_space_group_IT_number       1

loop_
  _space_group_symop_operation_xyz
  'x, y, z'

loop_
  _atom_site_type_symbol
  _atom_site_label
  _atom_site_symmetry_multiplicity
  _atom_site_fract_x
  _atom_site_fract_y
  _atom_site_fract_z
  _atom_site_occupancy
  Na  Na1       1.0  0.68500  0.15700  0.00000  1.0000
  Na  Na2       1.0  0.00000  0.50000  0.00000  1.0000
  Na  Na3       1.0  0.31500  0.84300  0.00000  1.0000
  Na  Na4       1.0  0.08520  0.83000  0.25000  1.0000
  Na  Na5       1.0  0.84300  0.84300  0.50000  1.0000
  Na  Na6       1.0  0.50000  0.50000  0.50000  1.0000
  Na  Na7       1.0  0.15700  0.15700  0.50000  1.0000
  Na  Na8       1.0  0.91500  0.17000  0.75000  1.0000
  O   O1        1.0  0.04600  0.18700  0.13500  1.0000
  O   O2        1.0  0.40300  0.47300  0.13600  1.0000
  O   O3        1.0  0.68900  0.83000  0.13600  1.0000
  O   O4        1.0  0.48100  0.83000  0.36400  1.0000
  O   O5        1.0  0.12400  0.47300  0.36400  1.0000
  O   O6        1.0  0.76700  0.18700  0.36500  1.0000
  O   O7        1.0  0.23300  0.81300  0.63500  1.0000
  O   O8        1.0  0.87600  0.52700  0.63600  1.0000
  O   O9        1.0  0.51900  0.17000  0.63600  1.0000
  O   O10       1.0  0.31100  0.17000  0.86400  1.0000
  O   O11       1.0  0.59700  0.52700  0.86400  1.0000
  O   O12       1.0  0.95400  0.81300  0.86500  1.0000
  Tb  Tb1       1.0  0.41800  0.16400  0.25000  1.0000
  Tb  Tb2       1.0  0.75200  0.49600  0.25000  1.0000
  Tb  Tb3       1.0  0.24800  0.50400  0.75000  1.0000
  Tb  Tb4       1.0  0.58200  0.83600  0.75000  1.0000
