data_image0
_chemical_formula_structural       Co18Gd2Si8
_chemical_formula_sum              "Co18 Gd2 Si8"
_cell_length_a       7.81242
_cell_length_b       7.81242
_cell_length_c       8.04592
_cell_angle_alpha    119.045
_cell_angle_beta     119.045
_cell_angle_gamma    90

_space_group_name_H-M_alt    "P 1"
_space_group_IT_number       1

loop_
  _space_group_symop_operation_xyz
  'x, y, z'

loop_
  _atom_site_type_symbol
  _atom_site_label
  _atom_site_symmetry_multiplicity
  _atom_site_fract_x
  _atom_site_fract_y
  _atom_site_fract_z
  _atom_site_occupancy
  Co  Co1       1.0  0.00000  0.00000  0.00000  1.0000
  Co  Co2       1.0  0.72900  0.02320  0.00000  1.0000
  Co  Co3       1.0  0.52300  0.22900  0.00000  1.0000
  Co  Co4       1.0  0.02320  0.27100  0.00000  1.0000
  Co  Co5       1.0  0.22900  0.47700  0.00000  1.0000
  Co  Co6       1.0  0.50000  0.50000  0.00000  1.0000
  Co  Co7       1.0  0.77100  0.52300  0.00000  1.0000
  Co  Co8       1.0  0.97700  0.72900  0.00000  1.0000
  Co  Co9       1.0  0.47700  0.77100  0.00000  1.0000
  Co  Co10      1.0  0.27100  0.97700  0.00000  1.0000
  Co  Co11      1.0  0.56400  0.06360  0.35800  1.0000
  Co  Co12      1.0  0.79400  0.29400  0.35800  1.0000
  Co  Co13      1.0  0.29400  0.56400  0.35800  1.0000
  Co  Co14      1.0  0.06360  0.79400  0.35800  1.0000
  Co  Co15      1.0  0.93600  0.20600  0.64200  1.0000
  Co  Co16      1.0  0.70600  0.43600  0.64200  1.0000
  Co  Co17      1.0  0.20600  0.70600  0.64200  1.0000
  Co  Co18      1.0  0.43600  0.93600  0.64200  1.0000
  Gd  Gd1       1.0  0.25000  0.25000  0.50000  1.0000
  Gd  Gd2       1.0  0.75000  0.75000  0.50000  1.0000
  Si  Si1       1.0  0.45100  0.32000  0.27100  1.0000
  Si  Si2       1.0  0.95100  0.45100  0.27100  1.0000
  Si  Si3       1.0  0.32000  0.82000  0.27100  1.0000
  Si  Si4       1.0  0.82000  0.95100  0.27100  1.0000
  Si  Si5       1.0  0.18000  0.04890  0.72900  1.0000
  Si  Si6       1.0  0.68000  0.18000  0.72900  1.0000
  Si  Si7       1.0  0.04890  0.54900  0.72900  1.0000
  Si  Si8       1.0  0.54900  0.68000  0.72900  1.0000
