data_image0
_chemical_formula_structural       Ge4In4Li4O16
_chemical_formula_sum              "Ge4 In4 Li4 O16"
_cell_length_a       10.7471
_cell_length_b       6.06708
_cell_length_c       4.99945
_cell_angle_alpha    90
_cell_angle_beta     90
_cell_angle_gamma    90

_space_group_name_H-M_alt    "P 1"
_space_group_IT_number       1

loop_
  _space_group_symop_operation_xyz
  'x, y, z'

loop_
  _atom_site_type_symbol
  _atom_site_label
  _atom_site_symmetry_multiplicity
  _atom_site_fract_x
  _atom_site_fract_y
  _atom_site_fract_z
  _atom_site_occupancy
  Ge  Ge1       1.0  0.58400  0.25000  0.06070  1.0000
  Ge  Ge2       1.0  0.08410  0.25000  0.43900  1.0000
  Ge  Ge3       1.0  0.91600  0.75000  0.56100  1.0000
  Ge  Ge4       1.0  0.41600  0.75000  0.93900  1.0000
  In  In1       1.0  0.72900  0.75000  0.00791  1.0000
  In  In2       1.0  0.22900  0.75000  0.49200  1.0000
  In  In3       1.0  0.77100  0.25000  0.50800  1.0000
  In  In4       1.0  0.27100  0.25000  0.99200  1.0000
  Li  Li1       1.0  0.00000  0.00000  0.00000  1.0000
  Li  Li2       1.0  0.00000  0.50000  0.00000  1.0000
  Li  Li3       1.0  0.50000  0.00000  0.50000  1.0000
  Li  Li4       1.0  0.50000  0.50000  0.50000  1.0000
  O   O1        1.0  0.90900  0.75000  0.21400  1.0000
  O   O2        1.0  0.43800  0.25000  0.22000  1.0000
  O   O3        1.0  0.66400  0.02920  0.23100  1.0000
  O   O4        1.0  0.66400  0.47100  0.23100  1.0000
  O   O5        1.0  0.16400  0.02920  0.26900  1.0000
  O   O6        1.0  0.16400  0.47100  0.26900  1.0000
  O   O7        1.0  0.93800  0.25000  0.28000  1.0000
  O   O8        1.0  0.40900  0.75000  0.28600  1.0000
  O   O9        1.0  0.59100  0.25000  0.71400  1.0000
  O   O10       1.0  0.06180  0.75000  0.72000  1.0000
  O   O11       1.0  0.83600  0.52900  0.73100  1.0000
  O   O12       1.0  0.83600  0.97100  0.73100  1.0000
  O   O13       1.0  0.33600  0.52900  0.76900  1.0000
  O   O14       1.0  0.33600  0.97100  0.76900  1.0000
  O   O15       1.0  0.56200  0.75000  0.78000  1.0000
  O   O16       1.0  0.09140  0.25000  0.78600  1.0000
