data_image0
_chemical_formula_structural       Co6Dy4Ga18
_chemical_formula_sum              "Co6 Dy4 Ga18"
_cell_length_a       7.34823
_cell_length_b       7.34823
_cell_length_c       9.40658
_cell_angle_alpha    90
_cell_angle_beta     90
_cell_angle_gamma    119.79

_space_group_name_H-M_alt    "P 1"
_space_group_IT_number       1

loop_
  _space_group_symop_operation_xyz
  'x, y, z'

loop_
  _atom_site_type_symbol
  _atom_site_label
  _atom_site_symmetry_multiplicity
  _atom_site_fract_x
  _atom_site_fract_y
  _atom_site_fract_z
  _atom_site_occupancy
  Co  Co1       1.0  0.00000  0.00000  0.00000  1.0000
  Co  Co2       1.0  0.67100  0.32900  0.00000  1.0000
  Co  Co3       1.0  0.32900  0.67100  0.00000  1.0000
  Co  Co4       1.0  0.00000  0.00000  0.50000  1.0000
  Co  Co5       1.0  0.67100  0.32900  0.50000  1.0000
  Co  Co6       1.0  0.32900  0.67100  0.50000  1.0000
  Dy  Dy1       1.0  0.33100  0.00339  0.25000  1.0000
  Dy  Dy2       1.0  0.00339  0.33100  0.25000  1.0000
  Dy  Dy3       1.0  0.99700  0.66900  0.75000  1.0000
  Dy  Dy4       1.0  0.66900  0.99700  0.75000  1.0000
  Ga  Ga1       1.0  0.33400  0.33400  0.05800  1.0000
  Ga  Ga2       1.0  0.00000  0.66600  0.07210  1.0000
  Ga  Ga3       1.0  0.66600  0.00000  0.07210  1.0000
  Ga  Ga4       1.0  0.66400  0.45000  0.25000  1.0000
  Ga  Ga5       1.0  0.45000  0.66400  0.25000  1.0000
  Ga  Ga6       1.0  0.87900  0.87900  0.25000  1.0000
  Ga  Ga7       1.0  0.00000  0.66600  0.42800  1.0000
  Ga  Ga8       1.0  0.66600  0.00000  0.42800  1.0000
  Ga  Ga9       1.0  0.33400  0.33400  0.44200  1.0000
  Ga  Ga10      1.0  0.66600  0.66600  0.55800  1.0000
  Ga  Ga11      1.0  0.33400  0.00016  0.57200  1.0000
  Ga  Ga12      1.0  0.00016  0.33400  0.57200  1.0000
  Ga  Ga13      1.0  0.12100  0.12100  0.75000  1.0000
  Ga  Ga14      1.0  0.55000  0.33600  0.75000  1.0000
  Ga  Ga15      1.0  0.33600  0.55000  0.75000  1.0000
  Ga  Ga16      1.0  0.33400  0.00016  0.92800  1.0000
  Ga  Ga17      1.0  0.00016  0.33400  0.92800  1.0000
  Ga  Ga18      1.0  0.66600  0.66600  0.94200  1.0000
