data_image0
_chemical_formula_structural       Cr4F20Rb4
_chemical_formula_sum              "Cr4 F20 Rb4"
_cell_length_a       5.35232
_cell_length_b       7.39238
_cell_length_c       9.35188
_cell_angle_alpha    90
_cell_angle_beta     90
_cell_angle_gamma    90

_space_group_name_H-M_alt    "P 1"
_space_group_IT_number       1

loop_
  _space_group_symop_operation_xyz
  'x, y, z'

loop_
  _atom_site_type_symbol
  _atom_site_label
  _atom_site_symmetry_multiplicity
  _atom_site_fract_x
  _atom_site_fract_y
  _atom_site_fract_z
  _atom_site_occupancy
  Cr  Cr1       1.0  0.00000  0.87000  0.22900  1.0000
  Cr  Cr2       1.0  0.50000  0.56900  0.34400  1.0000
  Cr  Cr3       1.0  0.00000  0.13000  0.72900  1.0000
  Cr  Cr4       1.0  0.50000  0.43100  0.84400  1.0000
  F   F1        1.0  0.00000  0.84700  0.03780  1.0000
  F   F2        1.0  0.50000  0.38800  0.21500  1.0000
  F   F3        1.0  0.25600  0.68500  0.22200  1.0000
  F   F4        1.0  0.74400  0.68500  0.22200  1.0000
  F   F5        1.0  0.24100  0.03990  0.22700  1.0000
  F   F6        1.0  0.75900  0.03990  0.22700  1.0000
  F   F7        1.0  0.00000  0.84300  0.41800  1.0000
  F   F8        1.0  0.25500  0.45700  0.44000  1.0000
  F   F9        1.0  0.74500  0.45700  0.44000  1.0000
  F   F10       1.0  0.50000  0.76200  0.45700  1.0000
  F   F11       1.0  0.00000  0.15300  0.53800  1.0000
  F   F12       1.0  0.50000  0.61200  0.71500  1.0000
  F   F13       1.0  0.25600  0.31500  0.72200  1.0000
  F   F14       1.0  0.74400  0.31500  0.72200  1.0000
  F   F15       1.0  0.24100  0.96000  0.72700  1.0000
  F   F16       1.0  0.75900  0.96000  0.72700  1.0000
  F   F17       1.0  0.00000  0.15700  0.91800  1.0000
  F   F18       1.0  0.25500  0.54300  0.94000  1.0000
  F   F19       1.0  0.74500  0.54300  0.94000  1.0000
  F   F20       1.0  0.50000  0.23800  0.95700  1.0000
  Rb  Rb1       1.0  0.00000  0.35700  0.15700  1.0000
  Rb  Rb2       1.0  0.50000  0.11800  0.47700  1.0000
  Rb  Rb3       1.0  0.00000  0.64300  0.65700  1.0000
  Rb  Rb4       1.0  0.50000  0.88200  0.97700  1.0000
