data_image0
_chemical_formula_structural       C4Ni8Ta16
_chemical_formula_sum              "C4 Ni8 Ta16"
_cell_length_a       8.26786
_cell_length_b       8.26786
_cell_length_c       8.26786
_cell_angle_alpha    120
_cell_angle_beta     90
_cell_angle_gamma    120

_space_group_name_H-M_alt    "P 1"
_space_group_IT_number       1

loop_
  _space_group_symop_operation_xyz
  'x, y, z'

loop_
  _atom_site_type_symbol
  _atom_site_label
  _atom_site_symmetry_multiplicity
  _atom_site_fract_x
  _atom_site_fract_y
  _atom_site_fract_z
  _atom_site_occupancy
  C   C1        1.0  0.00000  0.50000  0.00000  1.0000
  C   C2        1.0  0.00000  0.00000  0.50000  1.0000
  C   C3        1.0  0.00000  0.50000  0.50000  1.0000
  C   C4        1.0  0.50000  0.00000  0.50000  1.0000
  Ni  Ni1       1.0  0.70600  0.91200  0.11700  1.0000
  Ni  Ni2       1.0  0.29400  0.08840  0.20600  1.0000
  Ni  Ni3       1.0  0.29400  0.41200  0.20600  1.0000
  Ni  Ni4       1.0  0.61700  0.41200  0.20600  1.0000
  Ni  Ni5       1.0  0.38300  0.58800  0.79400  1.0000
  Ni  Ni6       1.0  0.70600  0.58800  0.79400  1.0000
  Ni  Ni7       1.0  0.70600  0.91200  0.79400  1.0000
  Ni  Ni8       1.0  0.29400  0.08840  0.88300  1.0000
  Ta  Ta1       1.0  0.00000  0.00000  0.00000  1.0000
  Ta  Ta2       1.0  0.50000  0.00000  0.00000  1.0000
  Ta  Ta3       1.0  0.50000  0.50000  0.00000  1.0000
  Ta  Ta4       1.0  0.30900  0.75000  0.19100  1.0000
  Ta  Ta5       1.0  0.94100  0.75000  0.19100  1.0000
  Ta  Ta6       1.0  0.94100  0.38300  0.19100  1.0000
  Ta  Ta7       1.0  0.05860  0.25000  0.44100  1.0000
  Ta  Ta8       1.0  0.69100  0.88300  0.44100  1.0000
  Ta  Ta9       1.0  0.69100  0.25000  0.44100  1.0000
  Ta  Ta10      1.0  0.50000  0.50000  0.50000  1.0000
  Ta  Ta11      1.0  0.30900  0.11700  0.55900  1.0000
  Ta  Ta12      1.0  0.30900  0.75000  0.55900  1.0000
  Ta  Ta13      1.0  0.94100  0.75000  0.55900  1.0000
  Ta  Ta14      1.0  0.05860  0.25000  0.80900  1.0000
  Ta  Ta15      1.0  0.05860  0.61700  0.80900  1.0000
  Ta  Ta16      1.0  0.69100  0.25000  0.80900  1.0000
