data_image0
_chemical_formula_structural       Dy8S16Sr4
_chemical_formula_sum              "Dy8 S16 Sr4"
_cell_length_a       12.0074
_cell_length_b       3.99625
_cell_length_c       14.3641
_cell_angle_alpha    90
_cell_angle_beta     90
_cell_angle_gamma    90

_space_group_name_H-M_alt    "P 1"
_space_group_IT_number       1

loop_
  _space_group_symop_operation_xyz
  'x, y, z'

loop_
  _atom_site_type_symbol
  _atom_site_label
  _atom_site_symmetry_multiplicity
  _atom_site_fract_x
  _atom_site_fract_y
  _atom_site_fract_z
  _atom_site_occupancy
  Dy  Dy1       1.0  0.42000  0.25000  0.10100  1.0000
  Dy  Dy2       1.0  0.06940  0.75000  0.11000  1.0000
  Dy  Dy3       1.0  0.56900  0.75000  0.39000  1.0000
  Dy  Dy4       1.0  0.92000  0.25000  0.39900  1.0000
  Dy  Dy5       1.0  0.07980  0.75000  0.60100  1.0000
  Dy  Dy6       1.0  0.43100  0.25000  0.61000  1.0000
  Dy  Dy7       1.0  0.93100  0.25000  0.89000  1.0000
  Dy  Dy8       1.0  0.58000  0.75000  0.89900  1.0000
  S   S1        1.0  0.63100  0.25000  0.02630  1.0000
  S   S2        1.0  0.91500  0.25000  0.07910  1.0000
  S   S3        1.0  0.20800  0.25000  0.17500  1.0000
  S   S4        1.0  0.47900  0.75000  0.21600  1.0000
  S   S5        1.0  0.97900  0.75000  0.28400  1.0000
  S   S6        1.0  0.70800  0.25000  0.32500  1.0000
  S   S7        1.0  0.41500  0.25000  0.42100  1.0000
  S   S8        1.0  0.13100  0.25000  0.47400  1.0000
  S   S9        1.0  0.86900  0.75000  0.52600  1.0000
  S   S10       1.0  0.58500  0.75000  0.57900  1.0000
  S   S11       1.0  0.29200  0.75000  0.67500  1.0000
  S   S12       1.0  0.02140  0.25000  0.71600  1.0000
  S   S13       1.0  0.52100  0.25000  0.78400  1.0000
  S   S14       1.0  0.79200  0.75000  0.82500  1.0000
  S   S15       1.0  0.08490  0.75000  0.92100  1.0000
  S   S16       1.0  0.36900  0.75000  0.97400  1.0000
  Sr  Sr1       1.0  0.74300  0.75000  0.16200  1.0000
  Sr  Sr2       1.0  0.24300  0.75000  0.33800  1.0000
  Sr  Sr3       1.0  0.75700  0.25000  0.66200  1.0000
  Sr  Sr4       1.0  0.25700  0.25000  0.83800  1.0000
