data_image0
_chemical_formula_structural       Dy8Se16Sr4
_chemical_formula_sum              "Dy8 Se16 Sr4"
_cell_length_a       12.5812
_cell_length_b       4.15083
_cell_length_c       15.0049
_cell_angle_alpha    90
_cell_angle_beta     90
_cell_angle_gamma    90

_space_group_name_H-M_alt    "P 1"
_space_group_IT_number       1

loop_
  _space_group_symop_operation_xyz
  'x, y, z'

loop_
  _atom_site_type_symbol
  _atom_site_label
  _atom_site_symmetry_multiplicity
  _atom_site_fract_x
  _atom_site_fract_y
  _atom_site_fract_z
  _atom_site_occupancy
  Dy  Dy1       1.0  0.41900  0.25000  0.09890  1.0000
  Dy  Dy2       1.0  0.06650  0.75000  0.11000  1.0000
  Dy  Dy3       1.0  0.56700  0.75000  0.39000  1.0000
  Dy  Dy4       1.0  0.91900  0.25000  0.40100  1.0000
  Dy  Dy5       1.0  0.08060  0.75000  0.59900  1.0000
  Dy  Dy6       1.0  0.43300  0.25000  0.61000  1.0000
  Dy  Dy7       1.0  0.93300  0.25000  0.89000  1.0000
  Dy  Dy8       1.0  0.58100  0.75000  0.90100  1.0000
  Se  Se1       1.0  0.63200  0.25000  0.02860  1.0000
  Se  Se2       1.0  0.91200  0.25000  0.07870  1.0000
  Se  Se3       1.0  0.20700  0.25000  0.17400  1.0000
  Se  Se4       1.0  0.47600  0.75000  0.21600  1.0000
  Se  Se5       1.0  0.97600  0.75000  0.28400  1.0000
  Se  Se6       1.0  0.70700  0.25000  0.32600  1.0000
  Se  Se7       1.0  0.41200  0.25000  0.42100  1.0000
  Se  Se8       1.0  0.13200  0.25000  0.47100  1.0000
  Se  Se9       1.0  0.86800  0.75000  0.52900  1.0000
  Se  Se10      1.0  0.58800  0.75000  0.57900  1.0000
  Se  Se11      1.0  0.29300  0.75000  0.67400  1.0000
  Se  Se12      1.0  0.02360  0.25000  0.71600  1.0000
  Se  Se13      1.0  0.52400  0.25000  0.78400  1.0000
  Se  Se14      1.0  0.79300  0.75000  0.82600  1.0000
  Se  Se15      1.0  0.08790  0.75000  0.92100  1.0000
  Se  Se16      1.0  0.36800  0.75000  0.97100  1.0000
  Sr  Sr1       1.0  0.74300  0.75000  0.16400  1.0000
  Sr  Sr2       1.0  0.24300  0.75000  0.33600  1.0000
  Sr  Sr3       1.0  0.75700  0.25000  0.66400  1.0000
  Sr  Sr4       1.0  0.25700  0.25000  0.83600  1.0000
