data_image0
_chemical_formula_structural       Eu4S16Sb8
_chemical_formula_sum              "Eu4 S16 Sb8"
_cell_length_a       11.5212
_cell_length_b       4.02518
_cell_length_c       14.3826
_cell_angle_alpha    90
_cell_angle_beta     90
_cell_angle_gamma    90

_space_group_name_H-M_alt    "P 1"
_space_group_IT_number       1

loop_
  _space_group_symop_operation_xyz
  'x, y, z'

loop_
  _atom_site_type_symbol
  _atom_site_label
  _atom_site_symmetry_multiplicity
  _atom_site_fract_x
  _atom_site_fract_y
  _atom_site_fract_z
  _atom_site_occupancy
  Eu  Eu1       1.0  0.22600  0.75000  0.15800  1.0000
  Eu  Eu2       1.0  0.72600  0.75000  0.34200  1.0000
  Eu  Eu3       1.0  0.27400  0.25000  0.65800  1.0000
  Eu  Eu4       1.0  0.77400  0.25000  0.84200  1.0000
  S   S1        1.0  0.31400  0.25000  0.01500  1.0000
  S   S2        1.0  0.05050  0.25000  0.09060  1.0000
  S   S3        1.0  0.75500  0.25000  0.19400  1.0000
  S   S4        1.0  0.48900  0.75000  0.20900  1.0000
  S   S5        1.0  0.98900  0.75000  0.29100  1.0000
  S   S6        1.0  0.25500  0.25000  0.30600  1.0000
  S   S7        1.0  0.55000  0.25000  0.40900  1.0000
  S   S8        1.0  0.81400  0.25000  0.48500  1.0000
  S   S9        1.0  0.18600  0.75000  0.51500  1.0000
  S   S10       1.0  0.45000  0.75000  0.59100  1.0000
  S   S11       1.0  0.74500  0.75000  0.69400  1.0000
  S   S12       1.0  0.01140  0.25000  0.70900  1.0000
  S   S13       1.0  0.51100  0.25000  0.79100  1.0000
  S   S14       1.0  0.24500  0.75000  0.80600  1.0000
  S   S15       1.0  0.95000  0.75000  0.90900  1.0000
  S   S16       1.0  0.68600  0.75000  0.98500  1.0000
  Sb  Sb1       1.0  0.88000  0.75000  0.08130  1.0000
  Sb  Sb2       1.0  0.56600  0.25000  0.10900  1.0000
  Sb  Sb3       1.0  0.06620  0.25000  0.39100  1.0000
  Sb  Sb4       1.0  0.38000  0.75000  0.41900  1.0000
  Sb  Sb5       1.0  0.62000  0.25000  0.58100  1.0000
  Sb  Sb6       1.0  0.93400  0.75000  0.60900  1.0000
  Sb  Sb7       1.0  0.43400  0.75000  0.89100  1.0000
  Sb  Sb8       1.0  0.12000  0.25000  0.91900  1.0000
