data_image0
_chemical_formula_structural       Ce4Na8O12
_chemical_formula_sum              "Ce4 Na8 O12"
_cell_length_a       6.12519
_cell_length_b       6.12519
_cell_length_c       11.1449
_cell_angle_alpha    95.0994
_cell_angle_beta     95.0994
_cell_angle_gamma    119.726

_space_group_name_H-M_alt    "P 1"
_space_group_IT_number       1

loop_
  _space_group_symop_operation_xyz
  'x, y, z'

loop_
  _atom_site_type_symbol
  _atom_site_label
  _atom_site_symmetry_multiplicity
  _atom_site_fract_x
  _atom_site_fract_y
  _atom_site_fract_z
  _atom_site_occupancy
  Ce  Ce1       1.0  0.74900  0.75100  0.25000  1.0000
  Ce  Ce2       1.0  0.08400  0.41600  0.25000  1.0000
  Ce  Ce3       1.0  0.25100  0.24900  0.75000  1.0000
  Ce  Ce4       1.0  0.91600  0.58400  0.75000  1.0000
  Na  Na1       1.0  0.00000  0.00000  0.00000  1.0000
  Na  Na2       1.0  0.65600  0.30900  0.00000  1.0000
  Na  Na3       1.0  0.34400  0.69100  0.00000  1.0000
  Na  Na4       1.0  0.41700  0.08340  0.25000  1.0000
  Na  Na5       1.0  0.19100  0.84400  0.50000  1.0000
  Na  Na6       1.0  0.50000  0.50000  0.50000  1.0000
  Na  Na7       1.0  0.80900  0.15600  0.50000  1.0000
  Na  Na8       1.0  0.58300  0.91700  0.75000  1.0000
  O   O1        1.0  0.37500  0.39200  0.13000  1.0000
  O   O2        1.0  0.72500  0.04300  0.13000  1.0000
  O   O3        1.0  0.02780  0.69300  0.13100  1.0000
  O   O4        1.0  0.80700  0.47200  0.36900  1.0000
  O   O5        1.0  0.45700  0.77500  0.37000  1.0000
  O   O6        1.0  0.10800  0.12500  0.37000  1.0000
  O   O7        1.0  0.89200  0.87500  0.63000  1.0000
  O   O8        1.0  0.54300  0.22500  0.63000  1.0000
  O   O9        1.0  0.19300  0.52800  0.63100  1.0000
  O   O10       1.0  0.97200  0.30700  0.86900  1.0000
  O   O11       1.0  0.27500  0.95700  0.87000  1.0000
  O   O12       1.0  0.62500  0.60800  0.87000  1.0000
