data_image0
_chemical_formula_structural       Co2Mo8Zr18
_chemical_formula_sum              "Co2 Mo8 Zr18"
_cell_length_a       8.805
_cell_length_b       8.80497
_cell_length_c       8.43132
_cell_angle_alpha    90
_cell_angle_beta     90
_cell_angle_gamma    120

_space_group_name_H-M_alt    "P 1"
_space_group_IT_number       1

loop_
  _space_group_symop_operation_xyz
  'x, y, z'

loop_
  _atom_site_type_symbol
  _atom_site_label
  _atom_site_symmetry_multiplicity
  _atom_site_fract_x
  _atom_site_fract_y
  _atom_site_fract_z
  _atom_site_occupancy
  Co  Co1       1.0  0.33300  0.66700  0.25000  1.0000
  Co  Co2       1.0  0.66700  0.33300  0.75000  1.0000
  Mo  Mo1       1.0  0.00000  0.00000  0.00000  1.0000
  Mo  Mo2       1.0  0.22100  0.11000  0.25000  1.0000
  Mo  Mo3       1.0  0.89000  0.11000  0.25000  1.0000
  Mo  Mo4       1.0  0.89000  0.77900  0.25000  1.0000
  Mo  Mo5       1.0  0.00000  0.00000  0.50000  1.0000
  Mo  Mo6       1.0  0.11000  0.22100  0.75000  1.0000
  Mo  Mo7       1.0  0.11000  0.89000  0.75000  1.0000
  Mo  Mo8       1.0  0.77900  0.89000  0.75000  1.0000
  Zr  Zr1       1.0  0.20100  0.40200  0.05690  1.0000
  Zr  Zr2       1.0  0.20100  0.79900  0.05690  1.0000
  Zr  Zr3       1.0  0.59800  0.79900  0.05690  1.0000
  Zr  Zr4       1.0  0.54200  0.08440  0.25000  1.0000
  Zr  Zr5       1.0  0.54200  0.45800  0.25000  1.0000
  Zr  Zr6       1.0  0.91600  0.45800  0.25000  1.0000
  Zr  Zr7       1.0  0.20100  0.79900  0.44300  1.0000
  Zr  Zr8       1.0  0.59800  0.79900  0.44300  1.0000
  Zr  Zr9       1.0  0.20100  0.40200  0.44300  1.0000
  Zr  Zr10      1.0  0.79900  0.59800  0.55700  1.0000
  Zr  Zr11      1.0  0.40200  0.20100  0.55700  1.0000
  Zr  Zr12      1.0  0.79900  0.20100  0.55700  1.0000
  Zr  Zr13      1.0  0.08440  0.54200  0.75000  1.0000
  Zr  Zr14      1.0  0.45800  0.54200  0.75000  1.0000
  Zr  Zr15      1.0  0.45800  0.91600  0.75000  1.0000
  Zr  Zr16      1.0  0.40200  0.20100  0.94300  1.0000
  Zr  Zr17      1.0  0.79900  0.20100  0.94300  1.0000
  Zr  Zr18      1.0  0.79900  0.59800  0.94300  1.0000
