data_image0
_chemical_formula_structural       Ce5Co19
_chemical_formula_sum              "Ce5 Co19"
_cell_length_a       5.02787
_cell_length_b       5.02787
_cell_length_c       16.4387
_cell_angle_alpha    81.2034
_cell_angle_beta     98.7966
_cell_angle_gamma    120

_space_group_name_H-M_alt    "P 1"
_space_group_IT_number       1

loop_
  _space_group_symop_operation_xyz
  'x, y, z'

loop_
  _atom_site_type_symbol
  _atom_site_label
  _atom_site_symmetry_multiplicity
  _atom_site_fract_x
  _atom_site_fract_y
  _atom_site_fract_z
  _atom_site_occupancy
  Ce  Ce1       1.0  0.00000  0.00000  0.00000  1.0000
  Ce  Ce2       1.0  0.07920  0.92100  0.23700  1.0000
  Ce  Ce3       1.0  0.15200  0.84800  0.45700  1.0000
  Ce  Ce4       1.0  0.84800  0.15200  0.54300  1.0000
  Ce  Ce5       1.0  0.92100  0.07920  0.76300  1.0000
  Co  Co1       1.0  0.33300  0.66700  0.00033  1.0000
  Co  Co2       1.0  0.54100  0.45900  0.12100  1.0000
  Co  Co3       1.0  0.04000  0.45900  0.12100  1.0000
  Co  Co4       1.0  0.54100  0.96000  0.12100  1.0000
  Co  Co5       1.0  0.41400  0.58600  0.24300  1.0000
  Co  Co6       1.0  0.74800  0.25200  0.24500  1.0000
  Co  Co7       1.0  0.12600  0.38100  0.36400  1.0000
  Co  Co8       1.0  0.61900  0.38100  0.36400  1.0000
  Co  Co9       1.0  0.61900  0.87400  0.36400  1.0000
  Co  Co10      1.0  0.50000  0.50000  0.50000  1.0000
  Co  Co11      1.0  0.38100  0.12600  0.63600  1.0000
  Co  Co12      1.0  0.87400  0.61900  0.63600  1.0000
  Co  Co13      1.0  0.38100  0.61900  0.63600  1.0000
  Co  Co14      1.0  0.25200  0.74800  0.75500  1.0000
  Co  Co15      1.0  0.58600  0.41400  0.75700  1.0000
  Co  Co16      1.0  0.45900  0.04000  0.87900  1.0000
  Co  Co17      1.0  0.45900  0.54100  0.87900  1.0000
  Co  Co18      1.0  0.96000  0.54100  0.87900  1.0000
  Co  Co19      1.0  0.66700  0.33300  0.00000  1.0000
