data_image0
_chemical_formula_structural       Co8N4V16
_chemical_formula_sum              "Co8 N4 V16"
_cell_length_a       7.61305
_cell_length_b       7.61305
_cell_length_c       7.61305
_cell_angle_alpha    120
_cell_angle_beta     90
_cell_angle_gamma    120

_space_group_name_H-M_alt    "P 1"
_space_group_IT_number       1

loop_
  _space_group_symop_operation_xyz
  'x, y, z'

loop_
  _atom_site_type_symbol
  _atom_site_label
  _atom_site_symmetry_multiplicity
  _atom_site_fract_x
  _atom_site_fract_y
  _atom_site_fract_z
  _atom_site_occupancy
  Co  Co1       1.0  0.70800  0.91600  0.12400  1.0000
  Co  Co2       1.0  0.29200  0.08400  0.20800  1.0000
  Co  Co3       1.0  0.29200  0.41600  0.20800  1.0000
  Co  Co4       1.0  0.62400  0.41600  0.20800  1.0000
  Co  Co5       1.0  0.70800  0.58400  0.79200  1.0000
  Co  Co6       1.0  0.70800  0.91600  0.79200  1.0000
  Co  Co7       1.0  0.37600  0.58400  0.79200  1.0000
  Co  Co8       1.0  0.29200  0.08400  0.87600  1.0000
  N   N1        1.0  0.00000  0.50000  0.00000  1.0000
  N   N2        1.0  0.00000  0.00000  0.50000  1.0000
  N   N3        1.0  0.50000  0.00000  0.50000  1.0000
  N   N4        1.0  0.00000  0.50000  0.50000  1.0000
  V   V1        1.0  0.00000  0.00000  0.00000  1.0000
  V   V2        1.0  0.50000  0.00000  0.00000  1.0000
  V   V3        1.0  0.50000  0.50000  0.00000  1.0000
  V   V4        1.0  0.30900  0.75000  0.19100  1.0000
  V   V5        1.0  0.94100  0.38200  0.19100  1.0000
  V   V6        1.0  0.94100  0.75000  0.19100  1.0000
  V   V7        1.0  0.69100  0.25000  0.44100  1.0000
  V   V8        1.0  0.69100  0.88200  0.44100  1.0000
  V   V9        1.0  0.05890  0.25000  0.44100  1.0000
  V   V10       1.0  0.50000  0.50000  0.50000  1.0000
  V   V11       1.0  0.94100  0.75000  0.55900  1.0000
  V   V12       1.0  0.30900  0.11800  0.55900  1.0000
  V   V13       1.0  0.30900  0.75000  0.55900  1.0000
  V   V14       1.0  0.05890  0.61800  0.80900  1.0000
  V   V15       1.0  0.05890  0.25000  0.80900  1.0000
  V   V16       1.0  0.69100  0.25000  0.80900  1.0000
