data_image0
_chemical_formula_structural       H4O16P4Sn4
_chemical_formula_sum              "H4 O16 P4 Sn4"
_cell_length_a       4.57744
_cell_length_b       13.4101
_cell_length_c       5.72653
_cell_angle_alpha    90
_cell_angle_beta     98.1411
_cell_angle_gamma    90

_space_group_name_H-M_alt    "P 1"
_space_group_IT_number       1

loop_
  _space_group_symop_operation_xyz
  'x, y, z'

loop_
  _atom_site_type_symbol
  _atom_site_label
  _atom_site_symmetry_multiplicity
  _atom_site_fract_x
  _atom_site_fract_y
  _atom_site_fract_z
  _atom_site_occupancy
  H   H1        1.0  0.40600  0.49000  0.20500  1.0000
  H   H2        1.0  0.59400  0.99000  0.29500  1.0000
  H   H3        1.0  0.40600  0.00960  0.70500  1.0000
  H   H4        1.0  0.59400  0.51000  0.79500  1.0000
  O   O1        1.0  0.68300  0.71300  0.04370  1.0000
  O   O2        1.0  0.30200  0.58700  0.12300  1.0000
  O   O3        1.0  0.82100  0.28300  0.20700  1.0000
  O   O4        1.0  0.51400  0.92000  0.23300  1.0000
  O   O5        1.0  0.48600  0.42000  0.26700  1.0000
  O   O6        1.0  0.17900  0.78300  0.29300  1.0000
  O   O7        1.0  0.69800  0.08670  0.37700  1.0000
  O   O8        1.0  0.31700  0.21300  0.45600  1.0000
  O   O9        1.0  0.68300  0.78700  0.54400  1.0000
  O   O10       1.0  0.30200  0.91300  0.62300  1.0000
  O   O11       1.0  0.82100  0.21700  0.70700  1.0000
  O   O12       1.0  0.51400  0.58000  0.73300  1.0000
  O   O13       1.0  0.48600  0.07960  0.76700  1.0000
  O   O14       1.0  0.17900  0.71700  0.79300  1.0000
  O   O15       1.0  0.69800  0.41300  0.87700  1.0000
  O   O16       1.0  0.31700  0.28700  0.95600  1.0000
  P   P1        1.0  0.58300  0.35100  0.06910  1.0000
  P   P2        1.0  0.41700  0.85100  0.43100  1.0000
  P   P3        1.0  0.58300  0.14900  0.56900  1.0000
  P   P4        1.0  0.41700  0.64900  0.93100  1.0000
  Sn  Sn1       1.0  0.06750  0.15300  0.09480  1.0000
  Sn  Sn2       1.0  0.93200  0.65300  0.40500  1.0000
  Sn  Sn3       1.0  0.06750  0.34700  0.59500  1.0000
  Sn  Sn4       1.0  0.93200  0.84700  0.90500  1.0000
