data_image0
_chemical_formula_structural       Cr4Mo8S16
_chemical_formula_sum              "Cr4 Mo8 S16"
_cell_length_a       6.57826
_cell_length_b       6.83503
_cell_length_c       12.2573
_cell_angle_alpha    100.149
_cell_angle_beta     105.565
_cell_angle_gamma    61.2351

_space_group_name_H-M_alt    "P 1"
_space_group_IT_number       1

loop_
  _space_group_symop_operation_xyz
  'x, y, z'

loop_
  _atom_site_type_symbol
  _atom_site_label
  _atom_site_symmetry_multiplicity
  _atom_site_fract_x
  _atom_site_fract_y
  _atom_site_fract_z
  _atom_site_occupancy
  Cr  Cr1       1.0  0.52800  0.24000  0.04910  1.0000
  Cr  Cr2       1.0  0.04620  0.20700  0.05240  1.0000
  Cr  Cr3       1.0  0.28100  0.74000  0.54900  1.0000
  Cr  Cr4       1.0  0.79900  0.70700  0.55200  1.0000
  Mo  Mo1       1.0  0.10300  0.78600  0.29300  1.0000
  Mo  Mo2       1.0  0.66000  0.77000  0.29500  1.0000
  Mo  Mo3       1.0  0.66400  0.17600  0.30700  1.0000
  Mo  Mo4       1.0  0.22100  0.16000  0.30900  1.0000
  Mo  Mo5       1.0  0.40400  0.28600  0.79300  1.0000
  Mo  Mo6       1.0  0.86400  0.27000  0.79500  1.0000
  Mo  Mo7       1.0  0.46700  0.67600  0.80700  1.0000
  Mo  Mo8       1.0  0.92700  0.66000  0.80900  1.0000
  S   S1        1.0  0.74500  0.89800  0.15300  1.0000
  S   S2        1.0  0.27400  0.87000  0.16500  1.0000
  S   S3        1.0  0.26600  0.38800  0.18800  1.0000
  S   S4        1.0  0.79000  0.37200  0.19600  1.0000
  S   S5        1.0  0.53500  0.57500  0.40600  1.0000
  S   S6        1.0  0.05830  0.55900  0.41400  1.0000
  S   S7        1.0  0.04970  0.07670  0.43700  1.0000
  S   S8        1.0  0.57800  0.04830  0.44800  1.0000
  S   S9        1.0  0.50900  0.39800  0.65300  1.0000
  S   S10       1.0  0.02030  0.37000  0.66500  1.0000
  S   S11       1.0  0.53400  0.88800  0.68800  1.0000
  S   S12       1.0  0.03440  0.87200  0.69600  1.0000
  S   S13       1.0  0.29600  0.07510  0.90600  1.0000
  S   S14       1.0  0.79600  0.05890  0.91400  1.0000
  S   S15       1.0  0.31100  0.57700  0.93700  1.0000
  S   S16       1.0  0.82200  0.54800  0.94800  1.0000
