data_image0
_chemical_formula_structural       Eu4Se16Tm8
_chemical_formula_sum              "Eu4 Se16 Tm8"
_cell_length_a       12.3735
_cell_length_b       4.06769
_cell_length_c       14.721
_cell_angle_alpha    90
_cell_angle_beta     90
_cell_angle_gamma    90

_space_group_name_H-M_alt    "P 1"
_space_group_IT_number       1

loop_
  _space_group_symop_operation_xyz
  'x, y, z'

loop_
  _atom_site_type_symbol
  _atom_site_label
  _atom_site_symmetry_multiplicity
  _atom_site_fract_x
  _atom_site_fract_y
  _atom_site_fract_z
  _atom_site_occupancy
  Eu  Eu1       1.0  0.74000  0.75000  0.16600  1.0000
  Eu  Eu2       1.0  0.24000  0.75000  0.33400  1.0000
  Eu  Eu3       1.0  0.76000  0.25000  0.66600  1.0000
  Eu  Eu4       1.0  0.26000  0.25000  0.83400  1.0000
  Se  Se1       1.0  0.63200  0.25000  0.03190  1.0000
  Se  Se2       1.0  0.90800  0.25000  0.07830  1.0000
  Se  Se3       1.0  0.20600  0.25000  0.17500  1.0000
  Se  Se4       1.0  0.47300  0.75000  0.21500  1.0000
  Se  Se5       1.0  0.97300  0.75000  0.28500  1.0000
  Se  Se6       1.0  0.70600  0.25000  0.32500  1.0000
  Se  Se7       1.0  0.40800  0.25000  0.42200  1.0000
  Se  Se8       1.0  0.13200  0.25000  0.46800  1.0000
  Se  Se9       1.0  0.86800  0.75000  0.53200  1.0000
  Se  Se10      1.0  0.59200  0.75000  0.57800  1.0000
  Se  Se11      1.0  0.29400  0.75000  0.67500  1.0000
  Se  Se12      1.0  0.02690  0.25000  0.71500  1.0000
  Se  Se13      1.0  0.52700  0.25000  0.78500  1.0000
  Se  Se14      1.0  0.79400  0.75000  0.82500  1.0000
  Se  Se15      1.0  0.09220  0.75000  0.92200  1.0000
  Se  Se16      1.0  0.36800  0.75000  0.96800  1.0000
  Tm  Tm1       1.0  0.41700  0.25000  0.09730  1.0000
  Tm  Tm2       1.0  0.06290  0.75000  0.11100  1.0000
  Tm  Tm3       1.0  0.56300  0.75000  0.38900  1.0000
  Tm  Tm4       1.0  0.91700  0.25000  0.40300  1.0000
  Tm  Tm5       1.0  0.08330  0.75000  0.59700  1.0000
  Tm  Tm6       1.0  0.43700  0.25000  0.61100  1.0000
  Tm  Tm7       1.0  0.93700  0.25000  0.88900  1.0000
  Tm  Tm8       1.0  0.58300  0.75000  0.90300  1.0000
