data_image0
_chemical_formula_structural       Ni8O4Zr16
_chemical_formula_sum              "Ni8 O4 Zr16"
_cell_length_a       8.58422
_cell_length_b       8.58422
_cell_length_c       8.58422
_cell_angle_alpha    120
_cell_angle_beta     90
_cell_angle_gamma    120

_space_group_name_H-M_alt    "P 1"
_space_group_IT_number       1

loop_
  _space_group_symop_operation_xyz
  'x, y, z'

loop_
  _atom_site_type_symbol
  _atom_site_label
  _atom_site_symmetry_multiplicity
  _atom_site_fract_x
  _atom_site_fract_y
  _atom_site_fract_z
  _atom_site_occupancy
  Ni  Ni1       1.0  0.23100  0.82100  0.41000  1.0000
  Ni  Ni2       1.0  0.59000  0.17900  0.41000  1.0000
  Ni  Ni3       1.0  0.59000  0.82100  0.41000  1.0000
  Ni  Ni4       1.0  0.16000  0.32100  0.48100  1.0000
  Ni  Ni5       1.0  0.59000  0.17900  0.76900  1.0000
  Ni  Ni6       1.0  0.16000  0.32100  0.84000  1.0000
  Ni  Ni7       1.0  0.51900  0.67900  0.84000  1.0000
  Ni  Ni8       1.0  0.16000  0.67900  0.84000  1.0000
  O   O1        1.0  0.87500  0.25000  0.12500  1.0000
  O   O2        1.0  0.37500  0.25000  0.12500  1.0000
  O   O3        1.0  0.87500  0.75000  0.12500  1.0000
  O   O4        1.0  0.87500  0.75000  0.62500  1.0000
  Zr  Zr1       1.0  0.56500  0.50000  0.06480  1.0000
  Zr  Zr2       1.0  0.56500  0.13000  0.06480  1.0000
  Zr  Zr3       1.0  0.93500  0.50000  0.06480  1.0000
  Zr  Zr4       1.0  0.37500  0.75000  0.12500  1.0000
  Zr  Zr5       1.0  0.18500  0.00000  0.18500  1.0000
  Zr  Zr6       1.0  0.18500  0.37000  0.18500  1.0000
  Zr  Zr7       1.0  0.81500  0.00000  0.18500  1.0000
  Zr  Zr8       1.0  0.56500  0.50000  0.43500  1.0000
  Zr  Zr9       1.0  0.93500  0.50000  0.43500  1.0000
  Zr  Zr10      1.0  0.93500  0.87000  0.43500  1.0000
  Zr  Zr11      1.0  0.37500  0.25000  0.62500  1.0000
  Zr  Zr12      1.0  0.87500  0.25000  0.62500  1.0000
  Zr  Zr13      1.0  0.37500  0.75000  0.62500  1.0000
  Zr  Zr14      1.0  0.18500  0.00000  0.81500  1.0000
  Zr  Zr15      1.0  0.81500  0.00000  0.81500  1.0000
  Zr  Zr16      1.0  0.81500  0.63000  0.81500  1.0000
