data_image0
_chemical_formula_structural       C6Cl14Mo2O2S4
_chemical_formula_sum              "C6 Cl14 Mo2 O2 S4"
_cell_length_a       8.23439
_cell_length_b       10.1443
_cell_length_c       8.58668
_cell_angle_alpha    90
_cell_angle_beta     108.541
_cell_angle_gamma    90

_space_group_name_H-M_alt    "P 1"
_space_group_IT_number       1

loop_
  _space_group_symop_operation_xyz
  'x, y, z'

loop_
  _atom_site_type_symbol
  _atom_site_label
  _atom_site_symmetry_multiplicity
  _atom_site_fract_x
  _atom_site_fract_y
  _atom_site_fract_z
  _atom_site_occupancy
  C   C1        1.0  0.92000  0.66300  0.04100  1.0000
  C   C2        1.0  0.85100  0.77300  0.09570  1.0000
  C   C3        1.0  0.06050  0.30900  0.48800  1.0000
  C   C4        1.0  0.92000  0.33700  0.54100  1.0000
  C   C5        1.0  0.85100  0.22700  0.59600  1.0000
  C   C6        1.0  0.06050  0.69100  0.98800  1.0000
  Cl  Cl1       1.0  0.13600  0.18600  0.01920  1.0000
  Cl  Cl2       1.0  0.84000  0.50900  0.03980  1.0000
  Cl  Cl3       1.0  0.72000  0.18800  0.13500  1.0000
  Cl  Cl4       1.0  0.69000  0.76600  0.17700  1.0000
  Cl  Cl5       1.0  0.45400  0.04480  0.29000  1.0000
  Cl  Cl6       1.0  0.40100  0.67900  0.36100  1.0000
  Cl  Cl7       1.0  0.17400  0.42400  0.42600  1.0000
  Cl  Cl8       1.0  0.13600  0.81400  0.51900  1.0000
  Cl  Cl9       1.0  0.84000  0.49100  0.54000  1.0000
  Cl  Cl10      1.0  0.72000  0.81200  0.63500  1.0000
  Cl  Cl11      1.0  0.69000  0.23400  0.67700  1.0000
  Cl  Cl12      1.0  0.45400  0.95500  0.79000  1.0000
  Cl  Cl13      1.0  0.40100  0.32100  0.86100  1.0000
  Cl  Cl14      1.0  0.17400  0.57600  0.92600  1.0000
  Mo  Mo1       1.0  0.43500  0.23200  0.12300  1.0000
  Mo  Mo2       1.0  0.43500  0.76800  0.62300  1.0000
  O   O1        1.0  0.45400  0.36300  0.25000  1.0000
  O   O2        1.0  0.45400  0.63700  0.75000  1.0000
  S   S1        1.0  0.93900  0.92300  0.08220  1.0000
  S   S2        1.0  0.12300  0.14900  0.49100  1.0000
  S   S3        1.0  0.93900  0.07700  0.58200  1.0000
  S   S4        1.0  0.12300  0.85100  0.99100  1.0000
