data_image0
_chemical_formula_structural       Ce4Co2Ga18Ge4
_chemical_formula_sum              "Ce4 Co2 Ga18 Ge4"
_cell_length_a       5.99896
_cell_length_b       5.99896
_cell_length_c       15.3068
_cell_angle_alpha    90
_cell_angle_beta     90
_cell_angle_gamma    90

_space_group_name_H-M_alt    "P 1"
_space_group_IT_number       1

loop_
  _space_group_symop_operation_xyz
  'x, y, z'

loop_
  _atom_site_type_symbol
  _atom_site_label
  _atom_site_symmetry_multiplicity
  _atom_site_fract_x
  _atom_site_fract_y
  _atom_site_fract_z
  _atom_site_occupancy
  Ce  Ce1       1.0  0.75000  0.25000  0.24700  1.0000
  Ce  Ce2       1.0  0.25000  0.75000  0.24700  1.0000
  Ce  Ce3       1.0  0.75000  0.25000  0.75300  1.0000
  Ce  Ce4       1.0  0.25000  0.75000  0.75300  1.0000
  Co  Co1       1.0  0.75000  0.25000  0.00000  1.0000
  Co  Co2       1.0  0.25000  0.75000  0.00000  1.0000
  Ga  Ga1       1.0  0.01280  0.01280  0.08350  1.0000
  Ga  Ga2       1.0  0.48700  0.01280  0.08350  1.0000
  Ga  Ga3       1.0  0.01280  0.48700  0.08350  1.0000
  Ga  Ga4       1.0  0.48700  0.48700  0.08350  1.0000
  Ga  Ga5       1.0  0.75000  0.75000  0.34700  1.0000
  Ga  Ga6       1.0  0.02940  0.02940  0.41800  1.0000
  Ga  Ga7       1.0  0.47100  0.02940  0.41800  1.0000
  Ga  Ga8       1.0  0.02940  0.47100  0.41800  1.0000
  Ga  Ga9       1.0  0.47100  0.47100  0.41800  1.0000
  Ga  Ga10      1.0  0.52900  0.52900  0.58200  1.0000
  Ga  Ga11      1.0  0.97100  0.52900  0.58200  1.0000
  Ga  Ga12      1.0  0.52900  0.97100  0.58200  1.0000
  Ga  Ga13      1.0  0.97100  0.97100  0.58200  1.0000
  Ga  Ga14      1.0  0.25000  0.25000  0.65300  1.0000
  Ga  Ga15      1.0  0.51300  0.51300  0.91600  1.0000
  Ga  Ga16      1.0  0.98700  0.51300  0.91600  1.0000
  Ga  Ga17      1.0  0.51300  0.98700  0.91600  1.0000
  Ga  Ga18      1.0  0.98700  0.98700  0.91600  1.0000
  Ge  Ge1       1.0  0.75000  0.75000  0.18300  1.0000
  Ge  Ge2       1.0  0.25000  0.25000  0.21600  1.0000
  Ge  Ge3       1.0  0.75000  0.75000  0.78400  1.0000
  Ge  Ge4       1.0  0.25000  0.25000  0.81700  1.0000
