data_image0
_chemical_formula_structural       Cu12S12Sb4
_chemical_formula_sum              "Cu12 S12 Sb4"
_cell_length_a       8.73648
_cell_length_b       8.73648
_cell_length_c       8.73648
_cell_angle_alpha    109.471
_cell_angle_beta     109.471
_cell_angle_gamma    109.471

_space_group_name_H-M_alt    "P 1"
_space_group_IT_number       1

loop_
  _space_group_symop_operation_xyz
  'x, y, z'

loop_
  _atom_site_type_symbol
  _atom_site_label
  _atom_site_symmetry_multiplicity
  _atom_site_fract_x
  _atom_site_fract_y
  _atom_site_fract_z
  _atom_site_occupancy
  Cu  Cu1       1.0  0.18100  0.18100  0.00000  1.0000
  Cu  Cu2       1.0  0.81900  0.81900  0.00000  1.0000
  Cu  Cu3       1.0  0.18100  0.00000  0.18100  1.0000
  Cu  Cu4       1.0  0.00000  0.18100  0.18100  1.0000
  Cu  Cu5       1.0  0.75000  0.50000  0.25000  1.0000
  Cu  Cu6       1.0  0.50000  0.75000  0.25000  1.0000
  Cu  Cu7       1.0  0.75000  0.25000  0.50000  1.0000
  Cu  Cu8       1.0  0.25000  0.75000  0.50000  1.0000
  Cu  Cu9       1.0  0.50000  0.25000  0.75000  1.0000
  Cu  Cu10      1.0  0.25000  0.50000  0.75000  1.0000
  Cu  Cu11      1.0  0.81900  0.00000  0.81900  1.0000
  Cu  Cu12      1.0  0.00000  0.81900  0.81900  1.0000
  S   S1        1.0  0.46700  0.24600  0.00000  1.0000
  S   S2        1.0  0.24600  0.46700  0.00000  1.0000
  S   S3        1.0  0.75400  0.75400  0.22100  1.0000
  S   S4        1.0  0.46700  0.00000  0.24600  1.0000
  S   S5        1.0  0.00000  0.46700  0.24600  1.0000
  S   S6        1.0  0.24600  0.00000  0.46700  1.0000
  S   S7        1.0  0.00000  0.24600  0.46700  1.0000
  S   S8        1.0  0.77900  0.53300  0.53300  1.0000
  S   S9        1.0  0.53300  0.77900  0.53300  1.0000
  S   S10       1.0  0.75400  0.22100  0.75400  1.0000
  S   S11       1.0  0.22100  0.75400  0.75400  1.0000
  S   S12       1.0  0.53300  0.53300  0.77900  1.0000
  Sb  Sb1       1.0  0.54500  0.00000  0.00000  1.0000
  Sb  Sb2       1.0  0.00000  0.54500  0.00000  1.0000
  Sb  Sb3       1.0  0.45500  0.45500  0.45500  1.0000
  Sb  Sb4       1.0  0.00000  0.00000  0.54500  1.0000
