data_image0
_chemical_formula_structural       Ba4O11Pd4
_chemical_formula_sum              "Ba4 O11 Pd4"
_cell_length_a       5.73948
_cell_length_b       5.7086
_cell_length_c       8.34051
_cell_angle_alpha    90
_cell_angle_beta     90
_cell_angle_gamma    90.0095

_space_group_name_H-M_alt    "P 1"
_space_group_IT_number       1

loop_
  _space_group_symop_operation_xyz
  'x, y, z'

loop_
  _atom_site_type_symbol
  _atom_site_label
  _atom_site_symmetry_multiplicity
  _atom_site_fract_x
  _atom_site_fract_y
  _atom_site_fract_z
  _atom_site_occupancy
  Ba  Ba1       1.0  0.01610  0.01380  0.25000  1.0000
  Ba  Ba2       1.0  0.50600  0.52200  0.25000  1.0000
  Ba  Ba3       1.0  0.49000  0.48600  0.75000  1.0000
  Ba  Ba4       1.0  0.00389  0.98600  0.75000  1.0000
  O   O1        1.0  0.77400  0.78200  0.03550  1.0000
  O   O2        1.0  0.72400  0.27200  0.03830  1.0000
  O   O3        1.0  0.04750  0.51000  0.25000  1.0000
  O   O4        1.0  0.72400  0.27200  0.46200  1.0000
  O   O5        1.0  0.77400  0.78200  0.46500  1.0000
  O   O6        1.0  0.21800  0.21500  0.50800  1.0000
  O   O7        1.0  0.28700  0.71900  0.50900  1.0000
  O   O8        1.0  0.95300  0.49200  0.75000  1.0000
  O   O9        1.0  0.52200  0.99500  0.75000  1.0000
  O   O10       1.0  0.28700  0.71900  0.99100  1.0000
  O   O11       1.0  0.21800  0.21500  0.99200  1.0000
  Pd  Pd1       1.0  0.99800  0.50300  0.00110  1.0000
  Pd  Pd2       1.0  0.99800  0.50300  0.49900  1.0000
  Pd  Pd3       1.0  0.50500  0.00410  0.50600  1.0000
  Pd  Pd4       1.0  0.50500  0.00410  0.99400  1.0000
