data_image0
_chemical_formula_structural       Ac4Ga4O11
_chemical_formula_sum              "Ac4 Ga4 O11"
_cell_length_a       5.66376
_cell_length_b       5.62847
_cell_length_c       7.72846
_cell_angle_alpha    90
_cell_angle_beta     90
_cell_angle_gamma    90.027

_space_group_name_H-M_alt    "P 1"
_space_group_IT_number       1

loop_
  _space_group_symop_operation_xyz
  'x, y, z'

loop_
  _atom_site_type_symbol
  _atom_site_label
  _atom_site_symmetry_multiplicity
  _atom_site_fract_x
  _atom_site_fract_y
  _atom_site_fract_z
  _atom_site_occupancy
  Ac  Ac1       1.0  0.99700  0.00525  0.25000  1.0000
  Ac  Ac2       1.0  0.49800  0.50500  0.25000  1.0000
  Ac  Ac3       1.0  0.50200  0.49500  0.75000  1.0000
  Ac  Ac4       1.0  0.00264  0.99400  0.75000  1.0000
  Ga  Ga1       1.0  0.50000  0.00036  0.00161  1.0000
  Ga  Ga2       1.0  0.00102  0.50000  0.01440  1.0000
  Ga  Ga3       1.0  0.00102  0.50000  0.48600  1.0000
  Ga  Ga4       1.0  0.50000  0.00036  0.49800  1.0000
  O   O1        1.0  0.75500  0.75800  0.02790  1.0000
  O   O2        1.0  0.74200  0.25600  0.02860  1.0000
  O   O3        1.0  0.44900  0.99700  0.25000  1.0000
  O   O4        1.0  0.74200  0.25600  0.47100  1.0000
  O   O5        1.0  0.75500  0.75800  0.47200  1.0000
  O   O6        1.0  0.24400  0.24300  0.52000  1.0000
  O   O7        1.0  0.25900  0.74300  0.52100  1.0000
  O   O8        1.0  0.54800  0.00230  0.75000  1.0000
  O   O9        1.0  0.95300  0.50300  0.75000  1.0000
  O   O10       1.0  0.25900  0.74300  0.97900  1.0000
  O   O11       1.0  0.24400  0.24300  0.98000  1.0000
