data_image0
_chemical_formula_structural       Ba4K4P4S16
_chemical_formula_sum              "Ba4 K4 P4 S16"
_cell_length_a       11.8077
_cell_length_b       6.72445
_cell_length_c       10.0201
_cell_angle_alpha    90
_cell_angle_beta     90
_cell_angle_gamma    90

_space_group_name_H-M_alt    "P 1"
_space_group_IT_number       1

loop_
  _space_group_symop_operation_xyz
  'x, y, z'

loop_
  _atom_site_type_symbol
  _atom_site_label
  _atom_site_symmetry_multiplicity
  _atom_site_fract_x
  _atom_site_fract_y
  _atom_site_fract_z
  _atom_site_occupancy
  Ba  Ba1       1.0  0.85600  0.75000  0.11300  1.0000
  Ba  Ba2       1.0  0.35600  0.75000  0.38700  1.0000
  Ba  Ba3       1.0  0.64400  0.25000  0.61300  1.0000
  Ba  Ba4       1.0  0.14400  0.25000  0.88700  1.0000
  K   K1        1.0  0.61400  0.25000  0.16700  1.0000
  K   K2        1.0  0.11400  0.25000  0.33300  1.0000
  K   K3        1.0  0.88600  0.75000  0.66700  1.0000
  K   K4        1.0  0.38600  0.75000  0.83300  1.0000
  P   P1        1.0  0.18200  0.75000  0.10300  1.0000
  P   P2        1.0  0.68200  0.75000  0.39700  1.0000
  P   P3        1.0  0.31800  0.25000  0.60300  1.0000
  P   P4        1.0  0.81800  0.25000  0.89700  1.0000
  S   S1        1.0  0.91400  0.25000  0.06870  1.0000
  S   S2        1.0  0.28300  0.50300  0.10700  1.0000
  S   S3        1.0  0.28300  0.99700  0.10700  1.0000
  S   S4        1.0  0.58600  0.75000  0.22500  1.0000
  S   S5        1.0  0.08550  0.75000  0.27500  1.0000
  S   S6        1.0  0.78300  0.50300  0.39300  1.0000
  S   S7        1.0  0.78300  0.99700  0.39300  1.0000
  S   S8        1.0  0.41400  0.25000  0.43100  1.0000
  S   S9        1.0  0.58600  0.75000  0.56900  1.0000
  S   S10       1.0  0.21700  0.00285  0.60700  1.0000
  S   S11       1.0  0.21700  0.49700  0.60700  1.0000
  S   S12       1.0  0.91400  0.25000  0.72500  1.0000
  S   S13       1.0  0.41400  0.25000  0.77500  1.0000
  S   S14       1.0  0.71700  0.00285  0.89300  1.0000
  S   S15       1.0  0.71700  0.49700  0.89300  1.0000
  S   S16       1.0  0.08600  0.75000  0.93100  1.0000
