data_image0
_chemical_formula_structural       Ac4Ni4O11
_chemical_formula_sum              "Ac4 Ni4 O11"
_cell_length_a       5.53124
_cell_length_b       5.51827
_cell_length_c       7.82324
_cell_angle_alpha    89.9659
_cell_angle_beta     89.9786
_cell_angle_gamma    90.8078

_space_group_name_H-M_alt    "P 1"
_space_group_IT_number       1

loop_
  _space_group_symop_operation_xyz
  'x, y, z'

loop_
  _atom_site_type_symbol
  _atom_site_label
  _atom_site_symmetry_multiplicity
  _atom_site_fract_x
  _atom_site_fract_y
  _atom_site_fract_z
  _atom_site_occupancy
  Ac  Ac1       1.0  0.49400  0.50800  0.26000  1.0000
  Ac  Ac2       1.0  0.00680  0.99400  0.26100  1.0000
  Ac  Ac3       1.0  0.49200  0.50500  0.74200  1.0000
  Ac  Ac4       1.0  0.00785  0.99300  0.74300  1.0000
  Ni  Ni1       1.0  0.50500  0.00545  0.50200  1.0000
  Ni  Ni2       1.0  0.99400  0.49500  0.50200  1.0000
  Ni  Ni3       1.0  0.00675  0.50700  0.00000  1.0000
  Ni  Ni4       1.0  0.49300  0.99300  0.00000  1.0000
  O   O1        1.0  0.75400  0.75400  0.01570  1.0000
  O   O2        1.0  0.50700  0.03020  0.24100  1.0000
  O   O3        1.0  0.99200  0.47100  0.24100  1.0000
  O   O4        1.0  0.74700  0.25300  0.48600  1.0000
  O   O5        1.0  0.75200  0.75200  0.49200  1.0000
  O   O6        1.0  0.25200  0.74800  0.50400  1.0000
  O   O7        1.0  0.24800  0.24800  0.51000  1.0000
  O   O8        1.0  0.54800  0.02960  0.76000  1.0000
  O   O9        1.0  0.95200  0.47100  0.76000  1.0000
  O   O10       1.0  0.25500  0.74500  0.98100  1.0000
  O   O11       1.0  0.24600  0.24600  0.99000  1.0000
