data_image0
_chemical_formula_structural       Cs8S16W4
_chemical_formula_sum              "Cs8 S16 W4"
_cell_length_a       10.2877
_cell_length_b       7.34346
_cell_length_c       13.084
_cell_angle_alpha    90
_cell_angle_beta     90
_cell_angle_gamma    90

_space_group_name_H-M_alt    "P 1"
_space_group_IT_number       1

loop_
  _space_group_symop_operation_xyz
  'x, y, z'

loop_
  _atom_site_type_symbol
  _atom_site_label
  _atom_site_symmetry_multiplicity
  _atom_site_fract_x
  _atom_site_fract_y
  _atom_site_fract_z
  _atom_site_occupancy
  Cs  Cs1       1.0  0.84800  0.75000  0.10100  1.0000
  Cs  Cs2       1.0  0.46800  0.25000  0.17300  1.0000
  Cs  Cs3       1.0  0.96800  0.25000  0.32700  1.0000
  Cs  Cs4       1.0  0.34800  0.75000  0.39900  1.0000
  Cs  Cs5       1.0  0.65200  0.25000  0.60100  1.0000
  Cs  Cs6       1.0  0.03220  0.75000  0.67300  1.0000
  Cs  Cs7       1.0  0.53200  0.75000  0.82700  1.0000
  Cs  Cs8       1.0  0.15200  0.25000  0.89900  1.0000
  S   S1        1.0  0.78900  0.25000  0.08680  1.0000
  S   S2        1.0  0.47100  0.75000  0.10200  1.0000
  S   S3        1.0  0.17200  0.50600  0.14900  1.0000
  S   S4        1.0  0.17200  0.99400  0.14900  1.0000
  S   S5        1.0  0.67200  0.50600  0.35100  1.0000
  S   S6        1.0  0.67200  0.99400  0.35100  1.0000
  S   S7        1.0  0.97100  0.75000  0.39800  1.0000
  S   S8        1.0  0.28900  0.25000  0.41300  1.0000
  S   S9        1.0  0.71100  0.75000  0.58700  1.0000
  S   S10       1.0  0.02910  0.25000  0.60200  1.0000
  S   S11       1.0  0.32800  0.00556  0.64900  1.0000
  S   S12       1.0  0.32800  0.49400  0.64900  1.0000
  S   S13       1.0  0.82800  0.00556  0.85100  1.0000
  S   S14       1.0  0.82800  0.49400  0.85100  1.0000
  S   S15       1.0  0.52900  0.25000  0.89800  1.0000
  S   S16       1.0  0.21100  0.75000  0.91300  1.0000
  W   W1        1.0  0.25800  0.75000  0.07820  1.0000
  W   W2        1.0  0.75800  0.75000  0.42200  1.0000
  W   W3        1.0  0.24200  0.25000  0.57800  1.0000
  W   W4        1.0  0.74200  0.25000  0.92200  1.0000
