data_image0
_chemical_formula_structural       Ac4As4O11
_chemical_formula_sum              "Ac4 As4 O11"
_cell_length_a       5.47448
_cell_length_b       6.89453
_cell_length_c       8.82862
_cell_angle_alpha    90
_cell_angle_beta     90
_cell_angle_gamma    90.4012

_space_group_name_H-M_alt    "P 1"
_space_group_IT_number       1

loop_
  _space_group_symop_operation_xyz
  'x, y, z'

loop_
  _atom_site_type_symbol
  _atom_site_label
  _atom_site_symmetry_multiplicity
  _atom_site_fract_x
  _atom_site_fract_y
  _atom_site_fract_z
  _atom_site_occupancy
  Ac  Ac1       1.0  0.97400  0.51000  0.01020  1.0000
  Ac  Ac2       1.0  0.97400  0.51000  0.49000  1.0000
  Ac  Ac3       1.0  0.48700  0.99000  0.50600  1.0000
  Ac  Ac4       1.0  0.48700  0.99000  0.99400  1.0000
  As  As1       1.0  0.51700  0.45600  0.25000  1.0000
  As  As2       1.0  0.99600  0.99900  0.25000  1.0000
  As  As3       1.0  0.03370  0.04570  0.75000  1.0000
  As  As4       1.0  0.48100  0.50200  0.75000  1.0000
  O   O1        1.0  0.61700  0.30500  0.08790  1.0000
  O   O2        1.0  0.89200  0.85500  0.09060  1.0000
  O   O3        1.0  0.31000  0.92100  0.25000  1.0000
  O   O4        1.0  0.89200  0.85500  0.40900  1.0000
  O   O5        1.0  0.61700  0.30500  0.41200  1.0000
  O   O6        1.0  0.38300  0.65100  0.59100  1.0000
  O   O7        1.0  0.11300  0.19900  0.59200  1.0000
  O   O8        1.0  0.70900  0.05660  0.75000  1.0000
  O   O9        1.0  0.80600  0.56700  0.75000  1.0000
  O   O10       1.0  0.11300  0.19900  0.90800  1.0000
  O   O11       1.0  0.38300  0.65100  0.90900  1.0000
