data_image0
_chemical_formula_structural       Fe5N10Sr10
_chemical_formula_sum              "Fe5 N10 Sr10"
_cell_length_a       6.49856
_cell_length_b       8.62154
_cell_length_c       8.84295
_cell_angle_alpha    90.273
_cell_angle_beta     109.468
_cell_angle_gamma    102.324

_space_group_name_H-M_alt    "P 1"
_space_group_IT_number       1

loop_
  _space_group_symop_operation_xyz
  'x, y, z'

loop_
  _atom_site_type_symbol
  _atom_site_label
  _atom_site_symmetry_multiplicity
  _atom_site_fract_x
  _atom_site_fract_y
  _atom_site_fract_z
  _atom_site_occupancy
  Fe  Fe1       1.0  0.58700  0.89300  0.02250  1.0000
  Fe  Fe2       1.0  0.10100  0.53000  0.40700  1.0000
  Fe  Fe3       1.0  0.50000  0.00000  0.50000  1.0000
  Fe  Fe4       1.0  0.89900  0.47000  0.59300  1.0000
  Fe  Fe5       1.0  0.41300  0.10700  0.97800  1.0000
  N   N1        1.0  0.70900  0.10700  0.04260  1.0000
  N   N2        1.0  0.68000  0.71200  0.04600  1.0000
  N   N3        1.0  0.19800  0.55600  0.23800  1.0000
  N   N4        1.0  0.79900  0.44000  0.36800  1.0000
  N   N5        1.0  0.23700  0.06920  0.43000  1.0000
  N   N6        1.0  0.76300  0.93100  0.57000  1.0000
  N   N7        1.0  0.20100  0.56000  0.63200  1.0000
  N   N8        1.0  0.80200  0.44400  0.76200  1.0000
  N   N9        1.0  0.32000  0.28800  0.95400  1.0000
  N   N10       1.0  0.29100  0.89300  0.95700  1.0000
  Sr  Sr1       1.0  0.76800  0.43400  0.06370  1.0000
  Sr  Sr2       1.0  0.10900  0.85000  0.18000  1.0000
  Sr  Sr3       1.0  0.36700  0.29700  0.26600  1.0000
  Sr  Sr4       1.0  0.61800  0.69700  0.33300  1.0000
  Sr  Sr5       1.0  0.85500  0.13600  0.35700  1.0000
  Sr  Sr6       1.0  0.14500  0.86400  0.64300  1.0000
  Sr  Sr7       1.0  0.38200  0.30300  0.66700  1.0000
  Sr  Sr8       1.0  0.63300  0.70300  0.73400  1.0000
  Sr  Sr9       1.0  0.89100  0.15000  0.82000  1.0000
  Sr  Sr10      1.0  0.23200  0.56600  0.93600  1.0000
