data_image0
_chemical_formula_structural       Ge4Na12Te12
_chemical_formula_sum              "Ge4 Na12 Te12"
_cell_length_a       8.92198
_cell_length_b       12.9704
_cell_length_c       8.98553
_cell_angle_alpha    90
_cell_angle_beta     120.064
_cell_angle_gamma    90

_space_group_name_H-M_alt    "P 1"
_space_group_IT_number       1

loop_
  _space_group_symop_operation_xyz
  'x, y, z'

loop_
  _atom_site_type_symbol
  _atom_site_label
  _atom_site_symmetry_multiplicity
  _atom_site_fract_x
  _atom_site_fract_y
  _atom_site_fract_z
  _atom_site_occupancy
  Ge  Ge1       1.0  0.65300  0.49100  0.11900  1.0000
  Ge  Ge2       1.0  0.34700  0.99100  0.38100  1.0000
  Ge  Ge3       1.0  0.65300  0.00933  0.61900  1.0000
  Ge  Ge4       1.0  0.34700  0.50900  0.88100  1.0000
  Na  Na1       1.0  0.99600  0.15200  0.01670  1.0000
  Na  Na2       1.0  0.22900  0.56200  0.19800  1.0000
  Na  Na3       1.0  0.53500  0.77500  0.23900  1.0000
  Na  Na4       1.0  0.46500  0.27500  0.26100  1.0000
  Na  Na5       1.0  0.77100  0.06250  0.30200  1.0000
  Na  Na6       1.0  0.00430  0.65200  0.48300  1.0000
  Na  Na7       1.0  0.99600  0.34800  0.51700  1.0000
  Na  Na8       1.0  0.22900  0.93800  0.69800  1.0000
  Na  Na9       1.0  0.53500  0.72500  0.73900  1.0000
  Na  Na10      1.0  0.46500  0.22500  0.76100  1.0000
  Na  Na11      1.0  0.77100  0.43800  0.80200  1.0000
  Na  Na12      1.0  0.00430  0.84800  0.98300  1.0000
  Te  Te1       1.0  0.84100  0.62700  0.07210  1.0000
  Te  Te2       1.0  0.34800  0.02910  0.09680  1.0000
  Te  Te3       1.0  0.75500  0.30200  0.12000  1.0000
  Te  Te4       1.0  0.24500  0.80200  0.38000  1.0000
  Te  Te5       1.0  0.65200  0.52900  0.40300  1.0000
  Te  Te6       1.0  0.15900  0.12700  0.42800  1.0000
  Te  Te7       1.0  0.84100  0.87300  0.57200  1.0000
  Te  Te8       1.0  0.34800  0.47100  0.59700  1.0000
  Te  Te9       1.0  0.75500  0.19800  0.62000  1.0000
  Te  Te10      1.0  0.24500  0.69800  0.88000  1.0000
  Te  Te11      1.0  0.65200  0.97100  0.90300  1.0000
  Te  Te12      1.0  0.15900  0.37300  0.92800  1.0000
