data_image0
_chemical_formula_structural       Cs12Fe4Se12
_chemical_formula_sum              "Cs12 Fe4 Se12"
_cell_length_a       7.7069
_cell_length_b       10.7347
_cell_length_c       14.0182
_cell_angle_alpha    90
_cell_angle_beta     90
_cell_angle_gamma    111.037

_space_group_name_H-M_alt    "P 1"
_space_group_IT_number       1

loop_
  _space_group_symop_operation_xyz
  'x, y, z'

loop_
  _atom_site_type_symbol
  _atom_site_label
  _atom_site_symmetry_multiplicity
  _atom_site_fract_x
  _atom_site_fract_y
  _atom_site_fract_z
  _atom_site_occupancy
  Cs  Cs1       1.0  0.82900  0.35200  0.12300  1.0000
  Cs  Cs2       1.0  0.47800  0.64800  0.12300  1.0000
  Cs  Cs3       1.0  0.37500  0.00000  0.19000  1.0000
  Cs  Cs4       1.0  0.87500  0.00000  0.31000  1.0000
  Cs  Cs5       1.0  0.32900  0.35200  0.37700  1.0000
  Cs  Cs6       1.0  0.97800  0.64800  0.37700  1.0000
  Cs  Cs7       1.0  0.02240  0.35200  0.62300  1.0000
  Cs  Cs8       1.0  0.67100  0.64800  0.62300  1.0000
  Cs  Cs9       1.0  0.12500  0.00000  0.69000  1.0000
  Cs  Cs10      1.0  0.62500  0.00000  0.81000  1.0000
  Cs  Cs11      1.0  0.52200  0.35200  0.87700  1.0000
  Cs  Cs12      1.0  0.17100  0.64800  0.87700  1.0000
  Fe  Fe1       1.0  0.07350  0.14700  0.00000  1.0000
  Fe  Fe2       1.0  0.92700  0.85300  0.00000  1.0000
  Fe  Fe3       1.0  0.57300  0.14700  0.50000  1.0000
  Fe  Fe4       1.0  0.42700  0.85300  0.50000  1.0000
  Se  Se1       1.0  0.77700  0.00000  0.05830  1.0000
  Se  Se2       1.0  0.26900  0.28400  0.12100  1.0000
  Se  Se3       1.0  0.98500  0.71600  0.12100  1.0000
  Se  Se4       1.0  0.76900  0.28400  0.37900  1.0000
  Se  Se5       1.0  0.48500  0.71600  0.37900  1.0000
  Se  Se6       1.0  0.27700  0.00000  0.44200  1.0000
  Se  Se7       1.0  0.72300  0.00000  0.55800  1.0000
  Se  Se8       1.0  0.51500  0.28400  0.62100  1.0000
  Se  Se9       1.0  0.23100  0.71600  0.62100  1.0000
  Se  Se10      1.0  0.01500  0.28400  0.87900  1.0000
  Se  Se11      1.0  0.73100  0.71600  0.87900  1.0000
  Se  Se12      1.0  0.22300  0.00000  0.94200  1.0000
