data_image0
_chemical_formula_structural       Cs6F18Fe4
_chemical_formula_sum              "Cs6 F18 Fe4"
_cell_length_a       6.11209
_cell_length_b       6.11209
_cell_length_c       14.0487
_cell_angle_alpha    90
_cell_angle_beta     90
_cell_angle_gamma    120.001

_space_group_name_H-M_alt    "P 1"
_space_group_IT_number       1

loop_
  _space_group_symop_operation_xyz
  'x, y, z'

loop_
  _atom_site_type_symbol
  _atom_site_label
  _atom_site_symmetry_multiplicity
  _atom_site_fract_x
  _atom_site_fract_y
  _atom_site_fract_z
  _atom_site_occupancy
  Cs  Cs1       1.0  0.66700  0.33300  0.07760  1.0000
  Cs  Cs2       1.0  0.33300  0.66700  0.25000  1.0000
  Cs  Cs3       1.0  0.66700  0.33300  0.42200  1.0000
  Cs  Cs4       1.0  0.33300  0.66700  0.57800  1.0000
  Cs  Cs5       1.0  0.66700  0.33300  0.75000  1.0000
  Cs  Cs6       1.0  0.33300  0.66700  0.92200  1.0000
  F   F1        1.0  0.15800  0.84300  0.08680  1.0000
  F   F2        1.0  0.15700  0.31400  0.08680  1.0000
  F   F3        1.0  0.68600  0.84200  0.08680  1.0000
  F   F4        1.0  0.85900  0.14000  0.25000  1.0000
  F   F5        1.0  0.28200  0.14100  0.25000  1.0000
  F   F6        1.0  0.86000  0.71800  0.25000  1.0000
  F   F7        1.0  0.15700  0.31400  0.41300  1.0000
  F   F8        1.0  0.68600  0.84200  0.41300  1.0000
  F   F9        1.0  0.15800  0.84300  0.41300  1.0000
  F   F10       1.0  0.84300  0.15800  0.58700  1.0000
  F   F11       1.0  0.31400  0.15700  0.58700  1.0000
  F   F12       1.0  0.84200  0.68600  0.58700  1.0000
  F   F13       1.0  0.14100  0.28200  0.75000  1.0000
  F   F14       1.0  0.14000  0.85900  0.75000  1.0000
  F   F15       1.0  0.71800  0.86000  0.75000  1.0000
  F   F16       1.0  0.31400  0.15700  0.91300  1.0000
  F   F17       1.0  0.84200  0.68600  0.91300  1.0000
  F   F18       1.0  0.84300  0.15800  0.91300  1.0000
  Fe  Fe1       1.0  0.00000  0.00000  0.14600  1.0000
  Fe  Fe2       1.0  0.00000  0.00000  0.35400  1.0000
  Fe  Fe3       1.0  0.00000  0.00000  0.64600  1.0000
  Fe  Fe4       1.0  0.00000  0.00000  0.85400  1.0000
