data_image0
_chemical_formula_structural       Al4Na14Sb10
_chemical_formula_sum              "Al4 Na14 Sb10"
_cell_length_a       7.70031
_cell_length_b       8.16925
_cell_length_c       13.5335
_cell_angle_alpha    90
_cell_angle_beta     90
_cell_angle_gamma    118.009

_space_group_name_H-M_alt    "P 1"
_space_group_IT_number       1

loop_
  _space_group_symop_operation_xyz
  'x, y, z'

loop_
  _atom_site_type_symbol
  _atom_site_label
  _atom_site_symmetry_multiplicity
  _atom_site_fract_x
  _atom_site_fract_y
  _atom_site_fract_z
  _atom_site_occupancy
  Al  Al1       1.0  0.41300  0.83900  0.08870  1.0000
  Al  Al2       1.0  0.41300  0.83900  0.41100  1.0000
  Al  Al3       1.0  0.58700  0.16100  0.58900  1.0000
  Al  Al4       1.0  0.58700  0.16100  0.91100  1.0000
  Na  Na1       1.0  0.89200  0.58400  0.07540  1.0000
  Na  Na2       1.0  0.19000  0.11600  0.07740  1.0000
  Na  Na3       1.0  0.56100  0.26100  0.25000  1.0000
  Na  Na4       1.0  0.09790  0.40400  0.25000  1.0000
  Na  Na5       1.0  0.77200  0.85600  0.25000  1.0000
  Na  Na6       1.0  0.19000  0.11600  0.42300  1.0000
  Na  Na7       1.0  0.89200  0.58400  0.42500  1.0000
  Na  Na8       1.0  0.10800  0.41600  0.57500  1.0000
  Na  Na9       1.0  0.81000  0.88400  0.57700  1.0000
  Na  Na10      1.0  0.22800  0.14400  0.75000  1.0000
  Na  Na11      1.0  0.90200  0.59600  0.75000  1.0000
  Na  Na12      1.0  0.43900  0.73900  0.75000  1.0000
  Na  Na13      1.0  0.81000  0.88400  0.92300  1.0000
  Na  Na14      1.0  0.10800  0.41600  0.92500  1.0000
  Sb  Sb1       1.0  0.77900  0.15200  0.08020  1.0000
  Sb  Sb2       1.0  0.47100  0.53500  0.10300  1.0000
  Sb  Sb3       1.0  0.19500  0.83800  0.25000  1.0000
  Sb  Sb4       1.0  0.47100  0.53500  0.39700  1.0000
  Sb  Sb5       1.0  0.77900  0.15200  0.42000  1.0000
  Sb  Sb6       1.0  0.22100  0.84800  0.58000  1.0000
  Sb  Sb7       1.0  0.52900  0.46500  0.60300  1.0000
  Sb  Sb8       1.0  0.80500  0.16200  0.75000  1.0000
  Sb  Sb9       1.0  0.52900  0.46500  0.89700  1.0000
  Sb  Sb10      1.0  0.22100  0.84800  0.92000  1.0000
