data_image0
_chemical_formula_structural       As8O16Zn4
_chemical_formula_sum              "As8 O16 Zn4"
_cell_length_a       4.51711
_cell_length_b       4.98192
_cell_length_c       17.4713
_cell_angle_alpha    90
_cell_angle_beta     90.9172
_cell_angle_gamma    90

_space_group_name_H-M_alt    "P 1"
_space_group_IT_number       1

loop_
  _space_group_symop_operation_xyz
  'x, y, z'

loop_
  _atom_site_type_symbol
  _atom_site_label
  _atom_site_symmetry_multiplicity
  _atom_site_fract_x
  _atom_site_fract_y
  _atom_site_fract_z
  _atom_site_occupancy
  As  As1       1.0  0.50900  0.23100  0.08760  1.0000
  As  As2       1.0  0.00689  0.78000  0.09020  1.0000
  As  As3       1.0  0.99300  0.28000  0.41000  1.0000
  As  As4       1.0  0.49100  0.73100  0.41200  1.0000
  As  As5       1.0  0.50900  0.26900  0.58800  1.0000
  As  As6       1.0  0.00689  0.72000  0.59000  1.0000
  As  As7       1.0  0.99300  0.22000  0.91000  1.0000
  As  As8       1.0  0.49100  0.76900  0.91200  1.0000
  O   O1        1.0  0.90100  0.13700  0.08070  1.0000
  O   O2        1.0  0.39900  0.87500  0.08420  1.0000
  O   O3        1.0  0.48600  0.26800  0.18900  1.0000
  O   O4        1.0  0.99700  0.76100  0.19200  1.0000
  O   O5        1.0  0.00320  0.26100  0.30800  1.0000
  O   O6        1.0  0.51400  0.76800  0.31100  1.0000
  O   O7        1.0  0.60100  0.37500  0.41600  1.0000
  O   O8        1.0  0.09930  0.63700  0.41900  1.0000
  O   O9        1.0  0.90100  0.36300  0.58100  1.0000
  O   O10       1.0  0.39900  0.62500  0.58400  1.0000
  O   O11       1.0  0.48600  0.23200  0.68900  1.0000
  O   O12       1.0  0.99700  0.73900  0.69200  1.0000
  O   O13       1.0  0.00320  0.23900  0.80800  1.0000
  O   O14       1.0  0.51400  0.73200  0.81100  1.0000
  O   O15       1.0  0.60100  0.12500  0.91600  1.0000
  O   O16       1.0  0.09930  0.86300  0.91900  1.0000
  Zn  Zn1       1.0  0.74500  0.51100  0.24900  1.0000
  Zn  Zn2       1.0  0.25500  0.01080  0.25100  1.0000
  Zn  Zn3       1.0  0.74500  0.98900  0.74900  1.0000
  Zn  Zn4       1.0  0.25500  0.48900  0.75100  1.0000
