data_image0
_chemical_formula_structural       B4K4Li8O12
_chemical_formula_sum              "B4 K4 Li8 O12"
_cell_length_a       6.38642
_cell_length_b       6.44182
_cell_length_c       7.88982
_cell_angle_alpha    90
_cell_angle_beta     90
_cell_angle_gamma    90

_space_group_name_H-M_alt    "P 1"
_space_group_IT_number       1

loop_
  _space_group_symop_operation_xyz
  'x, y, z'

loop_
  _atom_site_type_symbol
  _atom_site_label
  _atom_site_symmetry_multiplicity
  _atom_site_fract_x
  _atom_site_fract_y
  _atom_site_fract_z
  _atom_site_occupancy
  B   B1        1.0  0.75000  0.83200  0.15600  1.0000
  B   B2        1.0  0.25000  0.33200  0.34400  1.0000
  B   B3        1.0  0.75000  0.66800  0.65600  1.0000
  B   B4        1.0  0.25000  0.16800  0.84400  1.0000
  K   K1        1.0  0.25000  0.60200  0.00802  1.0000
  K   K2        1.0  0.75000  0.10200  0.49200  1.0000
  K   K3        1.0  0.25000  0.89800  0.50800  1.0000
  K   K4        1.0  0.75000  0.39800  0.99200  1.0000
  Li  Li1       1.0  0.04060  0.03670  0.13900  1.0000
  Li  Li2       1.0  0.45900  0.03670  0.13900  1.0000
  Li  Li3       1.0  0.54100  0.53700  0.36100  1.0000
  Li  Li4       1.0  0.95900  0.53700  0.36100  1.0000
  Li  Li5       1.0  0.04060  0.46300  0.63900  1.0000
  Li  Li6       1.0  0.45900  0.46300  0.63900  1.0000
  Li  Li7       1.0  0.54100  0.96300  0.86100  1.0000
  Li  Li8       1.0  0.95900  0.96300  0.86100  1.0000
  O   O1        1.0  0.75000  0.99600  0.03800  1.0000
  O   O2        1.0  0.55900  0.76100  0.21300  1.0000
  O   O3        1.0  0.94100  0.76100  0.21300  1.0000
  O   O4        1.0  0.05860  0.26100  0.28700  1.0000
  O   O5        1.0  0.44100  0.26100  0.28700  1.0000
  O   O6        1.0  0.25000  0.49600  0.46200  1.0000
  O   O7        1.0  0.75000  0.50400  0.53800  1.0000
  O   O8        1.0  0.55900  0.73900  0.71300  1.0000
  O   O9        1.0  0.94100  0.73900  0.71300  1.0000
  O   O10       1.0  0.05860  0.23900  0.78700  1.0000
  O   O11       1.0  0.44100  0.23900  0.78700  1.0000
  O   O12       1.0  0.25000  0.00366  0.96200  1.0000
