data_image0
_chemical_formula_structural       Cr4Cs6I18
_chemical_formula_sum              "Cr4 Cs6 I18"
_cell_length_a       10.7988
_cell_length_b       10.7988
_cell_length_c       10.7988
_cell_angle_alpha    81.1421
_cell_angle_beta     98.8579
_cell_angle_gamma    98.8579

_space_group_name_H-M_alt    "P 1"
_space_group_IT_number       1

loop_
  _space_group_symop_operation_xyz
  'x, y, z'

loop_
  _atom_site_type_symbol
  _atom_site_label
  _atom_site_symmetry_multiplicity
  _atom_site_fract_x
  _atom_site_fract_y
  _atom_site_fract_z
  _atom_site_occupancy
  Cr  Cr1       1.0  0.83400  0.16600  0.16600  1.0000
  Cr  Cr2       1.0  0.66600  0.33400  0.33400  1.0000
  Cr  Cr3       1.0  0.33400  0.66600  0.66600  1.0000
  Cr  Cr4       1.0  0.16600  0.83400  0.83400  1.0000
  Cs  Cs1       1.0  0.58800  0.75000  0.08750  1.0000
  Cs  Cs2       1.0  0.08750  0.58800  0.25000  1.0000
  Cs  Cs3       1.0  0.25000  0.08750  0.41200  1.0000
  Cs  Cs4       1.0  0.75000  0.91200  0.58800  1.0000
  Cs  Cs5       1.0  0.91200  0.41200  0.75000  1.0000
  Cs  Cs6       1.0  0.41200  0.25000  0.91200  1.0000
  I   I1        1.0  0.26100  0.90200  0.06400  1.0000
  I   I2        1.0  0.75000  0.40300  0.09720  1.0000
  I   I3        1.0  0.06400  0.26100  0.09810  1.0000
  I   I4        1.0  0.43600  0.40200  0.23900  1.0000
  I   I5        1.0  0.59700  0.09720  0.25000  1.0000
  I   I6        1.0  0.90200  0.93600  0.26100  1.0000
  I   I7        1.0  0.76100  0.56400  0.40200  1.0000
  I   I8        1.0  0.90300  0.25000  0.40300  1.0000
  I   I9        1.0  0.40200  0.76100  0.43600  1.0000
  I   I10       1.0  0.59800  0.23900  0.56400  1.0000
  I   I11       1.0  0.09720  0.75000  0.59700  1.0000
  I   I12       1.0  0.23900  0.43600  0.59800  1.0000
  I   I13       1.0  0.09810  0.06400  0.73900  1.0000
  I   I14       1.0  0.40300  0.90300  0.75000  1.0000
  I   I15       1.0  0.56400  0.59800  0.76100  1.0000
  I   I16       1.0  0.93600  0.73900  0.90200  1.0000
  I   I17       1.0  0.25000  0.59700  0.90300  1.0000
  I   I18       1.0  0.73900  0.09810  0.93600  1.0000
