data_image0
_chemical_formula_structural       Ce4Fe4O11
_chemical_formula_sum              "Ce4 Fe4 O11"
_cell_length_a       5.53001
_cell_length_b       5.66307
_cell_length_c       7.82113
_cell_angle_alpha    90
_cell_angle_beta     90
_cell_angle_gamma    89.8564

_space_group_name_H-M_alt    "P 1"
_space_group_IT_number       1

loop_
  _space_group_symop_operation_xyz
  'x, y, z'

loop_
  _atom_site_type_symbol
  _atom_site_label
  _atom_site_symmetry_multiplicity
  _atom_site_fract_x
  _atom_site_fract_y
  _atom_site_fract_z
  _atom_site_occupancy
  Ce  Ce1       1.0  0.98500  0.05070  0.25000  1.0000
  Ce  Ce2       1.0  0.50700  0.55700  0.25000  1.0000
  Ce  Ce3       1.0  0.48300  0.45000  0.75000  1.0000
  Ce  Ce4       1.0  0.01520  0.95300  0.75000  1.0000
  Fe  Fe1       1.0  0.50200  0.00036  0.00247  1.0000
  Fe  Fe2       1.0  0.50200  0.00036  0.49800  1.0000
  Fe  Fe3       1.0  0.99400  0.50000  0.50500  1.0000
  Fe  Fe4       1.0  0.99400  0.50000  0.99500  1.0000
  O   O1        1.0  0.79600  0.78400  0.05630  1.0000
  O   O2        1.0  0.72200  0.29600  0.05720  1.0000
  O   O3        1.0  0.41100  0.98300  0.25000  1.0000
  O   O4        1.0  0.72200  0.29600  0.44300  1.0000
  O   O5        1.0  0.79600  0.78400  0.44400  1.0000
  O   O6        1.0  0.29000  0.69900  0.53500  1.0000
  O   O7        1.0  0.20700  0.21100  0.53900  1.0000
  O   O8        1.0  0.58600  0.01980  0.75000  1.0000
  O   O9        1.0  0.90900  0.52600  0.75000  1.0000
  O   O10       1.0  0.20700  0.21100  0.96100  1.0000
  O   O11       1.0  0.29000  0.69900  0.96500  1.0000
