data_image0
_chemical_formula_structural       O14PtSi2Sr8
_chemical_formula_sum              "O14 Pt1 Si2 Sr8"
_cell_length_a       5.70855
_cell_length_b       7.20153
_cell_length_c       9.86693
_cell_angle_alpha    109.443
_cell_angle_beta     106.815
_cell_angle_gamma    90

_space_group_name_H-M_alt    "P 1"
_space_group_IT_number       1

loop_
  _space_group_symop_operation_xyz
  'x, y, z'

loop_
  _atom_site_type_symbol
  _atom_site_label
  _atom_site_symmetry_multiplicity
  _atom_site_fract_x
  _atom_site_fract_y
  _atom_site_fract_z
  _atom_site_occupancy
  O   O1        1.0  0.03240  0.75700  0.07720  1.0000
  O   O2        1.0  0.83800  0.14000  0.16100  1.0000
  O   O3        1.0  0.31800  0.14400  0.16200  1.0000
  O   O4        1.0  0.56800  0.53800  0.17400  1.0000
  O   O5        1.0  0.63100  0.92900  0.34700  1.0000
  O   O6        1.0  0.99200  0.70400  0.39500  1.0000
  O   O7        1.0  0.58000  0.65100  0.46400  1.0000
  O   O8        1.0  0.11600  0.34900  0.53600  1.0000
  O   O9        1.0  0.59700  0.29600  0.60500  1.0000
  O   O10       1.0  0.28400  0.07130  0.65300  1.0000
  O   O11       1.0  0.39400  0.46200  0.82600  1.0000
  O   O12       1.0  0.15700  0.85600  0.83800  1.0000
  O   O13       1.0  0.67700  0.86000  0.83900  1.0000
  O   O14       1.0  0.95500  0.24300  0.92300  1.0000
  Pt  Pt1       1.0  0.99700  0.00000  0.00000  1.0000
  Si  Si1       1.0  0.69100  0.70500  0.34300  1.0000
  Si  Si2       1.0  0.34800  0.29500  0.65700  1.0000
  Sr  Sr1       1.0  0.52000  0.79900  0.04510  1.0000
  Sr  Sr2       1.0  0.10800  0.46000  0.18500  1.0000
  Sr  Sr3       1.0  0.16600  0.99600  0.33500  1.0000
  Sr  Sr4       1.0  0.68600  0.29000  0.37100  1.0000
  Sr  Sr5       1.0  0.31500  0.71000  0.62900  1.0000
  Sr  Sr6       1.0  0.83200  0.00414  0.66500  1.0000
  Sr  Sr7       1.0  0.92300  0.54000  0.81500  1.0000
  Sr  Sr8       1.0  0.47500  0.20100  0.95500  1.0000
