data_image0
_chemical_formula_structural       C4Cl4N4O8S8
_chemical_formula_sum              "C4 Cl4 N4 O8 S8"
_cell_length_a       13.72
_cell_length_b       7.21052
_cell_length_c       5.13558
_cell_angle_alpha    90
_cell_angle_beta     90
_cell_angle_gamma    90

_space_group_name_H-M_alt    "P 1"
_space_group_IT_number       1

loop_
  _space_group_symop_operation_xyz
  'x, y, z'

loop_
  _atom_site_type_symbol
  _atom_site_label
  _atom_site_symmetry_multiplicity
  _atom_site_fract_x
  _atom_site_fract_y
  _atom_site_fract_z
  _atom_site_occupancy
  C   C1        1.0  0.59500  0.07260  0.06560  1.0000
  C   C2        1.0  0.09500  0.92700  0.06560  1.0000
  C   C3        1.0  0.90500  0.07260  0.56600  1.0000
  C   C4        1.0  0.40500  0.92700  0.56600  1.0000
  Cl  Cl1       1.0  0.14600  0.14900  0.01450  1.0000
  Cl  Cl2       1.0  0.64600  0.85100  0.01450  1.0000
  Cl  Cl3       1.0  0.35400  0.14900  0.51400  1.0000
  Cl  Cl4       1.0  0.85400  0.85100  0.51400  1.0000
  N   N1        1.0  0.59400  0.36600  0.35500  1.0000
  N   N2        1.0  0.09440  0.63400  0.35500  1.0000
  N   N3        1.0  0.90600  0.36600  0.85500  1.0000
  N   N4        1.0  0.40600  0.63400  0.85500  1.0000
  O   O1        1.0  0.81500  0.47500  0.27000  1.0000
  O   O2        1.0  0.31500  0.52500  0.27000  1.0000
  O   O3        1.0  0.96300  0.14400  0.42200  1.0000
  O   O4        1.0  0.46300  0.85600  0.42200  1.0000
  O   O5        1.0  0.68500  0.47500  0.77000  1.0000
  O   O6        1.0  0.18500  0.52500  0.77000  1.0000
  O   O7        1.0  0.53700  0.14400  0.92200  1.0000
  O   O8        1.0  0.03680  0.85600  0.92200  1.0000
  S   S1        1.0  0.38500  0.48200  0.06020  1.0000
  S   S2        1.0  0.88500  0.51800  0.06020  1.0000
  S   S3        1.0  0.64800  0.16100  0.35100  1.0000
  S   S4        1.0  0.14800  0.83900  0.35100  1.0000
  S   S5        1.0  0.11500  0.48200  0.56000  1.0000
  S   S6        1.0  0.61500  0.51800  0.56000  1.0000
  S   S7        1.0  0.85200  0.16100  0.85100  1.0000
  S   S8        1.0  0.35200  0.83900  0.85100  1.0000
