data_image0
_chemical_formula_structural       Ce4Ni4O11
_chemical_formula_sum              "Ce4 Ni4 O11"
_cell_length_a       5.49146
_cell_length_b       5.43582
_cell_length_c       7.66341
_cell_angle_alpha    90
_cell_angle_beta     90
_cell_angle_gamma    89.9466

_space_group_name_H-M_alt    "P 1"
_space_group_IT_number       1

loop_
  _space_group_symop_operation_xyz
  'x, y, z'

loop_
  _atom_site_type_symbol
  _atom_site_label
  _atom_site_symmetry_multiplicity
  _atom_site_fract_x
  _atom_site_fract_y
  _atom_site_fract_z
  _atom_site_occupancy
  Ce  Ce1       1.0  0.99800  0.02090  0.25000  1.0000
  Ce  Ce2       1.0  0.50700  0.52700  0.25000  1.0000
  Ce  Ce3       1.0  0.48400  0.47600  0.75000  1.0000
  Ce  Ce4       1.0  0.00470  0.97600  0.75000  1.0000
  Ni  Ni1       1.0  0.50600  0.00018  0.00340  1.0000
  Ni  Ni2       1.0  0.50600  0.00018  0.49700  1.0000
  Ni  Ni3       1.0  0.99600  0.49900  0.50900  1.0000
  Ni  Ni4       1.0  0.99600  0.49900  0.99100  1.0000
  O   O1        1.0  0.74800  0.27700  0.05300  1.0000
  O   O2        1.0  0.78300  0.75600  0.05400  1.0000
  O   O3        1.0  0.43100  0.99300  0.25000  1.0000
  O   O4        1.0  0.78300  0.75600  0.44600  1.0000
  O   O5        1.0  0.74800  0.27700  0.44700  1.0000
  O   O6        1.0  0.26200  0.72000  0.52500  1.0000
  O   O7        1.0  0.22300  0.23800  0.52600  1.0000
  O   O8        1.0  0.57000  0.01020  0.75000  1.0000
  O   O9        1.0  0.90800  0.52000  0.75000  1.0000
  O   O10       1.0  0.22300  0.23800  0.97400  1.0000
  O   O11       1.0  0.26200  0.72000  0.97500  1.0000
