data_image0
_chemical_formula_structural       Ag8F20
_chemical_formula_sum              "Ag8 F20"
_cell_length_a       4.60484
_cell_length_b       10.6996
_cell_length_c       7.21472
_cell_angle_alpha    89.8087
_cell_angle_beta     103.597
_cell_angle_gamma    90.1324

_space_group_name_H-M_alt    "P 1"
_space_group_IT_number       1

loop_
  _space_group_symop_operation_xyz
  'x, y, z'

loop_
  _atom_site_type_symbol
  _atom_site_label
  _atom_site_symmetry_multiplicity
  _atom_site_fract_x
  _atom_site_fract_y
  _atom_site_fract_z
  _atom_site_occupancy
  Ag  Ag1       1.0  0.50000  0.00000  0.00000  1.0000
  Ag  Ag2       1.0  0.50000  0.50000  0.00000  1.0000
  Ag  Ag3       1.0  0.03810  0.23400  0.20600  1.0000
  Ag  Ag4       1.0  0.93900  0.74600  0.27700  1.0000
  Ag  Ag5       1.0  0.50000  0.00000  0.50000  1.0000
  Ag  Ag6       1.0  0.50000  0.50000  0.50000  1.0000
  Ag  Ag7       1.0  0.06130  0.25400  0.72300  1.0000
  Ag  Ag8       1.0  0.96200  0.76600  0.79400  1.0000
  F   F1        1.0  0.06770  0.86400  0.03640  1.0000
  F   F2        1.0  0.02020  0.38500  0.05210  1.0000
  F   F3        1.0  0.54100  0.66800  0.13200  1.0000
  F   F4        1.0  0.51000  0.14900  0.16200  1.0000
  F   F5        1.0  0.66400  0.91000  0.24400  1.0000
  F   F6        1.0  0.60900  0.41500  0.26600  1.0000
  F   F7        1.0  0.14400  0.57200  0.32200  1.0000
  F   F8        1.0  0.08160  0.07570  0.35700  1.0000
  F   F9        1.0  0.17400  0.32400  0.44900  1.0000
  F   F10       1.0  0.30600  0.82600  0.45100  1.0000
  F   F11       1.0  0.69400  0.17400  0.54900  1.0000
  F   F12       1.0  0.82600  0.67600  0.55100  1.0000
  F   F13       1.0  0.91800  0.92400  0.64300  1.0000
  F   F14       1.0  0.85600  0.42800  0.67800  1.0000
  F   F15       1.0  0.39100  0.58500  0.73400  1.0000
  F   F16       1.0  0.33600  0.09010  0.75600  1.0000
  F   F17       1.0  0.49000  0.85100  0.83800  1.0000
  F   F18       1.0  0.45900  0.33200  0.86800  1.0000
  F   F19       1.0  0.98000  0.61500  0.94800  1.0000
  F   F20       1.0  0.93200  0.13600  0.96400  1.0000
