data_image0
_chemical_formula_structural       CCl18Cs2Lu7
_chemical_formula_sum              "C1 Cl18 Cs2 Lu7"
_cell_length_a       9.95258
_cell_length_b       9.95258
_cell_length_c       10.79
_cell_angle_alpha    117.464
_cell_angle_beta     62.5357
_cell_angle_gamma    120

_space_group_name_H-M_alt    "P 1"
_space_group_IT_number       1

loop_
  _space_group_symop_operation_xyz
  'x, y, z'

loop_
  _atom_site_type_symbol
  _atom_site_label
  _atom_site_symmetry_multiplicity
  _atom_site_fract_x
  _atom_site_fract_y
  _atom_site_fract_z
  _atom_site_occupancy
  C   C1        1.0  0.00000  0.00000  0.00000  1.0000
  Cl  Cl1       1.0  0.28500  0.42100  0.00743  1.0000
  Cl  Cl2       1.0  0.57900  0.87000  0.00743  1.0000
  Cl  Cl3       1.0  0.13000  0.71500  0.00743  1.0000
  Cl  Cl4       1.0  0.94700  0.34300  0.32900  1.0000
  Cl  Cl5       1.0  0.06710  0.05320  0.32900  1.0000
  Cl  Cl6       1.0  0.65700  0.93300  0.32900  1.0000
  Cl  Cl7       1.0  0.52700  0.21800  0.33500  1.0000
  Cl  Cl8       1.0  0.78200  0.64400  0.33500  1.0000
  Cl  Cl9       1.0  0.35600  0.47300  0.33500  1.0000
  Cl  Cl10      1.0  0.64400  0.52700  0.66500  1.0000
  Cl  Cl11      1.0  0.21800  0.35600  0.66500  1.0000
  Cl  Cl12      1.0  0.47300  0.78200  0.66500  1.0000
  Cl  Cl13      1.0  0.34300  0.06710  0.67100  1.0000
  Cl  Cl14      1.0  0.93300  0.94700  0.67100  1.0000
  Cl  Cl15      1.0  0.05320  0.65700  0.67100  1.0000
  Cl  Cl16      1.0  0.87000  0.28500  0.99300  1.0000
  Cl  Cl17      1.0  0.42100  0.13000  0.99300  1.0000
  Cl  Cl18      1.0  0.71500  0.57900  0.99300  1.0000
  Cs  Cs1       1.0  0.22200  0.77800  0.33400  1.0000
  Cs  Cs2       1.0  0.77800  0.22200  0.66600  1.0000
  Lu  Lu1       1.0  0.77600  0.10800  0.15500  1.0000
  Lu  Lu2       1.0  0.89200  0.82300  0.15500  1.0000
  Lu  Lu3       1.0  0.17700  0.22400  0.15500  1.0000
  Lu  Lu4       1.0  0.50000  0.50000  0.50000  1.0000
  Lu  Lu5       1.0  0.82300  0.77600  0.84500  1.0000
  Lu  Lu6       1.0  0.10800  0.17700  0.84500  1.0000
  Lu  Lu7       1.0  0.22400  0.89200  0.84500  1.0000
