data_image0
_chemical_formula_structural       Ac4O11Tm4
_chemical_formula_sum              "Ac4 O11 Tm4"
_cell_length_a       5.96256
_cell_length_b       6.08415
_cell_length_c       8.4794
_cell_angle_alpha    90
_cell_angle_beta     90
_cell_angle_gamma    89.8813

_space_group_name_H-M_alt    "P 1"
_space_group_IT_number       1

loop_
  _space_group_symop_operation_xyz
  'x, y, z'

loop_
  _atom_site_type_symbol
  _atom_site_label
  _atom_site_symmetry_multiplicity
  _atom_site_fract_x
  _atom_site_fract_y
  _atom_site_fract_z
  _atom_site_occupancy
  Ac  Ac1       1.0  0.99400  0.02550  0.25000  1.0000
  Ac  Ac2       1.0  0.53000  0.54500  0.25000  1.0000
  Ac  Ac3       1.0  0.48900  0.45800  0.75000  1.0000
  Ac  Ac4       1.0  0.00767  0.95500  0.75000  1.0000
  O   O1        1.0  0.79800  0.80000  0.04940  1.0000
  O   O2        1.0  0.69800  0.30200  0.05190  1.0000
  O   O3        1.0  0.40000  0.95900  0.25000  1.0000
  O   O4        1.0  0.69800  0.30200  0.44800  1.0000
  O   O5        1.0  0.79800  0.80000  0.45100  1.0000
  O   O6        1.0  0.19700  0.20200  0.55400  1.0000
  O   O7        1.0  0.29600  0.70300  0.55800  1.0000
  O   O8        1.0  0.60400  0.04450  0.75000  1.0000
  O   O9        1.0  0.89400  0.54200  0.75000  1.0000
  O   O10       1.0  0.29600  0.70300  0.94200  1.0000
  O   O11       1.0  0.19700  0.20200  0.94600  1.0000
  Tm  Tm1       1.0  0.49800  0.00187  0.50100  1.0000
  Tm  Tm2       1.0  0.00039  0.49800  0.50100  1.0000
  Tm  Tm3       1.0  0.00039  0.49800  0.99900  1.0000
  Tm  Tm4       1.0  0.49800  0.00187  0.99900  1.0000
