data_image0
_chemical_formula_structural       Ac4Cu4O11
_chemical_formula_sum              "Ac4 Cu4 O11"
_cell_length_a       5.56108
_cell_length_b       5.56479
_cell_length_c       7.67269
_cell_angle_alpha    90
_cell_angle_beta     90
_cell_angle_gamma    90.0087

_space_group_name_H-M_alt    "P 1"
_space_group_IT_number       1

loop_
  _space_group_symop_operation_xyz
  'x, y, z'

loop_
  _atom_site_type_symbol
  _atom_site_label
  _atom_site_symmetry_multiplicity
  _atom_site_fract_x
  _atom_site_fract_y
  _atom_site_fract_z
  _atom_site_occupancy
  Ac  Ac1       1.0  0.50000  0.50000  0.25000  1.0000
  Ac  Ac2       1.0  0.00095  0.00000  0.25000  1.0000
  Ac  Ac3       1.0  0.00000  0.00010  0.75000  1.0000
  Ac  Ac4       1.0  0.50000  0.50000  0.75000  1.0000
  Cu  Cu1       1.0  0.00000  0.50000  0.00544  1.0000
  Cu  Cu2       1.0  0.50000  0.00000  0.00676  1.0000
  Cu  Cu3       1.0  0.50000  0.00000  0.49300  1.0000
  Cu  Cu4       1.0  0.00000  0.50000  0.49500  1.0000
  O   O1        1.0  0.25800  0.76000  0.01140  1.0000
  O   O2        1.0  0.26000  0.24100  0.01160  1.0000
  O   O3        1.0  0.74100  0.24000  0.01880  1.0000
  O   O4        1.0  0.73900  0.75900  0.01890  1.0000
  O   O5        1.0  0.00756  0.50000  0.25000  1.0000
  O   O6        1.0  0.73900  0.75900  0.48100  1.0000
  O   O7        1.0  0.74100  0.24000  0.48100  1.0000
  O   O8        1.0  0.26000  0.24100  0.48800  1.0000
  O   O9        1.0  0.25800  0.76000  0.48900  1.0000
  O   O10       1.0  0.99200  0.50000  0.75000  1.0000
  O   O11       1.0  0.50900  0.00000  0.75000  1.0000
