data_image0
_chemical_formula_structural       Ga18Ge4Ni2Sm4
_chemical_formula_sum              "Ga18 Ge4 Ni2 Sm4"
_cell_length_a       5.99271
_cell_length_b       5.99271
_cell_length_c       15.0187
_cell_angle_alpha    90
_cell_angle_beta     90
_cell_angle_gamma    90

_space_group_name_H-M_alt    "P 1"
_space_group_IT_number       1

loop_
  _space_group_symop_operation_xyz
  'x, y, z'

loop_
  _atom_site_type_symbol
  _atom_site_label
  _atom_site_symmetry_multiplicity
  _atom_site_fract_x
  _atom_site_fract_y
  _atom_site_fract_z
  _atom_site_occupancy
  Ga  Ga1       1.0  0.01980  0.01980  0.08670  1.0000
  Ga  Ga2       1.0  0.48000  0.01980  0.08670  1.0000
  Ga  Ga3       1.0  0.01980  0.48000  0.08670  1.0000
  Ga  Ga4       1.0  0.48000  0.48000  0.08670  1.0000
  Ga  Ga5       1.0  0.75000  0.75000  0.34500  1.0000
  Ga  Ga6       1.0  0.02860  0.02860  0.41600  1.0000
  Ga  Ga7       1.0  0.47100  0.02860  0.41600  1.0000
  Ga  Ga8       1.0  0.02860  0.47100  0.41600  1.0000
  Ga  Ga9       1.0  0.47100  0.47100  0.41600  1.0000
  Ga  Ga10      1.0  0.52900  0.52900  0.58400  1.0000
  Ga  Ga11      1.0  0.97100  0.52900  0.58400  1.0000
  Ga  Ga12      1.0  0.52900  0.97100  0.58400  1.0000
  Ga  Ga13      1.0  0.97100  0.97100  0.58400  1.0000
  Ga  Ga14      1.0  0.25000  0.25000  0.65500  1.0000
  Ga  Ga15      1.0  0.52000  0.52000  0.91300  1.0000
  Ga  Ga16      1.0  0.98000  0.52000  0.91300  1.0000
  Ga  Ga17      1.0  0.52000  0.98000  0.91300  1.0000
  Ga  Ga18      1.0  0.98000  0.98000  0.91300  1.0000
  Ge  Ge1       1.0  0.75000  0.75000  0.18000  1.0000
  Ge  Ge2       1.0  0.25000  0.25000  0.23400  1.0000
  Ge  Ge3       1.0  0.75000  0.75000  0.76600  1.0000
  Ge  Ge4       1.0  0.25000  0.25000  0.82000  1.0000
  Ni  Ni1       1.0  0.75000  0.25000  0.00000  1.0000
  Ni  Ni2       1.0  0.25000  0.75000  0.00000  1.0000
  Sm  Sm1       1.0  0.75000  0.25000  0.24500  1.0000
  Sm  Sm2       1.0  0.25000  0.75000  0.24500  1.0000
  Sm  Sm3       1.0  0.75000  0.25000  0.75500  1.0000
  Sm  Sm4       1.0  0.25000  0.75000  0.75500  1.0000
