data_image0
_chemical_formula_structural       Ac4Ag4O11
_chemical_formula_sum              "Ac4 Ag4 O11"
_cell_length_a       5.76407
_cell_length_b       6.13479
_cell_length_c       8.13894
_cell_angle_alpha    90
_cell_angle_beta     90
_cell_angle_gamma    89.5428

_space_group_name_H-M_alt    "P 1"
_space_group_IT_number       1

loop_
  _space_group_symop_operation_xyz
  'x, y, z'

loop_
  _atom_site_type_symbol
  _atom_site_label
  _atom_site_symmetry_multiplicity
  _atom_site_fract_x
  _atom_site_fract_y
  _atom_site_fract_z
  _atom_site_occupancy
  Ac  Ac1       1.0  0.97800  0.05960  0.25000  1.0000
  Ac  Ac2       1.0  0.51600  0.57200  0.25000  1.0000
  Ac  Ac3       1.0  0.48900  0.43700  0.75000  1.0000
  Ac  Ac4       1.0  0.01490  0.92900  0.75000  1.0000
  Ag  Ag1       1.0  0.50200  0.99900  0.00106  1.0000
  Ag  Ag2       1.0  0.00366  0.49600  0.01170  1.0000
  Ag  Ag3       1.0  0.00366  0.49600  0.48800  1.0000
  Ag  Ag4       1.0  0.50200  0.99900  0.49900  1.0000
  O   O1        1.0  0.71500  0.31000  0.06210  1.0000
  O   O2        1.0  0.81000  0.78400  0.06710  1.0000
  O   O3        1.0  0.40900  0.98000  0.25000  1.0000
  O   O4        1.0  0.81000  0.78400  0.43300  1.0000
  O   O5        1.0  0.71500  0.31000  0.43800  1.0000
  O   O6        1.0  0.18700  0.20500  0.53700  1.0000
  O   O7        1.0  0.29500  0.68400  0.53700  1.0000
  O   O8        1.0  0.60000  0.03610  0.75000  1.0000
  O   O9        1.0  0.87800  0.55900  0.75000  1.0000
  O   O10       1.0  0.29500  0.68400  0.96300  1.0000
  O   O11       1.0  0.18700  0.20500  0.96300  1.0000
