data_image0
_chemical_formula_structural       Ac4Au4O11
_chemical_formula_sum              "Ac4 Au4 O11"
_cell_length_a       5.79341
_cell_length_b       7.41616
_cell_length_c       7.15933
_cell_angle_alpha    90
_cell_angle_beta     90
_cell_angle_gamma    89.7472

_space_group_name_H-M_alt    "P 1"
_space_group_IT_number       1

loop_
  _space_group_symop_operation_xyz
  'x, y, z'

loop_
  _atom_site_type_symbol
  _atom_site_label
  _atom_site_symmetry_multiplicity
  _atom_site_fract_x
  _atom_site_fract_y
  _atom_site_fract_z
  _atom_site_occupancy
  Ac  Ac1       1.0  0.95700  0.11400  0.25000  1.0000
  Ac  Ac2       1.0  0.54300  0.62300  0.25000  1.0000
  Ac  Ac3       1.0  0.47300  0.39100  0.75000  1.0000
  Ac  Ac4       1.0  0.03120  0.87200  0.75000  1.0000
  Au  Au1       1.0  0.00488  0.49700  0.03510  1.0000
  Au  Au2       1.0  0.00488  0.49700  0.46500  1.0000
  Au  Au3       1.0  0.49600  0.00430  0.50100  1.0000
  Au  Au4       1.0  0.49600  0.00430  0.99900  1.0000
  O   O1        1.0  0.79000  0.86100  0.04740  1.0000
  O   O2        1.0  0.70600  0.35600  0.05710  1.0000
  O   O3        1.0  0.35100  0.94000  0.25000  1.0000
  O   O4        1.0  0.70600  0.35600  0.44300  1.0000
  O   O5        1.0  0.79000  0.86100  0.45300  1.0000
  O   O6        1.0  0.29600  0.63600  0.53200  1.0000
  O   O7        1.0  0.20100  0.14400  0.54800  1.0000
  O   O8        1.0  0.64300  0.06740  0.75000  1.0000
  O   O9        1.0  0.88600  0.54300  0.75000  1.0000
  O   O10       1.0  0.20100  0.14400  0.95200  1.0000
  O   O11       1.0  0.29600  0.63600  0.96800  1.0000
