data_image0
_chemical_formula_structural       C4Ni8W16
_chemical_formula_sum              "C4 Ni8 W16"
_cell_length_a       8.01791
_cell_length_b       8.01791
_cell_length_c       8.01791
_cell_angle_alpha    120
_cell_angle_beta     90
_cell_angle_gamma    120

_space_group_name_H-M_alt    "P 1"
_space_group_IT_number       1

loop_
  _space_group_symop_operation_xyz
  'x, y, z'

loop_
  _atom_site_type_symbol
  _atom_site_label
  _atom_site_symmetry_multiplicity
  _atom_site_fract_x
  _atom_site_fract_y
  _atom_site_fract_z
  _atom_site_occupancy
  C   C1        1.0  0.00000  0.50000  0.00000  1.0000
  C   C2        1.0  0.00000  0.00000  0.50000  1.0000
  C   C3        1.0  0.50000  0.00000  0.50000  1.0000
  C   C4        1.0  0.00000  0.50000  0.50000  1.0000
  Ni  Ni1       1.0  0.70800  0.91700  0.12500  1.0000
  Ni  Ni2       1.0  0.29200  0.08320  0.20800  1.0000
  Ni  Ni3       1.0  0.29200  0.41700  0.20800  1.0000
  Ni  Ni4       1.0  0.62500  0.41700  0.20800  1.0000
  Ni  Ni5       1.0  0.37500  0.58300  0.79200  1.0000
  Ni  Ni6       1.0  0.70800  0.58300  0.79200  1.0000
  Ni  Ni7       1.0  0.70800  0.91700  0.79200  1.0000
  Ni  Ni8       1.0  0.29200  0.08320  0.87500  1.0000
  W   W1        1.0  0.00000  0.00000  0.00000  1.0000
  W   W2        1.0  0.50000  0.00000  0.00000  1.0000
  W   W3        1.0  0.50000  0.50000  0.00000  1.0000
  W   W4        1.0  0.93400  0.36800  0.18400  1.0000
  W   W5        1.0  0.93400  0.75000  0.18400  1.0000
  W   W6        1.0  0.31600  0.75000  0.18400  1.0000
  W   W7        1.0  0.06600  0.25000  0.43400  1.0000
  W   W8        1.0  0.68400  0.25000  0.43400  1.0000
  W   W9        1.0  0.68400  0.86800  0.43400  1.0000
  W   W10       1.0  0.50000  0.50000  0.50000  1.0000
  W   W11       1.0  0.31600  0.13200  0.56600  1.0000
  W   W12       1.0  0.31600  0.75000  0.56600  1.0000
  W   W13       1.0  0.93400  0.75000  0.56600  1.0000
  W   W14       1.0  0.06600  0.25000  0.81600  1.0000
  W   W15       1.0  0.06600  0.63200  0.81600  1.0000
  W   W16       1.0  0.68400  0.25000  0.81600  1.0000
