data_image0
_chemical_formula_structural       Ac4Mn4O11
_chemical_formula_sum              "Ac4 Mn4 O11"
_cell_length_a       5.72624
_cell_length_b       5.68206
_cell_length_c       7.97116
_cell_angle_alpha    90
_cell_angle_beta     90
_cell_angle_gamma    89.9667

_space_group_name_H-M_alt    "P 1"
_space_group_IT_number       1

loop_
  _space_group_symop_operation_xyz
  'x, y, z'

loop_
  _atom_site_type_symbol
  _atom_site_label
  _atom_site_symmetry_multiplicity
  _atom_site_fract_x
  _atom_site_fract_y
  _atom_site_fract_z
  _atom_site_occupancy
  Ac  Ac1       1.0  0.00000  0.01290  0.25000  1.0000
  Ac  Ac2       1.0  0.50800  0.51700  0.25000  1.0000
  Ac  Ac3       1.0  0.48700  0.48500  0.75000  1.0000
  Ac  Ac4       1.0  0.00523  0.98300  0.75000  1.0000
  Mn  Mn1       1.0  0.50500  0.00027  0.00425  1.0000
  Mn  Mn2       1.0  0.50500  0.00027  0.49600  1.0000
  Mn  Mn3       1.0  0.99800  0.49900  0.50500  1.0000
  Mn  Mn4       1.0  0.99800  0.49900  0.99500  1.0000
  O   O1        1.0  0.75400  0.27200  0.05390  1.0000
  O   O2        1.0  0.77900  0.75100  0.05470  1.0000
  O   O3        1.0  0.43100  0.99100  0.25000  1.0000
  O   O4        1.0  0.77900  0.75100  0.44500  1.0000
  O   O5        1.0  0.75400  0.27200  0.44600  1.0000
  O   O6        1.0  0.25600  0.72500  0.52600  1.0000
  O   O7        1.0  0.22800  0.24500  0.52700  1.0000
  O   O8        1.0  0.57200  0.00991  0.75000  1.0000
  O   O9        1.0  0.91000  0.51800  0.75000  1.0000
  O   O10       1.0  0.22800  0.24500  0.97300  1.0000
  O   O11       1.0  0.25600  0.72500  0.97400  1.0000
