data_image0
_chemical_formula_structural       Ag4P4S16Zn4
_chemical_formula_sum              "Ag4 P4 S16 Zn4"
_cell_length_a       6.13467
_cell_length_b       7.62205
_cell_length_c       12.6286
_cell_angle_alpha    90
_cell_angle_beta     90
_cell_angle_gamma    90

_space_group_name_H-M_alt    "P 1"
_space_group_IT_number       1

loop_
  _space_group_symop_operation_xyz
  'x, y, z'

loop_
  _atom_site_type_symbol
  _atom_site_label
  _atom_site_symmetry_multiplicity
  _atom_site_fract_x
  _atom_site_fract_y
  _atom_site_fract_z
  _atom_site_occupancy
  Ag  Ag1       1.0  0.50000  0.22000  0.07220  1.0000
  Ag  Ag2       1.0  0.00000  0.72000  0.42800  1.0000
  Ag  Ag3       1.0  0.50000  0.28000  0.57200  1.0000
  Ag  Ag4       1.0  0.00000  0.78000  0.92800  1.0000
  P   P1        1.0  0.50500  0.73200  0.09510  1.0000
  P   P2        1.0  0.00540  0.23200  0.40500  1.0000
  P   P3        1.0  0.50500  0.76800  0.59500  1.0000
  P   P4        1.0  0.00540  0.26800  0.90500  1.0000
  S   S1        1.0  0.08630  0.23300  0.06300  1.0000
  S   S2        1.0  0.17000  0.75400  0.11400  1.0000
  S   S3        1.0  0.64900  0.94700  0.16700  1.0000
  S   S4        1.0  0.61600  0.51000  0.17100  1.0000
  S   S5        1.0  0.11600  0.00982  0.32900  1.0000
  S   S6        1.0  0.14900  0.44700  0.33300  1.0000
  S   S7        1.0  0.67000  0.25400  0.38600  1.0000
  S   S8        1.0  0.58600  0.73300  0.43700  1.0000
  S   S9        1.0  0.08630  0.26700  0.56300  1.0000
  S   S10       1.0  0.17000  0.74600  0.61400  1.0000
  S   S11       1.0  0.64900  0.55300  0.66700  1.0000
  S   S12       1.0  0.61600  0.99000  0.67100  1.0000
  S   S13       1.0  0.11600  0.49000  0.82900  1.0000
  S   S14       1.0  0.14900  0.05260  0.83300  1.0000
  S   S15       1.0  0.67000  0.24600  0.88600  1.0000
  S   S16       1.0  0.58600  0.76700  0.93700  1.0000
  Zn  Zn1       1.0  0.00254  0.48800  0.15900  1.0000
  Zn  Zn2       1.0  0.50300  0.98800  0.34100  1.0000
  Zn  Zn3       1.0  0.00254  0.01210  0.65900  1.0000
  Zn  Zn4       1.0  0.50300  0.51200  0.84100  1.0000
