data_image0
_chemical_formula_structural       C8F2K6N8O2W2
_chemical_formula_sum              "C8 F2 K6 N8 O2 W2"
_cell_length_a       7.87331
_cell_length_b       8.06773
_cell_length_c       8.42953
_cell_angle_alpha    94.5215
_cell_angle_beta     100.923
_cell_angle_gamma    92.6811

_space_group_name_H-M_alt    "P 1"
_space_group_IT_number       1

loop_
  _space_group_symop_operation_xyz
  'x, y, z'

loop_
  _atom_site_type_symbol
  _atom_site_label
  _atom_site_symmetry_multiplicity
  _atom_site_fract_x
  _atom_site_fract_y
  _atom_site_fract_z
  _atom_site_occupancy
  C   C1        1.0  0.34700  0.46900  0.18400  1.0000
  C   C2        1.0  0.47100  0.11700  0.22900  1.0000
  C   C3        1.0  0.02110  0.37100  0.28100  1.0000
  C   C4        1.0  0.13600  0.01880  0.31700  1.0000
  C   C5        1.0  0.86400  0.98100  0.68300  1.0000
  C   C6        1.0  0.97900  0.62900  0.71900  1.0000
  C   C7        1.0  0.52900  0.88300  0.77100  1.0000
  C   C8        1.0  0.65300  0.53100  0.81600  1.0000
  F   F1        1.0  0.14700  0.17600  0.04200  1.0000
  F   F2        1.0  0.85300  0.82400  0.95800  1.0000
  K   K1        1.0  0.79700  0.15700  0.00056  1.0000
  K   K2        1.0  0.73700  0.73300  0.22000  1.0000
  K   K3        1.0  0.28500  0.67400  0.49100  1.0000
  K   K4        1.0  0.71500  0.32600  0.50900  1.0000
  K   K5        1.0  0.26300  0.26700  0.78000  1.0000
  K   K6        1.0  0.20300  0.84300  0.99900  1.0000
  N   N1        1.0  0.39200  0.59900  0.14600  1.0000
  N   N2        1.0  0.59200  0.04290  0.20900  1.0000
  N   N3        1.0  0.89200  0.43900  0.28200  1.0000
  N   N4        1.0  0.07120  0.88600  0.32700  1.0000
  N   N5        1.0  0.92900  0.11400  0.67300  1.0000
  N   N6        1.0  0.10800  0.56100  0.71800  1.0000
  N   N7        1.0  0.40800  0.95700  0.79100  1.0000
  N   N8        1.0  0.60800  0.40100  0.85400  1.0000
  O   O1        1.0  0.35200  0.31600  0.48300  1.0000
  O   O2        1.0  0.64800  0.68400  0.51700  1.0000
  W   W1        1.0  0.25800  0.25100  0.28100  1.0000
  W   W2        1.0  0.74200  0.74900  0.71900  1.0000
