data_image0
_chemical_formula_structural       Cu12Te12Tm4
_chemical_formula_sum              "Cu12 Te12 Tm4"
_cell_length_a       12.7698
_cell_length_b       7.60052
_cell_length_c       6.90489
_cell_angle_alpha    90
_cell_angle_beta     90
_cell_angle_gamma    90

_space_group_name_H-M_alt    "P 1"
_space_group_IT_number       1

loop_
  _space_group_symop_operation_xyz
  'x, y, z'

loop_
  _atom_site_type_symbol
  _atom_site_label
  _atom_site_symmetry_multiplicity
  _atom_site_fract_x
  _atom_site_fract_y
  _atom_site_fract_z
  _atom_site_occupancy
  Cu  Cu1       1.0  0.00000  0.12200  0.12800  1.0000
  Cu  Cu2       1.0  0.32800  0.11700  0.13300  1.0000
  Cu  Cu3       1.0  0.67200  0.11700  0.13300  1.0000
  Cu  Cu4       1.0  0.32500  0.38100  0.38000  1.0000
  Cu  Cu5       1.0  0.67500  0.38100  0.38000  1.0000
  Cu  Cu6       1.0  0.00000  0.37900  0.38200  1.0000
  Cu  Cu7       1.0  0.50000  0.87800  0.62800  1.0000
  Cu  Cu8       1.0  0.17200  0.88300  0.63300  1.0000
  Cu  Cu9       1.0  0.82800  0.88300  0.63300  1.0000
  Cu  Cu10      1.0  0.17500  0.61900  0.88000  1.0000
  Cu  Cu11      1.0  0.82500  0.61900  0.88000  1.0000
  Cu  Cu12      1.0  0.50000  0.62100  0.88200  1.0000
  Te  Te1       1.0  0.00000  0.45000  0.00285  1.0000
  Te  Te2       1.0  0.50000  0.94700  0.00984  1.0000
  Te  Te3       1.0  0.16300  0.93400  0.02300  1.0000
  Te  Te4       1.0  0.83700  0.93400  0.02300  1.0000
  Te  Te5       1.0  0.16300  0.56700  0.49200  1.0000
  Te  Te6       1.0  0.83700  0.56700  0.49200  1.0000
  Te  Te7       1.0  0.50000  0.55000  0.50300  1.0000
  Te  Te8       1.0  0.00000  0.05310  0.51000  1.0000
  Te  Te9       1.0  0.33700  0.06620  0.52300  1.0000
  Te  Te10      1.0  0.66300  0.06620  0.52300  1.0000
  Te  Te11      1.0  0.33700  0.43300  0.99200  1.0000
  Te  Te12      1.0  0.66300  0.43300  0.99200  1.0000
  Tm  Tm1       1.0  0.33800  0.75000  0.25800  1.0000
  Tm  Tm2       1.0  0.66200  0.75000  0.25800  1.0000
  Tm  Tm3       1.0  0.16200  0.25000  0.75800  1.0000
  Tm  Tm4       1.0  0.83800  0.25000  0.75800  1.0000
