data_image0
_chemical_formula_structural       Ac4Er4O11
_chemical_formula_sum              "Ac4 Er4 O11"
_cell_length_a       5.98466
_cell_length_b       6.11397
_cell_length_c       8.51806
_cell_angle_alpha    90
_cell_angle_beta     90
_cell_angle_gamma    89.8996

_space_group_name_H-M_alt    "P 1"
_space_group_IT_number       1

loop_
  _space_group_symop_operation_xyz
  'x, y, z'

loop_
  _atom_site_type_symbol
  _atom_site_label
  _atom_site_symmetry_multiplicity
  _atom_site_fract_x
  _atom_site_fract_y
  _atom_site_fract_z
  _atom_site_occupancy
  Ac  Ac1       1.0  0.99400  0.02400  0.25000  1.0000
  Ac  Ac2       1.0  0.53200  0.54700  0.25000  1.0000
  Ac  Ac3       1.0  0.48900  0.45700  0.75000  1.0000
  Ac  Ac4       1.0  0.00818  0.95300  0.75000  1.0000
  Er  Er1       1.0  0.49800  0.00221  0.50100  1.0000
  Er  Er2       1.0  0.00070  0.49700  0.50200  1.0000
  Er  Er3       1.0  0.00070  0.49700  0.99800  1.0000
  Er  Er4       1.0  0.49800  0.00221  0.99900  1.0000
  O   O1        1.0  0.79900  0.80200  0.05100  1.0000
  O   O2        1.0  0.69600  0.30400  0.05260  1.0000
  O   O3        1.0  0.39700  0.95700  0.25000  1.0000
  O   O4        1.0  0.69600  0.30400  0.44700  1.0000
  O   O5        1.0  0.79900  0.80200  0.44900  1.0000
  O   O6        1.0  0.19500  0.20000  0.55600  1.0000
  O   O7        1.0  0.29700  0.70300  0.56000  1.0000
  O   O8        1.0  0.60700  0.04740  0.75000  1.0000
  O   O9        1.0  0.89100  0.54500  0.75000  1.0000
  O   O10       1.0  0.29700  0.70300  0.94000  1.0000
  O   O11       1.0  0.19500  0.20000  0.94400  1.0000
