data_image0
_chemical_formula_structural       Ba4F16O4V4
_chemical_formula_sum              "Ba4 F16 O4 V4"
_cell_length_a       5.31466
_cell_length_b       5.31466
_cell_length_c       14.1179
_cell_angle_alpha    100.149
_cell_angle_beta     100.149
_cell_angle_gamma    93.6579

_space_group_name_H-M_alt    "P 1"
_space_group_IT_number       1

loop_
  _space_group_symop_operation_xyz
  'x, y, z'

loop_
  _atom_site_type_symbol
  _atom_site_label
  _atom_site_symmetry_multiplicity
  _atom_site_fract_x
  _atom_site_fract_y
  _atom_site_fract_z
  _atom_site_occupancy
  Ba  Ba1       1.0  0.82700  0.28900  0.10700  1.0000
  Ba  Ba2       1.0  0.97000  0.93200  0.39300  1.0000
  Ba  Ba3       1.0  0.53900  0.57700  0.60700  1.0000
  Ba  Ba4       1.0  0.18200  0.72000  0.89300  1.0000
  F   F1        1.0  0.36100  0.04560  0.06260  1.0000
  F   F2        1.0  0.96600  0.78200  0.09190  1.0000
  F   F3        1.0  0.66200  0.97200  0.22600  1.0000
  F   F4        1.0  0.21000  0.15500  0.23900  1.0000
  F   F5        1.0  0.22100  0.66600  0.26100  1.0000
  F   F6        1.0  0.68700  0.49700  0.27400  1.0000
  F   F7        1.0  0.12400  0.44000  0.40800  1.0000
  F   F8        1.0  0.54900  0.73300  0.43700  1.0000
  F   F9        1.0  0.29600  0.11100  0.56300  1.0000
  F   F10       1.0  0.03200  0.71600  0.59200  1.0000
  F   F11       1.0  0.22200  0.41200  0.72600  1.0000
  F   F12       1.0  0.40500  0.96000  0.73900  1.0000
  F   F13       1.0  0.91600  0.97100  0.76100  1.0000
  F   F14       1.0  0.74700  0.43700  0.77400  1.0000
  F   F15       1.0  0.69000  0.87400  0.90800  1.0000
  F   F16       1.0  0.98300  0.29900  0.93700  1.0000
  O   O1        1.0  0.40100  0.55800  0.08960  1.0000
  O   O2        1.0  0.56100  0.21900  0.41000  1.0000
  O   O3        1.0  0.80800  0.15100  0.59000  1.0000
  O   O4        1.0  0.46900  0.31100  0.91000  1.0000
  V   V1        1.0  0.32900  0.82300  0.15400  1.0000
  V   V2        1.0  0.42400  0.41900  0.34600  1.0000
  V   V3        1.0  0.07330  0.07870  0.65400  1.0000
  V   V4        1.0  0.66900  0.17400  0.84600  1.0000
