data_image0
_chemical_formula_structural       Cs8Mo4S16
_chemical_formula_sum              "Cs8 Mo4 S16"
_cell_length_a       10.1997
_cell_length_b       7.33174
_cell_length_c       12.9843
_cell_angle_alpha    90
_cell_angle_beta     90
_cell_angle_gamma    90

_space_group_name_H-M_alt    "P 1"
_space_group_IT_number       1

loop_
  _space_group_symop_operation_xyz
  'x, y, z'

loop_
  _atom_site_type_symbol
  _atom_site_label
  _atom_site_symmetry_multiplicity
  _atom_site_fract_x
  _atom_site_fract_y
  _atom_site_fract_z
  _atom_site_occupancy
  Cs  Cs1       1.0  0.34300  0.75000  0.10200  1.0000
  Cs  Cs2       1.0  0.96500  0.25000  0.16900  1.0000
  Cs  Cs3       1.0  0.46500  0.25000  0.33100  1.0000
  Cs  Cs4       1.0  0.84300  0.75000  0.39800  1.0000
  Cs  Cs5       1.0  0.15700  0.25000  0.60200  1.0000
  Cs  Cs6       1.0  0.53500  0.75000  0.66900  1.0000
  Cs  Cs7       1.0  0.03470  0.75000  0.83100  1.0000
  Cs  Cs8       1.0  0.65700  0.25000  0.89800  1.0000
  Mo  Mo1       1.0  0.75300  0.75000  0.07940  1.0000
  Mo  Mo2       1.0  0.25300  0.75000  0.42100  1.0000
  Mo  Mo3       1.0  0.74700  0.25000  0.57900  1.0000
  Mo  Mo4       1.0  0.24700  0.25000  0.92100  1.0000
  S   S1        1.0  0.29300  0.25000  0.08650  1.0000
  S   S2        1.0  0.96600  0.75000  0.10500  1.0000
  S   S3        1.0  0.66500  0.50600  0.15000  1.0000
  S   S4        1.0  0.66500  0.99400  0.15000  1.0000
  S   S5        1.0  0.16500  0.50600  0.35000  1.0000
  S   S6        1.0  0.16500  0.99400  0.35000  1.0000
  S   S7        1.0  0.46600  0.75000  0.39500  1.0000
  S   S8        1.0  0.79300  0.25000  0.41300  1.0000
  S   S9        1.0  0.20700  0.75000  0.58700  1.0000
  S   S10       1.0  0.53400  0.25000  0.60500  1.0000
  S   S11       1.0  0.83500  0.00648  0.65000  1.0000
  S   S12       1.0  0.83500  0.49400  0.65000  1.0000
  S   S13       1.0  0.33500  0.00648  0.85000  1.0000
  S   S14       1.0  0.33500  0.49400  0.85000  1.0000
  S   S15       1.0  0.03360  0.25000  0.89500  1.0000
  S   S16       1.0  0.70700  0.75000  0.91300  1.0000
