data_image0
_chemical_formula_structural       Eu4Se16Yb8
_chemical_formula_sum              "Eu4 Se16 Yb8"
_cell_length_a       10.4339
_cell_length_b       4.62629
_cell_length_c       15.2926
_cell_angle_alpha    90
_cell_angle_beta     90
_cell_angle_gamma    90

_space_group_name_H-M_alt    "P 1"
_space_group_IT_number       1

loop_
  _space_group_symop_operation_xyz
  'x, y, z'

loop_
  _atom_site_type_symbol
  _atom_site_label
  _atom_site_symmetry_multiplicity
  _atom_site_fract_x
  _atom_site_fract_y
  _atom_site_fract_z
  _atom_site_occupancy
  Eu  Eu1       1.0  0.73100  0.75000  0.17600  1.0000
  Eu  Eu2       1.0  0.23100  0.75000  0.32400  1.0000
  Eu  Eu3       1.0  0.76900  0.25000  0.67600  1.0000
  Eu  Eu4       1.0  0.26900  0.25000  0.82400  1.0000
  Se  Se1       1.0  0.68000  0.25000  0.03120  1.0000
  Se  Se2       1.0  0.92700  0.25000  0.11100  1.0000
  Se  Se3       1.0  0.15900  0.25000  0.18300  1.0000
  Se  Se4       1.0  0.44900  0.75000  0.19900  1.0000
  Se  Se5       1.0  0.94900  0.75000  0.30100  1.0000
  Se  Se6       1.0  0.65900  0.25000  0.31700  1.0000
  Se  Se7       1.0  0.42700  0.25000  0.38900  1.0000
  Se  Se8       1.0  0.18000  0.25000  0.46900  1.0000
  Se  Se9       1.0  0.82000  0.75000  0.53100  1.0000
  Se  Se10      1.0  0.57300  0.75000  0.61100  1.0000
  Se  Se11      1.0  0.34100  0.75000  0.68300  1.0000
  Se  Se12      1.0  0.05150  0.25000  0.69900  1.0000
  Se  Se13      1.0  0.55100  0.25000  0.80100  1.0000
  Se  Se14      1.0  0.84100  0.75000  0.81700  1.0000
  Se  Se15      1.0  0.07280  0.75000  0.88900  1.0000
  Se  Se16      1.0  0.32000  0.75000  0.96900  1.0000
  Yb  Yb1       1.0  0.10000  0.75000  0.08580  1.0000
  Yb  Yb2       1.0  0.41100  0.25000  0.09380  1.0000
  Yb  Yb3       1.0  0.91100  0.25000  0.40600  1.0000
  Yb  Yb4       1.0  0.60000  0.75000  0.41400  1.0000
  Yb  Yb5       1.0  0.40000  0.25000  0.58600  1.0000
  Yb  Yb6       1.0  0.08930  0.75000  0.59400  1.0000
  Yb  Yb7       1.0  0.58900  0.75000  0.90600  1.0000
  Yb  Yb8       1.0  0.90000  0.25000  0.91400  1.0000
