data_image0
_chemical_formula_structural       Al4Ce4O11
_chemical_formula_sum              "Al4 Ce4 O11"
_cell_length_a       5.37064
_cell_length_b       5.34704
_cell_length_c       7.52122
_cell_angle_alpha    90
_cell_angle_beta     90
_cell_angle_gamma    90.0031

_space_group_name_H-M_alt    "P 1"
_space_group_IT_number       1

loop_
  _space_group_symop_operation_xyz
  'x, y, z'

loop_
  _atom_site_type_symbol
  _atom_site_label
  _atom_site_symmetry_multiplicity
  _atom_site_fract_x
  _atom_site_fract_y
  _atom_site_fract_z
  _atom_site_occupancy
  Al  Al1       1.0  0.50000  0.00000  0.00134  1.0000
  Al  Al2       1.0  0.99900  0.50000  0.00145  1.0000
  Al  Al3       1.0  0.99900  0.50000  0.49900  1.0000
  Al  Al4       1.0  0.50000  0.00000  0.49900  1.0000
  Ce  Ce1       1.0  0.99900  0.00045  0.25000  1.0000
  Ce  Ce2       1.0  0.49700  0.50000  0.25000  1.0000
  Ce  Ce3       1.0  0.49900  0.50000  0.75000  1.0000
  Ce  Ce4       1.0  0.00046  0.00000  0.75000  1.0000
  O   O1        1.0  0.75100  0.75000  0.01950  1.0000
  O   O2        1.0  0.75000  0.25100  0.01970  1.0000
  O   O3        1.0  0.46200  0.00000  0.25000  1.0000
  O   O4        1.0  0.75000  0.25100  0.48000  1.0000
  O   O5        1.0  0.75100  0.75000  0.48000  1.0000
  O   O6        1.0  0.24900  0.25000  0.51800  1.0000
  O   O7        1.0  0.25000  0.74800  0.51800  1.0000
  O   O8        1.0  0.53700  0.00023  0.75000  1.0000
  O   O9        1.0  0.96100  0.50000  0.75000  1.0000
  O   O10       1.0  0.25000  0.74800  0.98200  1.0000
  O   O11       1.0  0.24900  0.25000  0.98200  1.0000
