data_image0
_chemical_formula_structural       Ac4O11Ti4
_chemical_formula_sum              "Ac4 O11 Ti4"
_cell_length_a       5.65195
_cell_length_b       5.64742
_cell_length_c       7.94139
_cell_angle_alpha    90
_cell_angle_beta     90
_cell_angle_gamma    90.0352

_space_group_name_H-M_alt    "P 1"
_space_group_IT_number       1

loop_
  _space_group_symop_operation_xyz
  'x, y, z'

loop_
  _atom_site_type_symbol
  _atom_site_label
  _atom_site_symmetry_multiplicity
  _atom_site_fract_x
  _atom_site_fract_y
  _atom_site_fract_z
  _atom_site_occupancy
  Ac  Ac1       1.0  0.00256  0.00605  0.25000  1.0000
  Ac  Ac2       1.0  0.50200  0.50800  0.25000  1.0000
  Ac  Ac3       1.0  0.50000  0.49300  0.75000  1.0000
  Ac  Ac4       1.0  0.00172  0.99100  0.75000  1.0000
  O   O1        1.0  0.76700  0.76800  0.01200  1.0000
  O   O2        1.0  0.73100  0.26800  0.01500  1.0000
  O   O3        1.0  0.46800  0.99400  0.25000  1.0000
  O   O4        1.0  0.73100  0.26800  0.48500  1.0000
  O   O5        1.0  0.76700  0.76800  0.48800  1.0000
  O   O6        1.0  0.23100  0.23400  0.51000  1.0000
  O   O7        1.0  0.26600  0.73300  0.51300  1.0000
  O   O8        1.0  0.52300  0.00513  0.75000  1.0000
  O   O9        1.0  0.97400  0.49900  0.75000  1.0000
  O   O10       1.0  0.26600  0.73300  0.98700  1.0000
  O   O11       1.0  0.23100  0.23400  0.99000  1.0000
  Ti  Ti1       1.0  0.99800  0.50000  0.00409  1.0000
  Ti  Ti2       1.0  0.99800  0.50000  0.49600  1.0000
  Ti  Ti3       1.0  0.50000  0.00065  0.50100  1.0000
  Ti  Ti4       1.0  0.50000  0.00065  0.99900  1.0000
