data_image0
_chemical_formula_structural       Dy8Eu4S16
_chemical_formula_sum              "Dy8 Eu4 S16"
_cell_length_a       11.8343
_cell_length_b       3.96137
_cell_length_c       14.2408
_cell_angle_alpha    90
_cell_angle_beta     90
_cell_angle_gamma    90

_space_group_name_H-M_alt    "P 1"
_space_group_IT_number       1

loop_
  _space_group_symop_operation_xyz
  'x, y, z'

loop_
  _atom_site_type_symbol
  _atom_site_label
  _atom_site_symmetry_multiplicity
  _atom_site_fract_x
  _atom_site_fract_y
  _atom_site_fract_z
  _atom_site_occupancy
  Dy  Dy1       1.0  0.41900  0.25000  0.10100  1.0000
  Dy  Dy2       1.0  0.07040  0.75000  0.11000  1.0000
  Dy  Dy3       1.0  0.57000  0.75000  0.39000  1.0000
  Dy  Dy4       1.0  0.91900  0.25000  0.39900  1.0000
  Dy  Dy5       1.0  0.08070  0.75000  0.60100  1.0000
  Dy  Dy6       1.0  0.43000  0.25000  0.61000  1.0000
  Dy  Dy7       1.0  0.93000  0.25000  0.89000  1.0000
  Dy  Dy8       1.0  0.58100  0.75000  0.89900  1.0000
  Eu  Eu1       1.0  0.74300  0.75000  0.16200  1.0000
  Eu  Eu2       1.0  0.24300  0.75000  0.33800  1.0000
  Eu  Eu3       1.0  0.75700  0.25000  0.66200  1.0000
  Eu  Eu4       1.0  0.25700  0.25000  0.83800  1.0000
  S   S1        1.0  0.63500  0.25000  0.02840  1.0000
  S   S2        1.0  0.91300  0.25000  0.08070  1.0000
  S   S3        1.0  0.20900  0.25000  0.18100  1.0000
  S   S4        1.0  0.47900  0.75000  0.21600  1.0000
  S   S5        1.0  0.97900  0.75000  0.28400  1.0000
  S   S6        1.0  0.70900  0.25000  0.31900  1.0000
  S   S7        1.0  0.41300  0.25000  0.41900  1.0000
  S   S8        1.0  0.13500  0.25000  0.47200  1.0000
  S   S9        1.0  0.86500  0.75000  0.52800  1.0000
  S   S10       1.0  0.58700  0.75000  0.58100  1.0000
  S   S11       1.0  0.29100  0.75000  0.68100  1.0000
  S   S12       1.0  0.02110  0.25000  0.71600  1.0000
  S   S13       1.0  0.52100  0.25000  0.78400  1.0000
  S   S14       1.0  0.79100  0.75000  0.81900  1.0000
  S   S15       1.0  0.08700  0.75000  0.91900  1.0000
  S   S16       1.0  0.36500  0.75000  0.97200  1.0000
