data_image0
_chemical_formula_structural       C8Cl8O8Pt4
_chemical_formula_sum              "C8 Cl8 O8 Pt4"
_cell_length_a       7.1908
_cell_length_b       12.8232
_cell_length_c       6.59817
_cell_angle_alpha    90
_cell_angle_beta     104.809
_cell_angle_gamma    90

_space_group_name_H-M_alt    "P 1"
_space_group_IT_number       1

loop_
  _space_group_symop_operation_xyz
  'x, y, z'

loop_
  _atom_site_type_symbol
  _atom_site_label
  _atom_site_symmetry_multiplicity
  _atom_site_fract_x
  _atom_site_fract_y
  _atom_site_fract_z
  _atom_site_occupancy
  C   C1        1.0  0.89300  0.14000  0.16300  1.0000
  C   C2        1.0  0.70400  0.62300  0.22800  1.0000
  C   C3        1.0  0.29600  0.12300  0.27200  1.0000
  C   C4        1.0  0.10700  0.64000  0.33700  1.0000
  C   C5        1.0  0.89300  0.36000  0.66300  1.0000
  C   C6        1.0  0.70400  0.87700  0.72800  1.0000
  C   C7        1.0  0.29600  0.37700  0.77200  1.0000
  C   C8        1.0  0.10700  0.86000  0.83700  1.0000
  Cl  Cl1       1.0  0.89300  0.36800  0.16000  1.0000
  Cl  Cl2       1.0  0.63400  0.84400  0.21400  1.0000
  Cl  Cl3       1.0  0.36600  0.34400  0.28600  1.0000
  Cl  Cl4       1.0  0.10700  0.86800  0.34000  1.0000
  Cl  Cl5       1.0  0.89300  0.13200  0.66000  1.0000
  Cl  Cl6       1.0  0.63400  0.65600  0.71400  1.0000
  Cl  Cl7       1.0  0.36600  0.15600  0.78600  1.0000
  Cl  Cl8       1.0  0.10700  0.63200  0.84000  1.0000
  O   O1        1.0  0.76100  0.08680  0.12500  1.0000
  O   O2        1.0  0.58900  0.55900  0.19800  1.0000
  O   O3        1.0  0.41100  0.05920  0.30200  1.0000
  O   O4        1.0  0.23900  0.58700  0.37500  1.0000
  O   O5        1.0  0.76100  0.41300  0.62500  1.0000
  O   O6        1.0  0.58900  0.94100  0.69800  1.0000
  O   O7        1.0  0.41100  0.44100  0.80200  1.0000
  O   O8        1.0  0.23900  0.91300  0.87500  1.0000
  Pt  Pt1       1.0  0.10900  0.23000  0.22000  1.0000
  Pt  Pt2       1.0  0.89100  0.73000  0.28000  1.0000
  Pt  Pt3       1.0  0.10900  0.27000  0.72000  1.0000
  Pt  Pt4       1.0  0.89100  0.77000  0.78000  1.0000
