data_image0
_chemical_formula_structural       Ca2Cs2H4N18O2
_chemical_formula_sum              "Ca2 Cs2 H4 N18 O2"
_cell_length_a       6.75053
_cell_length_b       7.4791
_cell_length_c       8.42961
_cell_angle_alpha    71.2755
_cell_angle_beta     82.154
_cell_angle_gamma    78.7676

_space_group_name_H-M_alt    "P 1"
_space_group_IT_number       1

loop_
  _space_group_symop_operation_xyz
  'x, y, z'

loop_
  _atom_site_type_symbol
  _atom_site_label
  _atom_site_symmetry_multiplicity
  _atom_site_fract_x
  _atom_site_fract_y
  _atom_site_fract_z
  _atom_site_occupancy
  Ca  Ca1       1.0  0.69200  0.81100  0.39800  1.0000
  Ca  Ca2       1.0  0.30800  0.18900  0.60200  1.0000
  Cs  Cs1       1.0  0.24300  0.18000  0.09790  1.0000
  Cs  Cs2       1.0  0.75700  0.82000  0.90200  1.0000
  H   H1        1.0  0.84700  0.50300  0.23100  1.0000
  H   H2        1.0  0.03680  0.54100  0.30300  1.0000
  H   H3        1.0  0.96300  0.45900  0.69700  1.0000
  H   H4        1.0  0.15300  0.49700  0.76900  1.0000
  N   N1        1.0  0.77600  0.38500  0.09990  1.0000
  N   N2        1.0  0.74800  0.22700  0.12300  1.0000
  N   N3        1.0  0.72300  0.06780  0.14300  1.0000
  N   N4        1.0  0.47300  0.70500  0.23800  1.0000
  N   N5        1.0  0.39100  0.57000  0.28600  1.0000
  N   N6        1.0  0.30600  0.43500  0.33200  1.0000
  N   N7        1.0  0.03880  0.81200  0.44900  1.0000
  N   N8        1.0  0.18500  0.86400  0.46800  1.0000
  N   N9        1.0  0.33400  0.91800  0.48300  1.0000
  N   N10       1.0  0.66600  0.08180  0.51700  1.0000
  N   N11       1.0  0.81500  0.13600  0.53200  1.0000
  N   N12       1.0  0.96100  0.18800  0.55100  1.0000
  N   N13       1.0  0.69400  0.56500  0.66800  1.0000
  N   N14       1.0  0.60900  0.43000  0.71400  1.0000
  N   N15       1.0  0.52700  0.29500  0.76200  1.0000
  N   N16       1.0  0.27700  0.93200  0.85700  1.0000
  N   N17       1.0  0.25200  0.77300  0.87700  1.0000
  N   N18       1.0  0.22400  0.61500  0.90000  1.0000
  O   O1        1.0  0.89600  0.59500  0.27400  1.0000
  O   O2        1.0  0.10400  0.40500  0.72600  1.0000
