data_image0
_chemical_formula_structural       Ac4O11Pd4
_chemical_formula_sum              "Ac4 O11 Pd4"
_cell_length_a       5.66786
_cell_length_b       5.89033
_cell_length_c       8.08472
_cell_angle_alpha    90
_cell_angle_beta     90
_cell_angle_gamma    90.4354

_space_group_name_H-M_alt    "P 1"
_space_group_IT_number       1

loop_
  _space_group_symop_operation_xyz
  'x, y, z'

loop_
  _atom_site_type_symbol
  _atom_site_label
  _atom_site_symmetry_multiplicity
  _atom_site_fract_x
  _atom_site_fract_y
  _atom_site_fract_z
  _atom_site_occupancy
  Ac  Ac1       1.0  0.97800  0.05530  0.25000  1.0000
  Ac  Ac2       1.0  0.50300  0.55600  0.25000  1.0000
  Ac  Ac3       1.0  0.49400  0.44600  0.75000  1.0000
  Ac  Ac4       1.0  0.01570  0.94000  0.75000  1.0000
  O   O1        1.0  0.70300  0.29900  0.05260  1.0000
  O   O2        1.0  0.79400  0.78700  0.05560  1.0000
  O   O3        1.0  0.41100  0.98300  0.25000  1.0000
  O   O4        1.0  0.79400  0.78700  0.44400  1.0000
  O   O5        1.0  0.70300  0.29900  0.44700  1.0000
  O   O6        1.0  0.20200  0.20800  0.53400  1.0000
  O   O7        1.0  0.29800  0.70400  0.53700  1.0000
  O   O8        1.0  0.58300  0.01850  0.75000  1.0000
  O   O9        1.0  0.92800  0.52000  0.75000  1.0000
  O   O10       1.0  0.29800  0.70400  0.96300  1.0000
  O   O11       1.0  0.20200  0.20800  0.96600  1.0000
  Pd  Pd1       1.0  0.50100  0.00151  0.00332  1.0000
  Pd  Pd2       1.0  0.00424  0.50100  0.01900  1.0000
  Pd  Pd3       1.0  0.00424  0.50100  0.48100  1.0000
  Pd  Pd4       1.0  0.50100  0.00151  0.49700  1.0000
