data_image0
_chemical_formula_structural       Eu4Li4O16Ti4
_chemical_formula_sum              "Eu4 Li4 O16 Ti4"
_cell_length_a       11.2491
_cell_length_b       5.39182
_cell_length_c       5.38498
_cell_angle_alpha    90
_cell_angle_beta     90
_cell_angle_gamma    90

_space_group_name_H-M_alt    "P 1"
_space_group_IT_number       1

loop_
  _space_group_symop_operation_xyz
  'x, y, z'

loop_
  _atom_site_type_symbol
  _atom_site_label
  _atom_site_symmetry_multiplicity
  _atom_site_fract_x
  _atom_site_fract_y
  _atom_site_fract_z
  _atom_site_occupancy
  Eu  Eu1       1.0  0.87900  0.00493  0.25000  1.0000
  Eu  Eu2       1.0  0.12100  0.50500  0.25000  1.0000
  Eu  Eu3       1.0  0.87900  0.49500  0.75000  1.0000
  Eu  Eu4       1.0  0.12100  0.99500  0.75000  1.0000
  Li  Li1       1.0  0.50500  0.25000  0.00000  1.0000
  Li  Li2       1.0  0.49500  0.75000  0.00000  1.0000
  Li  Li3       1.0  0.50500  0.25000  0.50000  1.0000
  Li  Li4       1.0  0.49500  0.75000  0.50000  1.0000
  O   O1        1.0  0.25400  0.25000  0.00000  1.0000
  O   O2        1.0  0.73800  0.25000  0.00000  1.0000
  O   O3        1.0  0.26200  0.75000  0.00000  1.0000
  O   O4        1.0  0.74600  0.75000  0.00000  1.0000
  O   O5        1.0  0.44900  0.00523  0.25000  1.0000
  O   O6        1.0  0.91100  0.48600  0.25000  1.0000
  O   O7        1.0  0.55100  0.50500  0.25000  1.0000
  O   O8        1.0  0.08860  0.98600  0.25000  1.0000
  O   O9        1.0  0.25400  0.25000  0.50000  1.0000
  O   O10       1.0  0.73800  0.25000  0.50000  1.0000
  O   O11       1.0  0.26200  0.75000  0.50000  1.0000
  O   O12       1.0  0.74600  0.75000  0.50000  1.0000
  O   O13       1.0  0.91100  0.01400  0.75000  1.0000
  O   O14       1.0  0.44900  0.49500  0.75000  1.0000
  O   O15       1.0  0.08860  0.51400  0.75000  1.0000
  O   O16       1.0  0.55100  0.99500  0.75000  1.0000
  Ti  Ti1       1.0  0.28700  0.00354  0.25000  1.0000
  Ti  Ti2       1.0  0.71300  0.50400  0.25000  1.0000
  Ti  Ti3       1.0  0.28700  0.49600  0.75000  1.0000
  Ti  Ti4       1.0  0.71300  0.99600  0.75000  1.0000
