data_image0
_chemical_formula_structural       Ba6O18Te4
_chemical_formula_sum              "Ba6 O18 Te4"
_cell_length_a       5.86234
_cell_length_b       5.86238
_cell_length_c       14.3028
_cell_angle_alpha    90
_cell_angle_beta     90
_cell_angle_gamma    120

_space_group_name_H-M_alt    "P 1"
_space_group_IT_number       1

loop_
  _space_group_symop_operation_xyz
  'x, y, z'

loop_
  _atom_site_type_symbol
  _atom_site_label
  _atom_site_symmetry_multiplicity
  _atom_site_fract_x
  _atom_site_fract_y
  _atom_site_fract_z
  _atom_site_occupancy
  Ba  Ba1       1.0  0.33300  0.66700  0.06280  1.0000
  Ba  Ba2       1.0  0.66700  0.33300  0.25000  1.0000
  Ba  Ba3       1.0  0.33300  0.66700  0.43700  1.0000
  Ba  Ba4       1.0  0.66700  0.33300  0.56300  1.0000
  Ba  Ba5       1.0  0.33300  0.66700  0.75000  1.0000
  Ba  Ba6       1.0  0.66700  0.33300  0.93700  1.0000
  O   O1        1.0  0.33100  0.16600  0.09020  1.0000
  O   O2        1.0  0.83400  0.16600  0.09020  1.0000
  O   O3        1.0  0.83400  0.66900  0.09020  1.0000
  O   O4        1.0  0.14500  0.29100  0.25000  1.0000
  O   O5        1.0  0.14500  0.85500  0.25000  1.0000
  O   O6        1.0  0.70900  0.85500  0.25000  1.0000
  O   O7        1.0  0.83400  0.66900  0.41000  1.0000
  O   O8        1.0  0.33100  0.16600  0.41000  1.0000
  O   O9        1.0  0.83400  0.16600  0.41000  1.0000
  O   O10       1.0  0.16600  0.83400  0.59000  1.0000
  O   O11       1.0  0.66900  0.83400  0.59000  1.0000
  O   O12       1.0  0.16600  0.33100  0.59000  1.0000
  O   O13       1.0  0.29100  0.14500  0.75000  1.0000
  O   O14       1.0  0.85500  0.14500  0.75000  1.0000
  O   O15       1.0  0.85500  0.70900  0.75000  1.0000
  O   O16       1.0  0.16600  0.33100  0.91000  1.0000
  O   O17       1.0  0.16600  0.83400  0.91000  1.0000
  O   O18       1.0  0.66900  0.83400  0.91000  1.0000
  Te  Te1       1.0  0.00000  0.00000  0.14900  1.0000
  Te  Te2       1.0  0.00000  0.00000  0.35100  1.0000
  Te  Te3       1.0  0.00000  0.00000  0.64900  1.0000
  Te  Te4       1.0  0.00000  0.00000  0.85100  1.0000
