data_image0
_chemical_formula_structural       Eu4P4S16Tl4
_chemical_formula_sum              "Eu4 P4 S16 Tl4"
_cell_length_a       12.1885
_cell_length_b       6.55686
_cell_length_c       8.7619
_cell_angle_alpha    90
_cell_angle_beta     90
_cell_angle_gamma    90

_space_group_name_H-M_alt    "P 1"
_space_group_IT_number       1

loop_
  _space_group_symop_operation_xyz
  'x, y, z'

loop_
  _atom_site_type_symbol
  _atom_site_label
  _atom_site_symmetry_multiplicity
  _atom_site_fract_x
  _atom_site_fract_y
  _atom_site_fract_z
  _atom_site_occupancy
  Eu  Eu1       1.0  0.86000  0.75000  0.10700  1.0000
  Eu  Eu2       1.0  0.36000  0.75000  0.39300  1.0000
  Eu  Eu3       1.0  0.64000  0.25000  0.60700  1.0000
  Eu  Eu4       1.0  0.14000  0.25000  0.89300  1.0000
  P   P1        1.0  0.15100  0.75000  0.12400  1.0000
  P   P2        1.0  0.65100  0.75000  0.37600  1.0000
  P   P3        1.0  0.34900  0.25000  0.62400  1.0000
  P   P4        1.0  0.84900  0.25000  0.87600  1.0000
  S   S1        1.0  0.93500  0.25000  0.07730  1.0000
  S   S2        1.0  0.25300  0.50100  0.13500  1.0000
  S   S3        1.0  0.25300  0.99900  0.13500  1.0000
  S   S4        1.0  0.55000  0.75000  0.19000  1.0000
  S   S5        1.0  0.04990  0.75000  0.31000  1.0000
  S   S6        1.0  0.75300  0.50100  0.36500  1.0000
  S   S7        1.0  0.75300  0.99900  0.36500  1.0000
  S   S8        1.0  0.43500  0.25000  0.42300  1.0000
  S   S9        1.0  0.56500  0.75000  0.57700  1.0000
  S   S10       1.0  0.24700  0.00089  0.63500  1.0000
  S   S11       1.0  0.24700  0.49900  0.63500  1.0000
  S   S12       1.0  0.95000  0.25000  0.69000  1.0000
  S   S13       1.0  0.45000  0.25000  0.81000  1.0000
  S   S14       1.0  0.74700  0.00089  0.86500  1.0000
  S   S15       1.0  0.74700  0.49900  0.86500  1.0000
  S   S16       1.0  0.06530  0.75000  0.92300  1.0000
  Tl  Tl1       1.0  0.60200  0.25000  0.12800  1.0000
  Tl  Tl2       1.0  0.10200  0.25000  0.37200  1.0000
  Tl  Tl3       1.0  0.89800  0.75000  0.62800  1.0000
  Tl  Tl4       1.0  0.39800  0.75000  0.87200  1.0000
