data_image0
_chemical_formula_structural       Cs4F20Tb4
_chemical_formula_sum              "Cs4 F20 Tb4"
_cell_length_a       7.72731
_cell_length_b       7.72731
_cell_length_c       8.27633
_cell_angle_alpha    90
_cell_angle_beta     90
_cell_angle_gamma    115.216

_space_group_name_H-M_alt    "P 1"
_space_group_IT_number       1

loop_
  _space_group_symop_operation_xyz
  'x, y, z'

loop_
  _atom_site_type_symbol
  _atom_site_label
  _atom_site_symmetry_multiplicity
  _atom_site_fract_x
  _atom_site_fract_y
  _atom_site_fract_z
  _atom_site_occupancy
  Cs  Cs1       1.0  0.80200  0.19800  0.00000  1.0000
  Cs  Cs2       1.0  0.19800  0.80200  0.00000  1.0000
  Cs  Cs3       1.0  0.69800  0.30200  0.50000  1.0000
  Cs  Cs4       1.0  0.30200  0.69800  0.50000  1.0000
  F   F1        1.0  0.59400  0.40600  0.00000  1.0000
  F   F2        1.0  0.40600  0.59400  0.00000  1.0000
  F   F3        1.0  0.79500  0.79500  0.07050  1.0000
  F   F4        1.0  0.07090  0.07090  0.20500  1.0000
  F   F5        1.0  0.44900  0.11900  0.21300  1.0000
  F   F6        1.0  0.11900  0.44900  0.21300  1.0000
  F   F7        1.0  0.94900  0.61900  0.28700  1.0000
  F   F8        1.0  0.61900  0.94900  0.28700  1.0000
  F   F9        1.0  0.57100  0.57100  0.29500  1.0000
  F   F10       1.0  0.29500  0.29500  0.42900  1.0000
  F   F11       1.0  0.90600  0.09380  0.50000  1.0000
  F   F12       1.0  0.09380  0.90600  0.50000  1.0000
  F   F13       1.0  0.70500  0.70500  0.57100  1.0000
  F   F14       1.0  0.42900  0.42900  0.70500  1.0000
  F   F15       1.0  0.38100  0.05100  0.71300  1.0000
  F   F16       1.0  0.05100  0.38100  0.71300  1.0000
  F   F17       1.0  0.88100  0.55100  0.78700  1.0000
  F   F18       1.0  0.55100  0.88100  0.78700  1.0000
  F   F19       1.0  0.92900  0.92900  0.79500  1.0000
  F   F20       1.0  0.20500  0.20500  0.92900  1.0000
  Tb  Tb1       1.0  0.33800  0.33800  0.16200  1.0000
  Tb  Tb2       1.0  0.83800  0.83800  0.33800  1.0000
  Tb  Tb3       1.0  0.16200  0.16200  0.66200  1.0000
  Tb  Tb4       1.0  0.66200  0.66200  0.83800  1.0000
