data_image0
_chemical_formula_structural       Cs4Li4O16S4
_chemical_formula_sum              "Cs4 Li4 O16 S4"
_cell_length_a       5.37969
_cell_length_b       9.5558
_cell_length_c       8.20149
_cell_angle_alpha    90
_cell_angle_beta     90
_cell_angle_gamma    90

_space_group_name_H-M_alt    "P 1"
_space_group_IT_number       1

loop_
  _space_group_symop_operation_xyz
  'x, y, z'

loop_
  _atom_site_type_symbol
  _atom_site_label
  _atom_site_symmetry_multiplicity
  _atom_site_fract_x
  _atom_site_fract_y
  _atom_site_fract_z
  _atom_site_occupancy
  Cs  Cs1       1.0  0.75000  0.22900  0.50100  1.0000
  Cs  Cs2       1.0  0.25000  0.72900  0.99900  1.0000
  Cs  Cs3       1.0  0.75000  0.27100  0.00126  1.0000
  Cs  Cs4       1.0  0.25000  0.77100  0.49900  1.0000
  Li  Li1       1.0  0.25000  0.42200  0.31300  1.0000
  Li  Li2       1.0  0.75000  0.92200  0.18700  1.0000
  Li  Li3       1.0  0.25000  0.07810  0.81300  1.0000
  Li  Li4       1.0  0.75000  0.57800  0.68700  1.0000
  O   O1        1.0  0.02530  0.01010  0.29200  1.0000
  O   O2        1.0  0.97500  0.51000  0.20800  1.0000
  O   O3        1.0  0.47500  0.49000  0.79200  1.0000
  O   O4        1.0  0.52500  0.99000  0.70800  1.0000
  O   O5        1.0  0.97500  0.99000  0.70800  1.0000
  O   O6        1.0  0.02530  0.49000  0.79200  1.0000
  O   O7        1.0  0.52500  0.51000  0.20800  1.0000
  O   O8        1.0  0.47500  0.01010  0.29200  1.0000
  O   O9        1.0  0.25000  0.22900  0.27100  1.0000
  O   O10       1.0  0.75000  0.72900  0.22900  1.0000
  O   O11       1.0  0.25000  0.27100  0.77100  1.0000
  O   O12       1.0  0.75000  0.77100  0.72900  1.0000
  O   O13       1.0  0.25000  0.06670  0.04400  1.0000
  O   O14       1.0  0.75000  0.56700  0.45600  1.0000
  O   O15       1.0  0.25000  0.43300  0.54400  1.0000
  O   O16       1.0  0.75000  0.93300  0.95600  1.0000
  S   S1        1.0  0.25000  0.07920  0.22400  1.0000
  S   S2        1.0  0.75000  0.57900  0.27600  1.0000
  S   S3        1.0  0.25000  0.42100  0.72400  1.0000
  S   S4        1.0  0.75000  0.92100  0.77600  1.0000
