data_image0
_chemical_formula_structural       Ce4Cr4O11
_chemical_formula_sum              "Ce4 Cr4 O11"
_cell_length_a       5.51557
_cell_length_b       5.59128
_cell_length_c       7.7901
_cell_angle_alpha    90
_cell_angle_beta     90
_cell_angle_gamma    90.0733

_space_group_name_H-M_alt    "P 1"
_space_group_IT_number       1

loop_
  _space_group_symop_operation_xyz
  'x, y, z'

loop_
  _atom_site_type_symbol
  _atom_site_label
  _atom_site_symmetry_multiplicity
  _atom_site_fract_x
  _atom_site_fract_y
  _atom_site_fract_z
  _atom_site_occupancy
  Ce  Ce1       1.0  0.98900  0.04130  0.25000  1.0000
  Ce  Ce2       1.0  0.50900  0.54300  0.25000  1.0000
  Ce  Ce3       1.0  0.49100  0.46000  0.75000  1.0000
  Ce  Ce4       1.0  0.01070  0.95800  0.75000  1.0000
  Cr  Cr1       1.0  0.50100  0.00060  0.00223  1.0000
  Cr  Cr2       1.0  0.99900  0.50100  0.00459  1.0000
  Cr  Cr3       1.0  0.99900  0.50100  0.49500  1.0000
  Cr  Cr4       1.0  0.50100  0.00060  0.49800  1.0000
  O   O1        1.0  0.78600  0.78700  0.04670  1.0000
  O   O2        1.0  0.71400  0.28500  0.04760  1.0000
  O   O3        1.0  0.41700  0.98300  0.25000  1.0000
  O   O4        1.0  0.71400  0.28500  0.45200  1.0000
  O   O5        1.0  0.78600  0.78700  0.45300  1.0000
  O   O6        1.0  0.21300  0.21200  0.53500  1.0000
  O   O7        1.0  0.29000  0.71200  0.53700  1.0000
  O   O8        1.0  0.57900  0.01830  0.75000  1.0000
  O   O9        1.0  0.92200  0.51900  0.75000  1.0000
  O   O10       1.0  0.29000  0.71200  0.96300  1.0000
  O   O11       1.0  0.21300  0.21200  0.96500  1.0000
