data_image0
_chemical_formula_structural       Cs12Fe4S12
_chemical_formula_sum              "Cs12 Fe4 S12"
_cell_length_a       7.48465
_cell_length_b       10.3287
_cell_length_c       13.4119
_cell_angle_alpha    90
_cell_angle_beta     90
_cell_angle_gamma    111.243

_space_group_name_H-M_alt    "P 1"
_space_group_IT_number       1

loop_
  _space_group_symop_operation_xyz
  'x, y, z'

loop_
  _atom_site_type_symbol
  _atom_site_label
  _atom_site_symmetry_multiplicity
  _atom_site_fract_x
  _atom_site_fract_y
  _atom_site_fract_z
  _atom_site_occupancy
  Cs  Cs1       1.0  0.83400  0.35400  0.12500  1.0000
  Cs  Cs2       1.0  0.48100  0.64600  0.12500  1.0000
  Cs  Cs3       1.0  0.37900  0.00000  0.18600  1.0000
  Cs  Cs4       1.0  0.87900  0.00000  0.31400  1.0000
  Cs  Cs5       1.0  0.33400  0.35400  0.37500  1.0000
  Cs  Cs6       1.0  0.98100  0.64600  0.37500  1.0000
  Cs  Cs7       1.0  0.01940  0.35400  0.62500  1.0000
  Cs  Cs8       1.0  0.66600  0.64600  0.62500  1.0000
  Cs  Cs9       1.0  0.12100  0.00000  0.68600  1.0000
  Cs  Cs10      1.0  0.62100  0.00000  0.81400  1.0000
  Cs  Cs11      1.0  0.51900  0.35400  0.87500  1.0000
  Cs  Cs12      1.0  0.16600  0.64600  0.87500  1.0000
  Fe  Fe1       1.0  0.07390  0.14800  0.00000  1.0000
  Fe  Fe2       1.0  0.92600  0.85200  0.00000  1.0000
  Fe  Fe3       1.0  0.57400  0.14800  0.50000  1.0000
  Fe  Fe4       1.0  0.42600  0.85200  0.50000  1.0000
  S   S1        1.0  0.78800  0.00000  0.05860  1.0000
  S   S2        1.0  0.26800  0.28100  0.11800  1.0000
  S   S3        1.0  0.98700  0.71900  0.11800  1.0000
  S   S4        1.0  0.76800  0.28100  0.38200  1.0000
  S   S5        1.0  0.48700  0.71900  0.38200  1.0000
  S   S6        1.0  0.28800  0.00000  0.44100  1.0000
  S   S7        1.0  0.71200  0.00000  0.55900  1.0000
  S   S8        1.0  0.51300  0.28100  0.61800  1.0000
  S   S9        1.0  0.23200  0.71900  0.61800  1.0000
  S   S10       1.0  0.01310  0.28100  0.88200  1.0000
  S   S11       1.0  0.73200  0.71900  0.88200  1.0000
  S   S12       1.0  0.21200  0.00000  0.94100  1.0000
