data_image0
_chemical_formula_structural       Er8S16Sr4
_chemical_formula_sum              "Er8 S16 Sr4"
_cell_length_a       11.9492
_cell_length_b       3.96239
_cell_length_c       14.2532
_cell_angle_alpha    90
_cell_angle_beta     90
_cell_angle_gamma    90

_space_group_name_H-M_alt    "P 1"
_space_group_IT_number       1

loop_
  _space_group_symop_operation_xyz
  'x, y, z'

loop_
  _atom_site_type_symbol
  _atom_site_label
  _atom_site_symmetry_multiplicity
  _atom_site_fract_x
  _atom_site_fract_y
  _atom_site_fract_z
  _atom_site_occupancy
  Er  Er1       1.0  0.42100  0.25000  0.10100  1.0000
  Er  Er2       1.0  0.06850  0.75000  0.11000  1.0000
  Er  Er3       1.0  0.56800  0.75000  0.39000  1.0000
  Er  Er4       1.0  0.92100  0.25000  0.39900  1.0000
  Er  Er5       1.0  0.07940  0.75000  0.60100  1.0000
  Er  Er6       1.0  0.43200  0.25000  0.61000  1.0000
  Er  Er7       1.0  0.93200  0.25000  0.89000  1.0000
  Er  Er8       1.0  0.57900  0.75000  0.89900  1.0000
  S   S1        1.0  0.63000  0.25000  0.02610  1.0000
  S   S2        1.0  0.91600  0.25000  0.07890  1.0000
  S   S3        1.0  0.20800  0.25000  0.17300  1.0000
  S   S4        1.0  0.47800  0.75000  0.21600  1.0000
  S   S5        1.0  0.97800  0.75000  0.28400  1.0000
  S   S6        1.0  0.70800  0.25000  0.32700  1.0000
  S   S7        1.0  0.41600  0.25000  0.42100  1.0000
  S   S8        1.0  0.13000  0.25000  0.47400  1.0000
  S   S9        1.0  0.87000  0.75000  0.52600  1.0000
  S   S10       1.0  0.58400  0.75000  0.57900  1.0000
  S   S11       1.0  0.29200  0.75000  0.67300  1.0000
  S   S12       1.0  0.02160  0.25000  0.71600  1.0000
  S   S13       1.0  0.52200  0.25000  0.78400  1.0000
  S   S14       1.0  0.79200  0.75000  0.82700  1.0000
  S   S15       1.0  0.08440  0.75000  0.92100  1.0000
  S   S16       1.0  0.37000  0.75000  0.97400  1.0000
  Sr  Sr1       1.0  0.74300  0.75000  0.16200  1.0000
  Sr  Sr2       1.0  0.24300  0.75000  0.33800  1.0000
  Sr  Sr3       1.0  0.75700  0.25000  0.66200  1.0000
  Sr  Sr4       1.0  0.25700  0.25000  0.83800  1.0000
