data_image0
_chemical_formula_structural       Ca4O11Ti4
_chemical_formula_sum              "Ca4 O11 Ti4"
_cell_length_a       5.36518
_cell_length_b       5.48554
_cell_length_c       7.62806
_cell_angle_alpha    90
_cell_angle_beta     90
_cell_angle_gamma    90.0921

_space_group_name_H-M_alt    "P 1"
_space_group_IT_number       1

loop_
  _space_group_symop_operation_xyz
  'x, y, z'

loop_
  _atom_site_type_symbol
  _atom_site_label
  _atom_site_symmetry_multiplicity
  _atom_site_fract_x
  _atom_site_fract_y
  _atom_site_fract_z
  _atom_site_occupancy
  Ca  Ca1       1.0  0.99100  0.04450  0.25000  1.0000
  Ca  Ca2       1.0  0.51300  0.55000  0.25000  1.0000
  Ca  Ca3       1.0  0.48200  0.45200  0.75000  1.0000
  Ca  Ca4       1.0  0.01410  0.96000  0.75000  1.0000
  O   O1        1.0  0.79700  0.78800  0.05000  1.0000
  O   O2        1.0  0.71500  0.29100  0.05210  1.0000
  O   O3        1.0  0.41200  0.97500  0.25000  1.0000
  O   O4        1.0  0.71500  0.29100  0.44800  1.0000
  O   O5        1.0  0.79700  0.78800  0.45000  1.0000
  O   O6        1.0  0.20700  0.21300  0.53400  1.0000
  O   O7        1.0  0.29300  0.70400  0.53600  1.0000
  O   O8        1.0  0.57900  0.02190  0.75000  1.0000
  O   O9        1.0  0.90900  0.52500  0.75000  1.0000
  O   O10       1.0  0.29300  0.70400  0.96400  1.0000
  O   O11       1.0  0.20700  0.21300  0.96600  1.0000
  Ti  Ti1       1.0  0.50400  0.00000  0.00333  1.0000
  Ti  Ti2       1.0  0.50400  0.00000  0.49700  1.0000
  Ti  Ti3       1.0  0.99400  0.50100  0.50800  1.0000
  Ti  Ti4       1.0  0.99400  0.50100  0.99200  1.0000
