data_image0
_chemical_formula_structural       Ac4O11Rh4
_chemical_formula_sum              "Ac4 O11 Rh4"
_cell_length_a       5.61592
_cell_length_b       5.82603
_cell_length_c       7.97444
_cell_angle_alpha    90
_cell_angle_beta     90
_cell_angle_gamma    90.2416

_space_group_name_H-M_alt    "P 1"
_space_group_IT_number       1

loop_
  _space_group_symop_operation_xyz
  'x, y, z'

loop_
  _atom_site_type_symbol
  _atom_site_label
  _atom_site_symmetry_multiplicity
  _atom_site_fract_x
  _atom_site_fract_y
  _atom_site_fract_z
  _atom_site_occupancy
  Ac  Ac1       1.0  0.97800  0.06130  0.25000  1.0000
  Ac  Ac2       1.0  0.49800  0.55600  0.25000  1.0000
  Ac  Ac3       1.0  0.49500  0.44500  0.75000  1.0000
  Ac  Ac4       1.0  0.01710  0.94000  0.75000  1.0000
  O   O1        1.0  0.69600  0.30100  0.04780  1.0000
  O   O2        1.0  0.79800  0.79200  0.05250  1.0000
  O   O3        1.0  0.40500  0.98700  0.25000  1.0000
  O   O4        1.0  0.79800  0.79200  0.44700  1.0000
  O   O5        1.0  0.69600  0.30100  0.45200  1.0000
  O   O6        1.0  0.20000  0.20400  0.53600  1.0000
  O   O7        1.0  0.30100  0.70400  0.53900  1.0000
  O   O8        1.0  0.58900  0.01280  0.75000  1.0000
  O   O9        1.0  0.93700  0.50800  0.75000  1.0000
  O   O10       1.0  0.30100  0.70400  0.96100  1.0000
  O   O11       1.0  0.20000  0.20400  0.96400  1.0000
  Rh  Rh1       1.0  0.50000  0.00042  0.00270  1.0000
  Rh  Rh2       1.0  0.00294  0.50200  0.01740  1.0000
  Rh  Rh3       1.0  0.00294  0.50200  0.48300  1.0000
  Rh  Rh4       1.0  0.50000  0.00042  0.49700  1.0000
