data_image0
_chemical_formula_structural       BaP2Zn2
_chemical_formula_sum              "Ba1 P2 Zn2"
_cell_length_a       4.03183
_cell_length_b       4.03183
_cell_length_c       7.21499
_cell_angle_alpha    106.225
_cell_angle_beta     106.225
_cell_angle_gamma    90

_space_group_name_H-M_alt    "P 1"
_space_group_IT_number       1

loop_
  _space_group_symop_operation_xyz
  'x, y, z'

loop_
  _atom_site_type_symbol
  _atom_site_label
  _atom_site_symmetry_multiplicity
  _atom_site_fract_x
  _atom_site_fract_y
  _atom_site_fract_z
  _atom_site_occupancy
  Ba  Ba1       1.0  0.00000  0.00000  0.00000  1.0000
  P   P1        1.0  0.63900  0.63900  0.27900  1.0000
  P   P2        1.0  0.36100  0.36100  0.72100  1.0000
  Zn  Zn1       1.0  0.75000  0.25000  0.50000  1.0000
  Zn  Zn2       1.0  0.25000  0.75000  0.50000  1.0000
