data_image0
_chemical_formula_structural       O5V4
_chemical_formula_sum              "O5 V4"
_cell_length_a       5.10688
_cell_length_b       5.09788
_cell_length_c       5.50164
_cell_angle_alpha    62.479
_cell_angle_beta     62.3459
_cell_angle_gamma    60.4596

_space_group_name_H-M_alt    "P 1"
_space_group_IT_number       1

loop_
  _space_group_symop_operation_xyz
  'x, y, z'

loop_
  _atom_site_type_symbol
  _atom_site_label
  _atom_site_symmetry_multiplicity
  _atom_site_fract_x
  _atom_site_fract_y
  _atom_site_fract_z
  _atom_site_occupancy
  O   O1        1.0  0.25700  0.94300  0.24000  1.0000
  O   O2        1.0  0.94400  0.56100  0.25100  1.0000
  O   O3        1.0  0.73500  0.06380  0.74700  1.0000
  O   O4        1.0  0.45400  0.74200  0.75600  1.0000
  O   O5        1.0  0.04970  0.44300  0.75600  1.0000
  V   V1        1.0  0.65700  0.65100  0.04670  1.0000
  V   V2        1.0  0.85800  0.85100  0.45300  1.0000
  V   V3        1.0  0.14800  0.14200  0.55200  1.0000
  V   V4        1.0  0.34200  0.35400  0.94900  1.0000
