data_image0
_chemical_formula_structural       N8Si6
_chemical_formula_sum              "N8 Si6"
_cell_length_a       7.61637
_cell_length_b       7.61645
_cell_length_c       2.91046
_cell_angle_alpha    90
_cell_angle_beta     90
_cell_angle_gamma    120

_space_group_name_H-M_alt    "P 1"
_space_group_IT_number       1

loop_
  _space_group_symop_operation_xyz
  'x, y, z'

loop_
  _atom_site_type_symbol
  _atom_site_label
  _atom_site_symmetry_multiplicity
  _atom_site_fract_x
  _atom_site_fract_y
  _atom_site_fract_z
  _atom_site_occupancy
  N   N1        1.0  0.33000  0.03060  0.25000  1.0000
  N   N2        1.0  0.96900  0.30000  0.25000  1.0000
  N   N3        1.0  0.33300  0.66700  0.25000  1.0000
  N   N4        1.0  0.70000  0.67000  0.25000  1.0000
  N   N5        1.0  0.30000  0.33000  0.75000  1.0000
  N   N6        1.0  0.66700  0.33300  0.75000  1.0000
  N   N7        1.0  0.03060  0.70000  0.75000  1.0000
  N   N8        1.0  0.67000  0.96900  0.75000  1.0000
  Si  Si1       1.0  0.23100  0.40600  0.25000  1.0000
  Si  Si2       1.0  0.17500  0.76900  0.25000  1.0000
  Si  Si3       1.0  0.59400  0.82500  0.25000  1.0000
  Si  Si4       1.0  0.40600  0.17500  0.75000  1.0000
  Si  Si5       1.0  0.82500  0.23100  0.75000  1.0000
  Si  Si6       1.0  0.76900  0.59400  0.75000  1.0000
