data_image0
_chemical_formula_structural       As4Cu4O16Tl4
_chemical_formula_sum              "As4 Cu4 O16 Tl4"
_cell_length_a       4.91948
_cell_length_b       4.91948
_cell_length_c       18.006
_cell_angle_alpha    91.7253
_cell_angle_beta     91.7253
_cell_angle_gamma    93.7288

_space_group_name_H-M_alt    "P 1"
_space_group_IT_number       1

loop_
  _space_group_symop_operation_xyz
  'x, y, z'

loop_
  _atom_site_type_symbol
  _atom_site_label
  _atom_site_symmetry_multiplicity
  _atom_site_fract_x
  _atom_site_fract_y
  _atom_site_fract_z
  _atom_site_occupancy
  As  As1       1.0  0.31100  0.64100  0.14400  1.0000
  As  As2       1.0  0.35900  0.68900  0.35600  1.0000
  As  As3       1.0  0.64100  0.31100  0.64400  1.0000
  As  As4       1.0  0.68900  0.35900  0.85600  1.0000
  Cu  Cu1       1.0  0.33200  0.16400  0.24900  1.0000
  Cu  Cu2       1.0  0.83600  0.66800  0.25100  1.0000
  Cu  Cu3       1.0  0.16400  0.33200  0.74900  1.0000
  Cu  Cu4       1.0  0.66800  0.83600  0.75100  1.0000
  O   O1        1.0  0.20800  0.51900  0.05850  1.0000
  O   O2        1.0  0.24400  0.98000  0.15600  1.0000
  O   O3        1.0  0.65100  0.57600  0.15800  1.0000
  O   O4        1.0  0.13200  0.46500  0.21500  1.0000
  O   O5        1.0  0.53500  0.86800  0.28500  1.0000
  O   O6        1.0  0.42400  0.34900  0.34200  1.0000
  O   O7        1.0  0.02030  0.75600  0.34400  1.0000
  O   O8        1.0  0.48100  0.79200  0.44100  1.0000
  O   O9        1.0  0.51900  0.20800  0.55900  1.0000
  O   O10       1.0  0.98000  0.24400  0.65600  1.0000
  O   O11       1.0  0.57600  0.65100  0.65800  1.0000
  O   O12       1.0  0.46500  0.13200  0.71500  1.0000
  O   O13       1.0  0.86800  0.53500  0.78500  1.0000
  O   O14       1.0  0.34900  0.42400  0.84200  1.0000
  O   O15       1.0  0.75600  0.02030  0.84400  1.0000
  O   O16       1.0  0.79200  0.48100  0.94100  1.0000
  Tl  Tl1       1.0  0.78400  0.17900  0.06070  1.0000
  Tl  Tl2       1.0  0.82100  0.21600  0.43900  1.0000
  Tl  Tl3       1.0  0.17900  0.78400  0.56100  1.0000
  Tl  Tl4       1.0  0.21600  0.82100  0.93900  1.0000
