data_image0
_chemical_formula_structural       Ce4O11Rh4
_chemical_formula_sum              "Ce4 O11 Rh4"
_cell_length_a       5.41942
_cell_length_b       5.8791
_cell_length_c       7.76753
_cell_angle_alpha    90
_cell_angle_beta     90
_cell_angle_gamma    90.1879

_space_group_name_H-M_alt    "P 1"
_space_group_IT_number       1

loop_
  _space_group_symop_operation_xyz
  'x, y, z'

loop_
  _atom_site_type_symbol
  _atom_site_label
  _atom_site_symmetry_multiplicity
  _atom_site_fract_x
  _atom_site_fract_y
  _atom_site_fract_z
  _atom_site_occupancy
  Ce  Ce1       1.0  0.96800  0.07820  0.25000  1.0000
  Ce  Ce2       1.0  0.51000  0.57500  0.25000  1.0000
  Ce  Ce3       1.0  0.48500  0.42900  0.75000  1.0000
  Ce  Ce4       1.0  0.02700  0.92300  0.75000  1.0000
  O   O1        1.0  0.68200  0.30700  0.05220  1.0000
  O   O2        1.0  0.81000  0.79900  0.05810  1.0000
  O   O3        1.0  0.38600  0.97400  0.25000  1.0000
  O   O4        1.0  0.81000  0.79900  0.44200  1.0000
  O   O5        1.0  0.68200  0.30700  0.44800  1.0000
  O   O6        1.0  0.18800  0.19700  0.54200  1.0000
  O   O7        1.0  0.31300  0.69700  0.54400  1.0000
  O   O8        1.0  0.60800  0.02890  0.75000  1.0000
  O   O9        1.0  0.91700  0.52100  0.75000  1.0000
  O   O10       1.0  0.31300  0.69700  0.95600  1.0000
  O   O11       1.0  0.18800  0.19700  0.95800  1.0000
  Rh  Rh1       1.0  0.50000  0.99900  0.00250  1.0000
  Rh  Rh2       1.0  0.00372  0.50100  0.02060  1.0000
  Rh  Rh3       1.0  0.00372  0.50100  0.47900  1.0000
  Rh  Rh4       1.0  0.50000  0.99900  0.49800  1.0000
