data_image0
_chemical_formula_structural       Eu4Ir4O11
_chemical_formula_sum              "Eu4 Ir4 O11"
_cell_length_a       5.32963
_cell_length_b       5.67156
_cell_length_c       7.665
_cell_angle_alpha    90
_cell_angle_beta     90
_cell_angle_gamma    90.1995

_space_group_name_H-M_alt    "P 1"
_space_group_IT_number       1

loop_
  _space_group_symop_operation_xyz
  'x, y, z'

loop_
  _atom_site_type_symbol
  _atom_site_label
  _atom_site_symmetry_multiplicity
  _atom_site_fract_x
  _atom_site_fract_y
  _atom_site_fract_z
  _atom_site_occupancy
  Eu  Eu1       1.0  0.97500  0.06500  0.25000  1.0000
  Eu  Eu2       1.0  0.50300  0.56100  0.25000  1.0000
  Eu  Eu3       1.0  0.48500  0.44200  0.75000  1.0000
  Eu  Eu4       1.0  0.02410  0.93500  0.75000  1.0000
  Ir  Ir1       1.0  0.50200  0.00056  0.00246  1.0000
  Ir  Ir2       1.0  0.00109  0.50200  0.01540  1.0000
  Ir  Ir3       1.0  0.00109  0.50200  0.48500  1.0000
  Ir  Ir4       1.0  0.50200  0.00056  0.49800  1.0000
  O   O1        1.0  0.69200  0.30200  0.05320  1.0000
  O   O2        1.0  0.80500  0.79700  0.05500  1.0000
  O   O3        1.0  0.39600  0.97300  0.25000  1.0000
  O   O4        1.0  0.80500  0.79700  0.44500  1.0000
  O   O5        1.0  0.69200  0.30200  0.44700  1.0000
  O   O6        1.0  0.30800  0.69800  0.53800  1.0000
  O   O7        1.0  0.19400  0.20200  0.53900  1.0000
  O   O8        1.0  0.59900  0.03150  0.75000  1.0000
  O   O9        1.0  0.91900  0.52100  0.75000  1.0000
  O   O10       1.0  0.19400  0.20200  0.96100  1.0000
  O   O11       1.0  0.30800  0.69800  0.96200  1.0000
