data_image0
_chemical_formula_structural       Cu4O16P4Tl4
_chemical_formula_sum              "Cu4 O16 P4 Tl4"
_cell_length_a       4.79879
_cell_length_b       4.79879
_cell_length_c       17.6926
_cell_angle_alpha    91.9887
_cell_angle_beta     91.9887
_cell_angle_gamma    93.1826

_space_group_name_H-M_alt    "P 1"
_space_group_IT_number       1

loop_
  _space_group_symop_operation_xyz
  'x, y, z'

loop_
  _atom_site_type_symbol
  _atom_site_label
  _atom_site_symmetry_multiplicity
  _atom_site_fract_x
  _atom_site_fract_y
  _atom_site_fract_z
  _atom_site_occupancy
  Cu  Cu1       1.0  0.16900  0.32600  0.24900  1.0000
  Cu  Cu2       1.0  0.67400  0.83100  0.25100  1.0000
  Cu  Cu3       1.0  0.32600  0.16900  0.74900  1.0000
  Cu  Cu4       1.0  0.83100  0.67400  0.75100  1.0000
  O   O1        1.0  0.53200  0.20800  0.06500  1.0000
  O   O2        1.0  0.94900  0.23600  0.15700  1.0000
  O   O3        1.0  0.57900  0.61100  0.16000  1.0000
  O   O4        1.0  0.46900  0.12600  0.20600  1.0000
  O   O5        1.0  0.87400  0.53100  0.29400  1.0000
  O   O6        1.0  0.38900  0.42100  0.34000  1.0000
  O   O7        1.0  0.76400  0.05090  0.34300  1.0000
  O   O8        1.0  0.79200  0.46800  0.43500  1.0000
  O   O9        1.0  0.20800  0.53200  0.56500  1.0000
  O   O10       1.0  0.23600  0.94900  0.65700  1.0000
  O   O11       1.0  0.61100  0.57900  0.66000  1.0000
  O   O12       1.0  0.12600  0.46900  0.70600  1.0000
  O   O13       1.0  0.53100  0.87400  0.79400  1.0000
  O   O14       1.0  0.42100  0.38900  0.84000  1.0000
  O   O15       1.0  0.05090  0.76400  0.84300  1.0000
  O   O16       1.0  0.46800  0.79200  0.93500  1.0000
  P   P1        1.0  0.63700  0.29800  0.14500  1.0000
  P   P2        1.0  0.70200  0.36300  0.35500  1.0000
  P   P3        1.0  0.29800  0.63700  0.64500  1.0000
  P   P4        1.0  0.36300  0.70200  0.85500  1.0000
  Tl  Tl1       1.0  0.17700  0.77600  0.06170  1.0000
  Tl  Tl2       1.0  0.22400  0.82300  0.43800  1.0000
  Tl  Tl3       1.0  0.77600  0.17700  0.56200  1.0000
  Tl  Tl4       1.0  0.82300  0.22400  0.93800  1.0000
