data_image0
_chemical_formula_structural       Ca4Hf4O11
_chemical_formula_sum              "Ca4 Hf4 O11"
_cell_length_a       5.54671
_cell_length_b       5.70897
_cell_length_c       7.9619
_cell_angle_alpha    90
_cell_angle_beta     90
_cell_angle_gamma    89.9902

_space_group_name_H-M_alt    "P 1"
_space_group_IT_number       1

loop_
  _space_group_symop_operation_xyz
  'x, y, z'

loop_
  _atom_site_type_symbol
  _atom_site_label
  _atom_site_symmetry_multiplicity
  _atom_site_fract_x
  _atom_site_fract_y
  _atom_site_fract_z
  _atom_site_occupancy
  Ca  Ca1       1.0  0.99100  0.03700  0.25000  1.0000
  Ca  Ca2       1.0  0.52100  0.54900  0.25000  1.0000
  Ca  Ca3       1.0  0.48700  0.45200  0.75000  1.0000
  Ca  Ca4       1.0  0.00958  0.95000  0.75000  1.0000
  Hf  Hf1       1.0  0.99900  0.50000  0.00032  1.0000
  Hf  Hf2       1.0  0.50000  0.00090  0.00040  1.0000
  Hf  Hf3       1.0  0.50000  0.00090  0.50000  1.0000
  Hf  Hf4       1.0  0.99900  0.50000  0.50000  1.0000
  O   O1        1.0  0.80000  0.79900  0.05150  1.0000
  O   O2        1.0  0.70100  0.29900  0.05370  1.0000
  O   O3        1.0  0.40000  0.96200  0.25000  1.0000
  O   O4        1.0  0.70100  0.29900  0.44600  1.0000
  O   O5        1.0  0.80000  0.79900  0.44900  1.0000
  O   O6        1.0  0.19700  0.20400  0.55300  1.0000
  O   O7        1.0  0.29900  0.70200  0.55400  1.0000
  O   O8        1.0  0.60200  0.03970  0.75000  1.0000
  O   O9        1.0  0.89400  0.54100  0.75000  1.0000
  O   O10       1.0  0.29900  0.70200  0.94600  1.0000
  O   O11       1.0  0.19700  0.20400  0.94700  1.0000
