data_image0
_chemical_formula_structural       Be4Cl16Cs8
_chemical_formula_sum              "Be4 Cl16 Cs8"
_cell_length_a       7.21012
_cell_length_b       9.70544
_cell_length_c       12.5721
_cell_angle_alpha    90
_cell_angle_beta     90
_cell_angle_gamma    90

_space_group_name_H-M_alt    "P 1"
_space_group_IT_number       1

loop_
  _space_group_symop_operation_xyz
  'x, y, z'

loop_
  _atom_site_type_symbol
  _atom_site_label
  _atom_site_symmetry_multiplicity
  _atom_site_fract_x
  _atom_site_fract_y
  _atom_site_fract_z
  _atom_site_occupancy
  Be  Be1       1.0  0.25000  0.24400  0.08140  1.0000
  Be  Be2       1.0  0.25000  0.74400  0.41900  1.0000
  Be  Be3       1.0  0.75000  0.25600  0.58100  1.0000
  Be  Be4       1.0  0.75000  0.75600  0.91900  1.0000
  Cl  Cl1       1.0  0.75000  0.69500  0.07420  1.0000
  Cl  Cl2       1.0  0.25000  0.03550  0.09890  1.0000
  Cl  Cl3       1.0  0.01970  0.32300  0.15200  1.0000
  Cl  Cl4       1.0  0.48000  0.32300  0.15200  1.0000
  Cl  Cl5       1.0  0.01970  0.82300  0.34800  1.0000
  Cl  Cl6       1.0  0.48000  0.82300  0.34800  1.0000
  Cl  Cl7       1.0  0.25000  0.53600  0.40100  1.0000
  Cl  Cl8       1.0  0.75000  0.19500  0.42600  1.0000
  Cl  Cl9       1.0  0.25000  0.80500  0.57400  1.0000
  Cl  Cl10      1.0  0.75000  0.46400  0.59900  1.0000
  Cl  Cl11      1.0  0.52000  0.17700  0.65200  1.0000
  Cl  Cl12      1.0  0.98000  0.17700  0.65200  1.0000
  Cl  Cl13      1.0  0.52000  0.67700  0.84800  1.0000
  Cl  Cl14      1.0  0.98000  0.67700  0.84800  1.0000
  Cl  Cl15      1.0  0.75000  0.96400  0.90100  1.0000
  Cl  Cl16      1.0  0.25000  0.30500  0.92600  1.0000
  Cs  Cs1       1.0  0.25000  0.65100  0.10200  1.0000
  Cs  Cs2       1.0  0.75000  0.02410  0.17500  1.0000
  Cs  Cs3       1.0  0.75000  0.52400  0.32500  1.0000
  Cs  Cs4       1.0  0.25000  0.15100  0.39800  1.0000
  Cs  Cs5       1.0  0.75000  0.84900  0.60200  1.0000
  Cs  Cs6       1.0  0.25000  0.47600  0.67500  1.0000
  Cs  Cs7       1.0  0.25000  0.97600  0.82500  1.0000
  Cs  Cs8       1.0  0.75000  0.34900  0.89800  1.0000
