data_image0
_chemical_formula_structural       Ag6P12Si6Sn4
_chemical_formula_sum              "Ag6 P12 Si6 Sn4"
_cell_length_a       9.05287
_cell_length_b       9.05287
_cell_length_c       9.05287
_cell_angle_alpha    109.471
_cell_angle_beta     109.471
_cell_angle_gamma    109.471

_space_group_name_H-M_alt    "P 1"
_space_group_IT_number       1

loop_
  _space_group_symop_operation_xyz
  'x, y, z'

loop_
  _atom_site_type_symbol
  _atom_site_label
  _atom_site_symmetry_multiplicity
  _atom_site_fract_x
  _atom_site_fract_y
  _atom_site_fract_z
  _atom_site_occupancy
  Ag  Ag1       1.0  0.19900  0.19900  0.00000  1.0000
  Ag  Ag2       1.0  0.80100  0.80100  0.00000  1.0000
  Ag  Ag3       1.0  0.19900  0.00000  0.19900  1.0000
  Ag  Ag4       1.0  0.00000  0.19900  0.19900  1.0000
  Ag  Ag5       1.0  0.80100  0.00000  0.80100  1.0000
  Ag  Ag6       1.0  0.00000  0.80100  0.80100  1.0000
  P   P1        1.0  0.75300  0.50100  0.00000  1.0000
  P   P2        1.0  0.50100  0.75300  0.00000  1.0000
  P   P3        1.0  0.74800  0.24700  0.24700  1.0000
  P   P4        1.0  0.24700  0.74800  0.24700  1.0000
  P   P5        1.0  0.49900  0.49900  0.25200  1.0000
  P   P6        1.0  0.49900  0.25200  0.49900  1.0000
  P   P7        1.0  0.25200  0.49900  0.49900  1.0000
  P   P8        1.0  0.75300  0.00000  0.50100  1.0000
  P   P9        1.0  0.00000  0.75300  0.50100  1.0000
  P   P10       1.0  0.24700  0.24700  0.74800  1.0000
  P   P11       1.0  0.50100  0.00000  0.75300  1.0000
  P   P12       1.0  0.00000  0.50100  0.75300  1.0000
  Si  Si1       1.0  0.75000  0.50000  0.25000  1.0000
  Si  Si2       1.0  0.50000  0.75000  0.25000  1.0000
  Si  Si3       1.0  0.75000  0.25000  0.50000  1.0000
  Si  Si4       1.0  0.25000  0.75000  0.50000  1.0000
  Si  Si5       1.0  0.50000  0.25000  0.75000  1.0000
  Si  Si6       1.0  0.25000  0.50000  0.75000  1.0000
  Sn  Sn1       1.0  0.40900  0.00000  0.00000  1.0000
  Sn  Sn2       1.0  0.00000  0.40900  0.00000  1.0000
  Sn  Sn3       1.0  0.00000  0.00000  0.40900  1.0000
  Sn  Sn4       1.0  0.59100  0.59100  0.59100  1.0000
