data_image0
_chemical_formula_structural       Be4F16Sm4
_chemical_formula_sum              "Be4 F16 Sm4"
_cell_length_a       8.14862
_cell_length_b       6.63167
_cell_length_c       5.05587
_cell_angle_alpha    90
_cell_angle_beta     90
_cell_angle_gamma    90

_space_group_name_H-M_alt    "P 1"
_space_group_IT_number       1

loop_
  _space_group_symop_operation_xyz
  'x, y, z'

loop_
  _atom_site_type_symbol
  _atom_site_label
  _atom_site_symmetry_multiplicity
  _atom_site_fract_x
  _atom_site_fract_y
  _atom_site_fract_z
  _atom_site_occupancy
  Be  Be1       1.0  0.05280  0.63700  0.21800  1.0000
  Be  Be2       1.0  0.55300  0.86300  0.21800  1.0000
  Be  Be3       1.0  0.44700  0.13700  0.71800  1.0000
  Be  Be4       1.0  0.94700  0.36300  0.71800  1.0000
  F   F1        1.0  0.86900  0.60400  0.18700  1.0000
  F   F2        1.0  0.36900  0.89600  0.18700  1.0000
  F   F3        1.0  0.65500  0.05270  0.18700  1.0000
  F   F4        1.0  0.15500  0.44700  0.18700  1.0000
  F   F5        1.0  0.59400  0.73500  0.46600  1.0000
  F   F6        1.0  0.09430  0.76500  0.46600  1.0000
  F   F7        1.0  0.89400  0.22700  0.47500  1.0000
  F   F8        1.0  0.39400  0.27300  0.47500  1.0000
  F   F9        1.0  0.63100  0.10400  0.68700  1.0000
  F   F10       1.0  0.13100  0.39600  0.68700  1.0000
  F   F11       1.0  0.84500  0.55300  0.68700  1.0000
  F   F12       1.0  0.34500  0.94700  0.68700  1.0000
  F   F13       1.0  0.90600  0.23500  0.96600  1.0000
  F   F14       1.0  0.40600  0.26500  0.96600  1.0000
  F   F15       1.0  0.60600  0.72700  0.97500  1.0000
  F   F16       1.0  0.10600  0.77300  0.97500  1.0000
  Sm  Sm1       1.0  0.14200  0.10000  0.26600  1.0000
  Sm  Sm2       1.0  0.64200  0.40000  0.26600  1.0000
  Sm  Sm3       1.0  0.35800  0.60000  0.76600  1.0000
  Sm  Sm4       1.0  0.85800  0.90000  0.76600  1.0000
