data_image0
_chemical_formula_structural       Ce4O11Pd4
_chemical_formula_sum              "Ce4 O11 Pd4"
_cell_length_a       5.5582
_cell_length_b       6.03615
_cell_length_c       7.7262
_cell_angle_alpha    89.9453
_cell_angle_beta     89.4821
_cell_angle_gamma    89.7264

_space_group_name_H-M_alt    "P 1"
_space_group_IT_number       1

loop_
  _space_group_symop_operation_xyz
  'x, y, z'

loop_
  _atom_site_type_symbol
  _atom_site_label
  _atom_site_symmetry_multiplicity
  _atom_site_fract_x
  _atom_site_fract_y
  _atom_site_fract_z
  _atom_site_occupancy
  Ce  Ce1       1.0  0.51100  0.58500  0.24200  1.0000
  Ce  Ce2       1.0  0.99300  0.06190  0.25900  1.0000
  Ce  Ce3       1.0  0.46200  0.43300  0.73900  1.0000
  Ce  Ce4       1.0  0.03140  0.91500  0.75900  1.0000
  O   O1        1.0  0.81600  0.80400  0.05320  1.0000
  O   O2        1.0  0.10200  0.45700  0.24900  1.0000
  O   O3        1.0  0.40600  0.96900  0.25200  1.0000
  O   O4        1.0  0.68800  0.30100  0.43100  1.0000
  O   O5        1.0  0.80300  0.79600  0.45200  1.0000
  O   O6        1.0  0.29900  0.70100  0.53900  1.0000
  O   O7        1.0  0.18500  0.19300  0.55100  1.0000
  O   O8        1.0  0.87400  0.53500  0.75300  1.0000
  O   O9        1.0  0.62800  0.05930  0.75300  1.0000
  O   O10       1.0  0.32100  0.69000  0.95100  1.0000
  O   O11       1.0  0.19400  0.19900  0.95400  1.0000
  Pd  Pd1       1.0  0.97700  0.48400  0.00309  1.0000
  Pd  Pd2       1.0  0.52000  0.02060  0.00335  1.0000
  Pd  Pd3       1.0  0.98900  0.49300  0.50000  1.0000
  Pd  Pd4       1.0  0.50500  0.00356  0.50500  1.0000
