data_image0
_chemical_formula_structural       Fe8Ge4Se16
_chemical_formula_sum              "Fe8 Ge4 Se16"
_cell_length_a       12.6884
_cell_length_b       7.29447
_cell_length_c       6.28117
_cell_angle_alpha    90
_cell_angle_beta     90
_cell_angle_gamma    90

_space_group_name_H-M_alt    "P 1"
_space_group_IT_number       1

loop_
  _space_group_symop_operation_xyz
  'x, y, z'

loop_
  _atom_site_type_symbol
  _atom_site_label
  _atom_site_symmetry_multiplicity
  _atom_site_fract_x
  _atom_site_fract_y
  _atom_site_fract_z
  _atom_site_occupancy
  Fe  Fe1       1.0  0.00000  0.00000  0.00000  1.0000
  Fe  Fe2       1.0  0.00000  0.50000  0.00000  1.0000
  Fe  Fe3       1.0  0.73700  0.25000  0.00505  1.0000
  Fe  Fe4       1.0  0.23700  0.25000  0.49500  1.0000
  Fe  Fe5       1.0  0.50000  0.00000  0.50000  1.0000
  Fe  Fe6       1.0  0.50000  0.50000  0.50000  1.0000
  Fe  Fe7       1.0  0.76300  0.75000  0.50500  1.0000
  Fe  Fe8       1.0  0.26300  0.75000  0.99500  1.0000
  Ge  Ge1       1.0  0.41300  0.25000  0.07660  1.0000
  Ge  Ge2       1.0  0.91300  0.25000  0.42300  1.0000
  Ge  Ge3       1.0  0.08740  0.75000  0.57700  1.0000
  Ge  Ge4       1.0  0.58700  0.75000  0.92300  1.0000
  Se  Se1       1.0  0.09070  0.75000  0.17800  1.0000
  Se  Se2       1.0  0.83200  0.50900  0.23700  1.0000
  Se  Se3       1.0  0.83200  0.99100  0.23700  1.0000
  Se  Se4       1.0  0.08330  0.25000  0.24300  1.0000
  Se  Se5       1.0  0.58300  0.25000  0.25700  1.0000
  Se  Se6       1.0  0.33200  0.50900  0.26300  1.0000
  Se  Se7       1.0  0.33200  0.99100  0.26300  1.0000
  Se  Se8       1.0  0.59100  0.75000  0.32200  1.0000
  Se  Se9       1.0  0.40900  0.25000  0.67800  1.0000
  Se  Se10      1.0  0.66800  0.00850  0.73700  1.0000
  Se  Se11      1.0  0.66800  0.49100  0.73700  1.0000
  Se  Se12      1.0  0.41700  0.75000  0.74300  1.0000
  Se  Se13      1.0  0.91700  0.75000  0.75700  1.0000
  Se  Se14      1.0  0.16800  0.00850  0.76300  1.0000
  Se  Se15      1.0  0.16800  0.49100  0.76300  1.0000
  Se  Se16      1.0  0.90900  0.25000  0.82200  1.0000
