data_image0
_chemical_formula_structural       Ce4Ga4O11
_chemical_formula_sum              "Ce4 Ga4 O11"
_cell_length_a       5.53855
_cell_length_b       5.57817
_cell_length_c       7.67269
_cell_angle_alpha    90
_cell_angle_beta     90
_cell_angle_gamma    90.1657

_space_group_name_H-M_alt    "P 1"
_space_group_IT_number       1

loop_
  _space_group_symop_operation_xyz
  'x, y, z'

loop_
  _atom_site_type_symbol
  _atom_site_label
  _atom_site_symmetry_multiplicity
  _atom_site_fract_x
  _atom_site_fract_y
  _atom_site_fract_z
  _atom_site_occupancy
  Ce  Ce1       1.0  0.98900  0.03910  0.25000  1.0000
  Ce  Ce2       1.0  0.50300  0.53600  0.25000  1.0000
  Ce  Ce3       1.0  0.49700  0.46500  0.75000  1.0000
  Ce  Ce4       1.0  0.00780  0.96000  0.75000  1.0000
  Ga  Ga1       1.0  0.49900  0.00039  0.00095  1.0000
  Ga  Ga2       1.0  0.00322  0.50100  0.01320  1.0000
  Ga  Ga3       1.0  0.00322  0.50100  0.48700  1.0000
  Ga  Ga4       1.0  0.49900  0.00039  0.49900  1.0000
  O   O1        1.0  0.77800  0.78200  0.04180  1.0000
  O   O2        1.0  0.71700  0.28100  0.04270  1.0000
  O   O3        1.0  0.42100  0.98400  0.25000  1.0000
  O   O4        1.0  0.71700  0.28100  0.45700  1.0000
  O   O5        1.0  0.77800  0.78200  0.45800  1.0000
  O   O6        1.0  0.22000  0.21700  0.53600  1.0000
  O   O7        1.0  0.28400  0.71700  0.53800  1.0000
  O   O8        1.0  0.57500  0.01470  0.75000  1.0000
  O   O9        1.0  0.92900  0.51500  0.75000  1.0000
  O   O10       1.0  0.28400  0.71700  0.96200  1.0000
  O   O11       1.0  0.22000  0.21700  0.96400  1.0000
