data_image0
_chemical_formula_structural       Al4Er4O11
_chemical_formula_sum              "Al4 Er4 O11"
_cell_length_a       5.1273
_cell_length_b       5.32494
_cell_length_c       7.33594
_cell_angle_alpha    90.1353
_cell_angle_beta     89.8668
_cell_angle_gamma    90.3494

_space_group_name_H-M_alt    "P 1"
_space_group_IT_number       1

loop_
  _space_group_symop_operation_xyz
  'x, y, z'

loop_
  _atom_site_type_symbol
  _atom_site_label
  _atom_site_symmetry_multiplicity
  _atom_site_fract_x
  _atom_site_fract_y
  _atom_site_fract_z
  _atom_site_occupancy
  Al  Al1       1.0  0.50100  0.00102  0.00065  1.0000
  Al  Al2       1.0  0.99400  0.49600  0.00105  1.0000
  Al  Al3       1.0  0.49900  0.99900  0.49900  1.0000
  Al  Al4       1.0  0.00118  0.50000  0.50000  1.0000
  Er  Er1       1.0  0.51900  0.55700  0.24500  1.0000
  Er  Er2       1.0  0.98500  0.05910  0.25000  1.0000
  Er  Er3       1.0  0.48500  0.44100  0.75000  1.0000
  Er  Er4       1.0  0.01410  0.94100  0.75100  1.0000
  O   O1        1.0  0.79700  0.79700  0.04790  1.0000
  O   O2        1.0  0.41200  0.97700  0.24900  1.0000
  O   O3        1.0  0.09170  0.47500  0.25100  1.0000
  O   O4        1.0  0.70100  0.29700  0.44900  1.0000
  O   O5        1.0  0.79700  0.79600  0.45200  1.0000
  O   O6        1.0  0.20100  0.20300  0.54800  1.0000
  O   O7        1.0  0.29800  0.70400  0.54800  1.0000
  O   O8        1.0  0.90800  0.52400  0.75000  1.0000
  O   O9        1.0  0.59200  0.02640  0.75100  1.0000
  O   O10       1.0  0.29900  0.70200  0.95400  1.0000
  O   O11       1.0  0.20300  0.20400  0.95400  1.0000
