data_image0
_chemical_formula_structural       Br18K4Nb6
_chemical_formula_sum              "Br18 K4 Nb6"
_cell_length_a       10.2489
_cell_length_b       10.3575
_cell_length_c       10.3575
_cell_angle_alpha    117.457
_cell_angle_beta     102.549
_cell_angle_gamma    102.549

_space_group_name_H-M_alt    "P 1"
_space_group_IT_number       1

loop_
  _space_group_symop_operation_xyz
  'x, y, z'

loop_
  _atom_site_type_symbol
  _atom_site_label
  _atom_site_symmetry_multiplicity
  _atom_site_fract_x
  _atom_site_fract_y
  _atom_site_fract_z
  _atom_site_occupancy
  Br  Br1       1.0  0.82100  0.60700  0.00291  1.0000
  Br  Br2       1.0  0.48800  0.30600  0.09760  1.0000
  Br  Br3       1.0  0.17200  0.18200  0.18200  1.0000
  Br  Br4       1.0  0.78900  0.23000  0.23000  1.0000
  Br  Br5       1.0  0.50000  0.70700  0.29300  1.0000
  Br  Br6       1.0  0.48800  0.09760  0.30600  1.0000
  Br  Br7       1.0  0.18500  0.58500  0.38000  1.0000
  Br  Br8       1.0  0.17900  0.99700  0.39300  1.0000
  Br  Br9       1.0  0.81500  0.62000  0.41500  1.0000
  Br  Br10      1.0  0.18500  0.38000  0.58500  1.0000
  Br  Br11      1.0  0.82100  0.00291  0.60700  1.0000
  Br  Br12      1.0  0.81500  0.41500  0.62000  1.0000
  Br  Br13      1.0  0.51200  0.90200  0.69400  1.0000
  Br  Br14      1.0  0.50000  0.29300  0.70700  1.0000
  Br  Br15      1.0  0.21100  0.77000  0.77000  1.0000
  Br  Br16      1.0  0.82800  0.81800  0.81800  1.0000
  Br  Br17      1.0  0.51200  0.69400  0.90200  1.0000
  Br  Br18      1.0  0.17900  0.39300  0.99700  1.0000
  K   K1        1.0  0.16900  0.73000  0.05180  1.0000
  K   K2        1.0  0.83100  0.94800  0.27000  1.0000
  K   K3        1.0  0.16900  0.05180  0.73000  1.0000
  K   K4        1.0  0.83100  0.27000  0.94800  1.0000
  Nb  Nb1       1.0  0.36600  0.45500  0.28700  1.0000
  Nb  Nb2       1.0  0.62400  0.38400  0.38400  1.0000
  Nb  Nb3       1.0  0.36600  0.28700  0.45500  1.0000
  Nb  Nb4       1.0  0.63400  0.71300  0.54500  1.0000
  Nb  Nb5       1.0  0.37600  0.61600  0.61600  1.0000
  Nb  Nb6       1.0  0.63400  0.54500  0.71300  1.0000
