data_image0
_chemical_formula_structural       As4K12Se12
_chemical_formula_sum              "As4 K12 Se12"
_cell_length_a       9.8617
_cell_length_b       9.8617
_cell_length_c       9.8617
_cell_angle_alpha    90
_cell_angle_beta     90
_cell_angle_gamma    90

_space_group_name_H-M_alt    "P 1"
_space_group_IT_number       1

loop_
  _space_group_symop_operation_xyz
  'x, y, z'

loop_
  _atom_site_type_symbol
  _atom_site_label
  _atom_site_symmetry_multiplicity
  _atom_site_fract_x
  _atom_site_fract_y
  _atom_site_fract_z
  _atom_site_occupancy
  As  As1       1.0  0.02330  0.02330  0.02330  1.0000
  As  As2       1.0  0.97700  0.52300  0.47700  1.0000
  As  As3       1.0  0.47700  0.97700  0.52300  1.0000
  As  As4       1.0  0.52300  0.47700  0.97700  1.0000
  K   K1        1.0  0.92300  0.42300  0.07740  1.0000
  K   K2        1.0  0.68400  0.81600  0.18400  1.0000
  K   K3        1.0  0.31300  0.68700  0.18700  1.0000
  K   K4        1.0  0.68700  0.18700  0.31300  1.0000
  K   K5        1.0  0.31600  0.31600  0.31600  1.0000
  K   K6        1.0  0.07740  0.92300  0.42300  1.0000
  K   K7        1.0  0.57700  0.57700  0.57700  1.0000
  K   K8        1.0  0.81600  0.18400  0.68400  1.0000
  K   K9        1.0  0.18700  0.31300  0.68700  1.0000
  K   K10       1.0  0.81300  0.81300  0.81300  1.0000
  K   K11       1.0  0.18400  0.68400  0.81600  1.0000
  K   K12       1.0  0.42300  0.07740  0.92300  1.0000
  Se  Se1       1.0  0.78900  0.09970  0.00543  1.0000
  Se  Se2       1.0  0.00543  0.78900  0.09970  1.0000
  Se  Se3       1.0  0.60000  0.49500  0.21100  1.0000
  Se  Se4       1.0  0.40000  0.99500  0.28900  1.0000
  Se  Se5       1.0  0.99500  0.28900  0.40000  1.0000
  Se  Se6       1.0  0.21100  0.60000  0.49500  1.0000
  Se  Se7       1.0  0.71100  0.90000  0.50500  1.0000
  Se  Se8       1.0  0.49500  0.21100  0.60000  1.0000
  Se  Se9       1.0  0.90000  0.50500  0.71100  1.0000
  Se  Se10      1.0  0.09970  0.00543  0.78900  1.0000
  Se  Se11      1.0  0.50500  0.71100  0.90000  1.0000
  Se  Se12      1.0  0.28900  0.40000  0.99500  1.0000
