data_image0
_chemical_formula_structural       Ba4O11Th4
_chemical_formula_sum              "Ba4 O11 Th4"
_cell_length_a       6.40392
_cell_length_b       6.44535
_cell_length_c       9.04485
_cell_angle_alpha    90.1219
_cell_angle_beta     90.0233
_cell_angle_gamma    89.7469

_space_group_name_H-M_alt    "P 1"
_space_group_IT_number       1

loop_
  _space_group_symop_operation_xyz
  'x, y, z'

loop_
  _atom_site_type_symbol
  _atom_site_label
  _atom_site_symmetry_multiplicity
  _atom_site_fract_x
  _atom_site_fract_y
  _atom_site_fract_z
  _atom_site_occupancy
  Ba  Ba1       1.0  0.99500  0.02290  0.25400  1.0000
  Ba  Ba2       1.0  0.51000  0.53400  0.25600  1.0000
  Ba  Ba3       1.0  0.49300  0.46800  0.74700  1.0000
  Ba  Ba4       1.0  0.00703  0.97300  0.75200  1.0000
  O   O1        1.0  0.78800  0.78200  0.05190  1.0000
  O   O2        1.0  0.41000  0.97000  0.24700  1.0000
  O   O3        1.0  0.09230  0.47100  0.24900  1.0000
  O   O4        1.0  0.78600  0.78900  0.44900  1.0000
  O   O5        1.0  0.70500  0.29400  0.45500  1.0000
  O   O6        1.0  0.28900  0.71100  0.54700  1.0000
  O   O7        1.0  0.20700  0.20900  0.55000  1.0000
  O   O8        1.0  0.59200  0.02790  0.75000  1.0000
  O   O9        1.0  0.90900  0.53200  0.75200  1.0000
  O   O10       1.0  0.28700  0.71300  0.94200  1.0000
  O   O11       1.0  0.21900  0.21300  0.94900  1.0000
  Th  Th1       1.0  0.49800  0.00067  0.50000  1.0000
  Th  Th2       1.0  0.99900  0.50100  0.50100  1.0000
  Th  Th3       1.0  0.50100  0.99400  0.99800  1.0000
  Th  Th4       1.0  0.00641  0.50000  0.00000  1.0000
