data_image0
_chemical_formula_structural       Cl10Fe2N8S8
_chemical_formula_sum              "Cl10 Fe2 N8 S8"
_cell_length_a       7.1421
_cell_length_b       9.12966
_cell_length_c       10.0827
_cell_angle_alpha    76.322
_cell_angle_beta     83.3577
_cell_angle_gamma    80.209

_space_group_name_H-M_alt    "P 1"
_space_group_IT_number       1

loop_
  _space_group_symop_operation_xyz
  'x, y, z'

loop_
  _atom_site_type_symbol
  _atom_site_label
  _atom_site_symmetry_multiplicity
  _atom_site_fract_x
  _atom_site_fract_y
  _atom_site_fract_z
  _atom_site_occupancy
  Cl  Cl1       1.0  0.75100  0.30500  0.06060  1.0000
  Cl  Cl2       1.0  0.21100  0.29900  0.19200  1.0000
  Cl  Cl3       1.0  0.03750  0.95200  0.19700  1.0000
  Cl  Cl4       1.0  0.43500  0.58100  0.31300  1.0000
  Cl  Cl5       1.0  0.81500  0.20300  0.42000  1.0000
  Cl  Cl6       1.0  0.18500  0.79700  0.58000  1.0000
  Cl  Cl7       1.0  0.56500  0.41900  0.68700  1.0000
  Cl  Cl8       1.0  0.96200  0.04820  0.80300  1.0000
  Cl  Cl9       1.0  0.78900  0.70100  0.80800  1.0000
  Cl  Cl10      1.0  0.24900  0.69500  0.93900  1.0000
  Fe  Fe1       1.0  0.95200  0.19000  0.21500  1.0000
  Fe  Fe2       1.0  0.04850  0.81000  0.78500  1.0000
  N   N1        1.0  0.56400  0.84300  0.10800  1.0000
  N   N2        1.0  0.82700  0.60700  0.18500  1.0000
  N   N3        1.0  0.56400  0.91900  0.35200  1.0000
  N   N4        1.0  0.82600  0.67300  0.43300  1.0000
  N   N5        1.0  0.17400  0.32700  0.56700  1.0000
  N   N6        1.0  0.43600  0.08150  0.64800  1.0000
  N   N7        1.0  0.17300  0.39300  0.81500  1.0000
  N   N8        1.0  0.43600  0.15700  0.89200  1.0000
  S   S1        1.0  0.62100  0.66200  0.13000  1.0000
  S   S2        1.0  0.52800  0.96700  0.19800  1.0000
  S   S3        1.0  0.93200  0.59800  0.31700  1.0000
  S   S4        1.0  0.66600  0.80100  0.47500  1.0000
  S   S5        1.0  0.33400  0.19900  0.52500  1.0000
  S   S6        1.0  0.06850  0.40200  0.68300  1.0000
  S   S7        1.0  0.47200  0.03270  0.80200  1.0000
  S   S8        1.0  0.37900  0.33800  0.87000  1.0000
