data_image0
_chemical_formula_structural       Au4Eu4O11
_chemical_formula_sum              "Au4 Eu4 O11"
_cell_length_a       5.53907
_cell_length_b       5.88685
_cell_length_c       7.74729
_cell_angle_alpha    90
_cell_angle_beta     90
_cell_angle_gamma    91.3131

_space_group_name_H-M_alt    "P 1"
_space_group_IT_number       1

loop_
  _space_group_symop_operation_xyz
  'x, y, z'

loop_
  _atom_site_type_symbol
  _atom_site_label
  _atom_site_symmetry_multiplicity
  _atom_site_fract_x
  _atom_site_fract_y
  _atom_site_fract_z
  _atom_site_occupancy
  Au  Au1       1.0  0.50200  0.00056  0.00222  1.0000
  Au  Au2       1.0  0.00238  0.50000  0.01730  1.0000
  Au  Au3       1.0  0.00238  0.50000  0.48300  1.0000
  Au  Au4       1.0  0.50200  0.00056  0.49800  1.0000
  Eu  Eu1       1.0  0.97200  0.06860  0.25000  1.0000
  Eu  Eu2       1.0  0.51400  0.57200  0.25000  1.0000
  Eu  Eu3       1.0  0.48100  0.43600  0.75000  1.0000
  Eu  Eu4       1.0  0.02300  0.92900  0.75000  1.0000
  O   O1        1.0  0.69200  0.30500  0.06230  1.0000
  O   O2        1.0  0.80700  0.79100  0.06250  1.0000
  O   O3        1.0  0.38100  0.96100  0.25000  1.0000
  O   O4        1.0  0.80700  0.79100  0.43800  1.0000
  O   O5        1.0  0.69200  0.30500  0.43800  1.0000
  O   O6        1.0  0.18900  0.20500  0.53800  1.0000
  O   O7        1.0  0.30900  0.69500  0.54400  1.0000
  O   O8        1.0  0.61400  0.04450  0.75000  1.0000
  O   O9        1.0  0.89900  0.53700  0.75000  1.0000
  O   O10       1.0  0.30900  0.69500  0.95600  1.0000
  O   O11       1.0  0.18900  0.20500  0.96200  1.0000
