data_image0
_chemical_formula_structural       Ce4Ge6O18
_chemical_formula_sum              "Ce4 Ge6 O18"
_cell_length_a       5.74281
_cell_length_b       7.71357
_cell_length_c       8.8236
_cell_angle_alpha    108.218
_cell_angle_beta     108.376
_cell_angle_gamma    91.3033

_space_group_name_H-M_alt    "P 1"
_space_group_IT_number       1

loop_
  _space_group_symop_operation_xyz
  'x, y, z'

loop_
  _atom_site_type_symbol
  _atom_site_label
  _atom_site_symmetry_multiplicity
  _atom_site_fract_x
  _atom_site_fract_y
  _atom_site_fract_z
  _atom_site_occupancy
  Ce  Ce1       1.0  0.12900  0.20000  0.21500  1.0000
  Ce  Ce2       1.0  0.19000  0.81600  0.41600  1.0000
  Ce  Ce3       1.0  0.81000  0.18400  0.58400  1.0000
  Ce  Ce4       1.0  0.87100  0.80000  0.78500  1.0000
  Ge  Ge1       1.0  0.23800  0.51300  0.00236  1.0000
  Ge  Ge2       1.0  0.57200  0.92800  0.14800  1.0000
  Ge  Ge3       1.0  0.66400  0.51500  0.34000  1.0000
  Ge  Ge4       1.0  0.33600  0.48500  0.66000  1.0000
  Ge  Ge5       1.0  0.42800  0.07230  0.85200  1.0000
  Ge  Ge6       1.0  0.76200  0.48700  0.99800  1.0000
  O   O1        1.0  0.71100  0.00815  0.00137  1.0000
  O   O2        1.0  0.53300  0.67300  0.04530  1.0000
  O   O3        1.0  0.01110  0.68000  0.04670  1.0000
  O   O4        1.0  0.87300  0.48400  0.22300  1.0000
  O   O5        1.0  0.35000  0.53700  0.23500  1.0000
  O   O6        1.0  0.87900  0.98900  0.30300  1.0000
  O   O7        1.0  0.42000  0.97200  0.30600  1.0000
  O   O8        1.0  0.60000  0.31700  0.37900  1.0000
  O   O9        1.0  0.82300  0.71600  0.49800  1.0000
  O   O10       1.0  0.17700  0.28400  0.50200  1.0000
  O   O11       1.0  0.40000  0.68300  0.62100  1.0000
  O   O12       1.0  0.58000  0.02760  0.69400  1.0000
  O   O13       1.0  0.12100  0.01110  0.69700  1.0000
  O   O14       1.0  0.65000  0.46300  0.76500  1.0000
  O   O15       1.0  0.12700  0.51600  0.77700  1.0000
  O   O16       1.0  0.98900  0.32000  0.95300  1.0000
  O   O17       1.0  0.46700  0.32700  0.95500  1.0000
  O   O18       1.0  0.28900  0.99200  0.99900  1.0000
