data_image0
_chemical_formula_structural       Ce4Mn4O11
_chemical_formula_sum              "Ce4 Mn4 O11"
_cell_length_a       5.55946
_cell_length_b       5.72911
_cell_length_c       7.91385
_cell_angle_alpha    90
_cell_angle_beta     90
_cell_angle_gamma    89.7908

_space_group_name_H-M_alt    "P 1"
_space_group_IT_number       1

loop_
  _space_group_symop_operation_xyz
  'x, y, z'

loop_
  _atom_site_type_symbol
  _atom_site_label
  _atom_site_symmetry_multiplicity
  _atom_site_fract_x
  _atom_site_fract_y
  _atom_site_fract_z
  _atom_site_occupancy
  Ce  Ce1       1.0  0.98600  0.04620  0.25000  1.0000
  Ce  Ce2       1.0  0.52000  0.55900  0.25000  1.0000
  Ce  Ce3       1.0  0.48100  0.45000  0.75000  1.0000
  Ce  Ce4       1.0  0.01130  0.95300  0.75000  1.0000
  Mn  Mn1       1.0  0.50300  0.00019  0.00246  1.0000
  Mn  Mn2       1.0  0.50300  0.00019  0.49800  1.0000
  Mn  Mn3       1.0  0.99700  0.49700  0.50700  1.0000
  Mn  Mn4       1.0  0.99700  0.49700  0.99300  1.0000
  O   O1        1.0  0.73000  0.29800  0.06080  1.0000
  O   O2        1.0  0.80600  0.77300  0.06290  1.0000
  O   O3        1.0  0.40700  0.97500  0.25000  1.0000
  O   O4        1.0  0.80600  0.77300  0.43700  1.0000
  O   O5        1.0  0.73000  0.29800  0.43900  1.0000
  O   O6        1.0  0.28400  0.69300  0.53700  1.0000
  O   O7        1.0  0.19800  0.21800  0.53900  1.0000
  O   O8        1.0  0.59100  0.03030  0.75000  1.0000
  O   O9        1.0  0.89000  0.54300  0.75000  1.0000
  O   O10       1.0  0.19800  0.21800  0.96100  1.0000
  O   O11       1.0  0.28400  0.69300  0.96300  1.0000
