data_image0
_chemical_formula_structural       Ag4Ce4O11
_chemical_formula_sum              "Ag4 Ce4 O11"
_cell_length_a       5.62667
_cell_length_b       6.12772
_cell_length_c       7.93123
_cell_angle_alpha    90
_cell_angle_beta     90
_cell_angle_gamma    88.7512

_space_group_name_H-M_alt    "P 1"
_space_group_IT_number       1

loop_
  _space_group_symop_operation_xyz
  'x, y, z'

loop_
  _atom_site_type_symbol
  _atom_site_label
  _atom_site_symmetry_multiplicity
  _atom_site_fract_x
  _atom_site_fract_y
  _atom_site_fract_z
  _atom_site_occupancy
  Ag  Ag1       1.0  0.00525  0.49400  0.01300  1.0000
  Ag  Ag2       1.0  0.00525  0.49400  0.48700  1.0000
  Ag  Ag3       1.0  0.50100  0.00000  0.50100  1.0000
  Ag  Ag4       1.0  0.50100  0.00000  0.99900  1.0000
  Ce  Ce1       1.0  0.96800  0.07010  0.25000  1.0000
  Ce  Ce2       1.0  0.52600  0.58900  0.25000  1.0000
  Ce  Ce3       1.0  0.48900  0.42800  0.75000  1.0000
  Ce  Ce4       1.0  0.02080  0.91700  0.75000  1.0000
  O   O1        1.0  0.70800  0.31800  0.06640  1.0000
  O   O2        1.0  0.81500  0.79400  0.06940  1.0000
  O   O3        1.0  0.38900  0.97500  0.25000  1.0000
  O   O4        1.0  0.81500  0.79400  0.43100  1.0000
  O   O5        1.0  0.70800  0.31800  0.43400  1.0000
  O   O6        1.0  0.30200  0.67200  0.54100  1.0000
  O   O7        1.0  0.17600  0.19200  0.54200  1.0000
  O   O8        1.0  0.62000  0.04840  0.75000  1.0000
  O   O9        1.0  0.85900  0.57000  0.75000  1.0000
  O   O10       1.0  0.17600  0.19200  0.95800  1.0000
  O   O11       1.0  0.30200  0.67200  0.95900  1.0000
