data_image0
_chemical_formula_structural       C8Ca4O16
_chemical_formula_sum              "C8 Ca4 O16"
_cell_length_a       6.07798
_cell_length_b       7.23985
_cell_length_c       9.54111
_cell_angle_alpha    90
_cell_angle_beta     88.8101
_cell_angle_gamma    90

_space_group_name_H-M_alt    "P 1"
_space_group_IT_number       1

loop_
  _space_group_symop_operation_xyz
  'x, y, z'

loop_
  _atom_site_type_symbol
  _atom_site_label
  _atom_site_symmetry_multiplicity
  _atom_site_fract_x
  _atom_site_fract_y
  _atom_site_fract_z
  _atom_site_occupancy
  C   C1        1.0  0.50000  0.10700  0.00000  1.0000
  C   C2        1.0  0.50000  0.89300  0.00000  1.0000
  C   C3        1.0  0.92800  0.50000  0.06870  1.0000
  C   C4        1.0  0.93300  0.00000  0.43100  1.0000
  C   C5        1.0  0.50000  0.39300  0.50000  1.0000
  C   C6        1.0  0.50000  0.60700  0.50000  1.0000
  C   C7        1.0  0.06680  0.00000  0.56900  1.0000
  C   C8        1.0  0.07170  0.50000  0.93100  1.0000
  Ca  Ca1       1.0  0.40200  0.50000  0.18300  1.0000
  Ca  Ca2       1.0  0.41300  0.00000  0.31800  1.0000
  Ca  Ca3       1.0  0.58700  0.00000  0.68200  1.0000
  Ca  Ca4       1.0  0.59800  0.50000  0.81700  1.0000
  O   O1        1.0  0.72200  0.50000  0.05030  1.0000
  O   O2        1.0  0.44800  0.18500  0.11400  1.0000
  O   O3        1.0  0.44800  0.81500  0.11400  1.0000
  O   O4        1.0  0.02140  0.50000  0.18500  1.0000
  O   O5        1.0  0.03420  0.00000  0.31500  1.0000
  O   O6        1.0  0.44900  0.31600  0.38700  1.0000
  O   O7        1.0  0.44900  0.68400  0.38700  1.0000
  O   O8        1.0  0.72600  0.00000  0.44900  1.0000
  O   O9        1.0  0.27400  0.00000  0.55100  1.0000
  O   O10       1.0  0.55100  0.31600  0.61300  1.0000
  O   O11       1.0  0.55100  0.68400  0.61300  1.0000
  O   O12       1.0  0.96600  0.00000  0.68500  1.0000
  O   O13       1.0  0.97900  0.50000  0.81500  1.0000
  O   O14       1.0  0.55200  0.18500  0.88600  1.0000
  O   O15       1.0  0.55200  0.81500  0.88600  1.0000
  O   O16       1.0  0.27800  0.50000  0.95000  1.0000
