data_image0
_chemical_formula_structural       Al4Sb12Sr12
_chemical_formula_sum              "Al4 Sb12 Sr12"
_cell_length_a       6.95607
_cell_length_b       10.8654
_cell_length_c       13.6183
_cell_angle_alpha    90
_cell_angle_beta     90
_cell_angle_gamma    71.331

_space_group_name_H-M_alt    "P 1"
_space_group_IT_number       1

loop_
  _space_group_symop_operation_xyz
  'x, y, z'

loop_
  _atom_site_type_symbol
  _atom_site_label
  _atom_site_symmetry_multiplicity
  _atom_site_fract_x
  _atom_site_fract_y
  _atom_site_fract_z
  _atom_site_occupancy
  Al  Al1       1.0  0.91400  0.17300  0.00000  1.0000
  Al  Al2       1.0  0.08630  0.82700  0.00000  1.0000
  Al  Al3       1.0  0.41400  0.17300  0.50000  1.0000
  Al  Al4       1.0  0.58600  0.82700  0.50000  1.0000
  Sb  Sb1       1.0  0.78700  0.00000  0.10800  1.0000
  Sb  Sb2       1.0  0.05070  0.32100  0.12300  1.0000
  Sb  Sb3       1.0  0.37200  0.67900  0.12300  1.0000
  Sb  Sb4       1.0  0.55100  0.32100  0.37700  1.0000
  Sb  Sb5       1.0  0.87200  0.67900  0.37700  1.0000
  Sb  Sb6       1.0  0.28700  0.00000  0.39200  1.0000
  Sb  Sb7       1.0  0.71300  0.00000  0.60800  1.0000
  Sb  Sb8       1.0  0.12800  0.32100  0.62300  1.0000
  Sb  Sb9       1.0  0.44900  0.67900  0.62300  1.0000
  Sb  Sb10      1.0  0.62800  0.32100  0.87700  1.0000
  Sb  Sb11      1.0  0.94900  0.67900  0.87700  1.0000
  Sb  Sb12      1.0  0.21300  0.00000  0.89200  1.0000
  Sr  Sr1       1.0  0.52100  0.35100  0.12900  1.0000
  Sr  Sr2       1.0  0.87200  0.64900  0.12900  1.0000
  Sr  Sr3       1.0  0.30900  0.00000  0.14600  1.0000
  Sr  Sr4       1.0  0.80900  0.00000  0.35400  1.0000
  Sr  Sr5       1.0  0.02090  0.35100  0.37100  1.0000
  Sr  Sr6       1.0  0.37200  0.64900  0.37100  1.0000
  Sr  Sr7       1.0  0.62800  0.35100  0.62900  1.0000
  Sr  Sr8       1.0  0.97900  0.64900  0.62900  1.0000
  Sr  Sr9       1.0  0.19100  0.00000  0.64600  1.0000
  Sr  Sr10      1.0  0.69100  0.00000  0.85400  1.0000
  Sr  Sr11      1.0  0.12800  0.35100  0.87100  1.0000
  Sr  Sr12      1.0  0.47900  0.64900  0.87100  1.0000
