data_image0
_chemical_formula_structural       Ge4Na4O16Yb4
_chemical_formula_sum              "Ge4 Na4 O16 Yb4"
_cell_length_a       5.29056
_cell_length_b       6.35128
_cell_length_c       11.3779
_cell_angle_alpha    90
_cell_angle_beta     90
_cell_angle_gamma    90

_space_group_name_H-M_alt    "P 1"
_space_group_IT_number       1

loop_
  _space_group_symop_operation_xyz
  'x, y, z'

loop_
  _atom_site_type_symbol
  _atom_site_label
  _atom_site_symmetry_multiplicity
  _atom_site_fract_x
  _atom_site_fract_y
  _atom_site_fract_z
  _atom_site_occupancy
  Ge  Ge1       1.0  0.94600  0.75000  0.09680  1.0000
  Ge  Ge2       1.0  0.44600  0.25000  0.40300  1.0000
  Ge  Ge3       1.0  0.55400  0.75000  0.59700  1.0000
  Ge  Ge4       1.0  0.05440  0.25000  0.90300  1.0000
  Na  Na1       1.0  0.50000  0.00000  0.00000  1.0000
  Na  Na2       1.0  0.50000  0.50000  0.00000  1.0000
  Na  Na3       1.0  0.00000  0.00000  0.50000  1.0000
  Na  Na4       1.0  0.00000  0.50000  0.50000  1.0000
  O   O1        1.0  0.18500  0.25000  0.04650  1.0000
  O   O2        1.0  0.27300  0.75000  0.10500  1.0000
  O   O3        1.0  0.79000  0.53600  0.16800  1.0000
  O   O4        1.0  0.79000  0.96400  0.16800  1.0000
  O   O5        1.0  0.29000  0.03630  0.33200  1.0000
  O   O6        1.0  0.29000  0.46400  0.33200  1.0000
  O   O7        1.0  0.77300  0.25000  0.39500  1.0000
  O   O8        1.0  0.68500  0.75000  0.45400  1.0000
  O   O9        1.0  0.31500  0.25000  0.54600  1.0000
  O   O10       1.0  0.22700  0.75000  0.60500  1.0000
  O   O11       1.0  0.71000  0.53600  0.66800  1.0000
  O   O12       1.0  0.71000  0.96400  0.66800  1.0000
  O   O13       1.0  0.21000  0.03630  0.83200  1.0000
  O   O14       1.0  0.21000  0.46400  0.83200  1.0000
  O   O15       1.0  0.72700  0.25000  0.89500  1.0000
  O   O16       1.0  0.81500  0.75000  0.95400  1.0000
  Yb  Yb1       1.0  0.00569  0.25000  0.22600  1.0000
  Yb  Yb2       1.0  0.50600  0.75000  0.27400  1.0000
  Yb  Yb3       1.0  0.49400  0.25000  0.72600  1.0000
  Yb  Yb4       1.0  0.99400  0.75000  0.77400  1.0000
