data_image0
_chemical_formula_structural       Eu4Fe4O11
_chemical_formula_sum              "Eu4 Fe4 O11"
_cell_length_a       5.40002
_cell_length_b       5.34956
_cell_length_c       7.56458
_cell_angle_alpha    89.7588
_cell_angle_beta     89.8337
_cell_angle_gamma    90.3181

_space_group_name_H-M_alt    "P 1"
_space_group_IT_number       1

loop_
  _space_group_symop_operation_xyz
  'x, y, z'

loop_
  _atom_site_type_symbol
  _atom_site_label
  _atom_site_symmetry_multiplicity
  _atom_site_fract_x
  _atom_site_fract_y
  _atom_site_fract_z
  _atom_site_occupancy
  Eu  Eu1       1.0  0.49200  0.52100  0.26600  1.0000
  Eu  Eu2       1.0  0.01350  0.00054  0.26800  1.0000
  Eu  Eu3       1.0  0.48800  0.49100  0.73500  1.0000
  Eu  Eu4       1.0  0.00937  0.98200  0.74300  1.0000
  Fe  Fe1       1.0  0.50600  0.00604  0.50300  1.0000
  Fe  Fe2       1.0  0.99300  0.49400  0.50300  1.0000
  Fe  Fe3       1.0  0.49100  0.99000  0.99800  1.0000
  Fe  Fe4       1.0  0.01020  0.50900  0.99900  1.0000
  O   O1        1.0  0.76900  0.76900  0.03250  1.0000
  O   O2        1.0  0.47600  0.02780  0.24100  1.0000
  O   O3        1.0  0.02260  0.47100  0.24200  1.0000
  O   O4        1.0  0.73200  0.26700  0.47400  1.0000
  O   O5        1.0  0.76300  0.76400  0.48200  1.0000
  O   O6        1.0  0.26300  0.73800  0.51200  1.0000
  O   O7        1.0  0.23500  0.23500  0.52300  1.0000
  O   O8        1.0  0.93000  0.47800  0.76100  1.0000
  O   O9        1.0  0.57000  0.03210  0.76100  1.0000
  O   O10       1.0  0.27300  0.72700  0.96000  1.0000
  O   O11       1.0  0.23100  0.22900  0.97400  1.0000
