data_image0
_chemical_formula_structural       Ac4Fe4O11
_chemical_formula_sum              "Ac4 Fe4 O11"
_cell_length_a       5.68661
_cell_length_b       5.65246
_cell_length_c       7.91031
_cell_angle_alpha    90
_cell_angle_beta     90
_cell_angle_gamma    89.9319

_space_group_name_H-M_alt    "P 1"
_space_group_IT_number       1

loop_
  _space_group_symop_operation_xyz
  'x, y, z'

loop_
  _atom_site_type_symbol
  _atom_site_label
  _atom_site_symmetry_multiplicity
  _atom_site_fract_x
  _atom_site_fract_y
  _atom_site_fract_z
  _atom_site_occupancy
  Ac  Ac1       1.0  0.99700  0.02210  0.25000  1.0000
  Ac  Ac2       1.0  0.49900  0.52500  0.25000  1.0000
  Ac  Ac3       1.0  0.48900  0.47900  0.75000  1.0000
  Ac  Ac4       1.0  0.00644  0.98100  0.75000  1.0000
  Fe  Fe1       1.0  0.50300  0.00042  0.00400  1.0000
  Fe  Fe2       1.0  0.50300  0.00042  0.49600  1.0000
  Fe  Fe3       1.0  0.99500  0.50000  0.50400  1.0000
  Fe  Fe4       1.0  0.99500  0.50000  0.99600  1.0000
  O   O1        1.0  0.77900  0.76700  0.04630  1.0000
  O   O2        1.0  0.73900  0.27700  0.04820  1.0000
  O   O3        1.0  0.43500  0.99200  0.25000  1.0000
  O   O4        1.0  0.73900  0.27700  0.45200  1.0000
  O   O5        1.0  0.77900  0.76700  0.45400  1.0000
  O   O6        1.0  0.27100  0.71900  0.52300  1.0000
  O   O7        1.0  0.22500  0.23000  0.52500  1.0000
  O   O8        1.0  0.56500  0.00844  0.75000  1.0000
  O   O9        1.0  0.93000  0.51100  0.75000  1.0000
  O   O10       1.0  0.22500  0.23000  0.97500  1.0000
  O   O11       1.0  0.27100  0.71900  0.97700  1.0000
