data_image0
_chemical_formula_structural       Eu4Mo4O11
_chemical_formula_sum              "Eu4 Mo4 O11"
_cell_length_a       5.51135
_cell_length_b       5.56617
_cell_length_c       7.71573
_cell_angle_alpha    90
_cell_angle_beta     90
_cell_angle_gamma    90.1033

_space_group_name_H-M_alt    "P 1"
_space_group_IT_number       1

loop_
  _space_group_symop_operation_xyz
  'x, y, z'

loop_
  _atom_site_type_symbol
  _atom_site_label
  _atom_site_symmetry_multiplicity
  _atom_site_fract_x
  _atom_site_fract_y
  _atom_site_fract_z
  _atom_site_occupancy
  Eu  Eu1       1.0  0.99900  0.02620  0.25000  1.0000
  Eu  Eu2       1.0  0.50500  0.53700  0.25000  1.0000
  Eu  Eu3       1.0  0.49700  0.47100  0.75000  1.0000
  Eu  Eu4       1.0  0.00615  0.95700  0.75000  1.0000
  Mo  Mo1       1.0  0.50200  0.00201  0.00120  1.0000
  Mo  Mo2       1.0  0.00000  0.50100  0.01890  1.0000
  Mo  Mo3       1.0  0.00000  0.50100  0.48100  1.0000
  Mo  Mo4       1.0  0.50200  0.00201  0.49900  1.0000
  O   O1        1.0  0.78200  0.78100  0.03440  1.0000
  O   O2        1.0  0.71900  0.28100  0.03750  1.0000
  O   O3        1.0  0.43400  0.98700  0.25000  1.0000
  O   O4        1.0  0.71900  0.28100  0.46300  1.0000
  O   O5        1.0  0.78200  0.78100  0.46600  1.0000
  O   O6        1.0  0.21700  0.22000  0.52000  1.0000
  O   O7        1.0  0.28400  0.71700  0.52400  1.0000
  O   O8        1.0  0.55900  0.01260  0.75000  1.0000
  O   O9        1.0  0.93200  0.51600  0.75000  1.0000
  O   O10       1.0  0.28400  0.71700  0.97600  1.0000
  O   O11       1.0  0.21700  0.22000  0.98000  1.0000
