data_image0
_chemical_formula_structural       Ba4Ir6O18
_chemical_formula_sum              "Ba4 Ir6 O18"
_cell_length_a       8.15742
_cell_length_b       8.15742
_cell_length_c       8.15742
_cell_angle_alpha    109.471
_cell_angle_beta     109.471
_cell_angle_gamma    109.471

_space_group_name_H-M_alt    "P 1"
_space_group_IT_number       1

loop_
  _space_group_symop_operation_xyz
  'x, y, z'

loop_
  _atom_site_type_symbol
  _atom_site_label
  _atom_site_symmetry_multiplicity
  _atom_site_fract_x
  _atom_site_fract_y
  _atom_site_fract_z
  _atom_site_occupancy
  Ba  Ba1       1.0  0.63100  0.00000  0.00000  1.0000
  Ba  Ba2       1.0  0.00000  0.63100  0.00000  1.0000
  Ba  Ba3       1.0  0.36900  0.36900  0.36900  1.0000
  Ba  Ba4       1.0  0.00000  0.00000  0.63100  1.0000
  Ir  Ir1       1.0  0.50000  0.65600  0.15600  1.0000
  Ir  Ir2       1.0  0.84400  0.50000  0.34400  1.0000
  Ir  Ir3       1.0  0.65600  0.15600  0.50000  1.0000
  Ir  Ir4       1.0  0.34400  0.84400  0.50000  1.0000
  Ir  Ir5       1.0  0.15600  0.50000  0.65600  1.0000
  Ir  Ir6       1.0  0.50000  0.34400  0.84400  1.0000
  O   O1        1.0  0.35300  0.35300  0.00000  1.0000
  O   O2        1.0  0.64700  0.64700  0.00000  1.0000
  O   O3        1.0  0.72500  0.36000  0.04910  1.0000
  O   O4        1.0  0.32400  0.63500  0.27500  1.0000
  O   O5        1.0  0.67600  0.95100  0.31100  1.0000
  O   O6        1.0  0.63500  0.27500  0.32400  1.0000
  O   O7        1.0  0.35300  0.00000  0.35300  1.0000
  O   O8        1.0  0.00000  0.35300  0.35300  1.0000
  O   O9        1.0  0.04910  0.72500  0.36000  1.0000
  O   O10       1.0  0.68900  0.64000  0.36500  1.0000
  O   O11       1.0  0.27500  0.32400  0.63500  1.0000
  O   O12       1.0  0.36500  0.68900  0.64000  1.0000
  O   O13       1.0  0.64700  0.00000  0.64700  1.0000
  O   O14       1.0  0.00000  0.64700  0.64700  1.0000
  O   O15       1.0  0.95100  0.31100  0.67600  1.0000
  O   O16       1.0  0.64000  0.36500  0.68900  1.0000
  O   O17       1.0  0.36000  0.04910  0.72500  1.0000
  O   O18       1.0  0.31100  0.67600  0.95100  1.0000
