data_image0
_chemical_formula_structural       Ce4O11Sc4
_chemical_formula_sum              "Ce4 O11 Sc4"
_cell_length_a       5.65079
_cell_length_b       5.80222
_cell_length_c       8.05237
_cell_angle_alpha    90
_cell_angle_beta     90
_cell_angle_gamma    89.9329

_space_group_name_H-M_alt    "P 1"
_space_group_IT_number       1

loop_
  _space_group_symop_operation_xyz
  'x, y, z'

loop_
  _atom_site_type_symbol
  _atom_site_label
  _atom_site_symmetry_multiplicity
  _atom_site_fract_x
  _atom_site_fract_y
  _atom_site_fract_z
  _atom_site_occupancy
  Ce  Ce1       1.0  0.99200  0.04020  0.25000  1.0000
  Ce  Ce2       1.0  0.52200  0.55000  0.25000  1.0000
  Ce  Ce3       1.0  0.48700  0.45200  0.75000  1.0000
  Ce  Ce4       1.0  0.01060  0.95100  0.75000  1.0000
  O   O1        1.0  0.79600  0.79600  0.04820  1.0000
  O   O2        1.0  0.70400  0.29600  0.05060  1.0000
  O   O3        1.0  0.40400  0.96800  0.25000  1.0000
  O   O4        1.0  0.70400  0.29600  0.44900  1.0000
  O   O5        1.0  0.79600  0.79600  0.45200  1.0000
  O   O6        1.0  0.20100  0.20500  0.54900  1.0000
  O   O7        1.0  0.29500  0.70300  0.55100  1.0000
  O   O8        1.0  0.59700  0.03580  0.75000  1.0000
  O   O9        1.0  0.89900  0.53500  0.75000  1.0000
  O   O10       1.0  0.29500  0.70300  0.94900  1.0000
  O   O11       1.0  0.20100  0.20500  0.95100  1.0000
  Sc  Sc1       1.0  0.50000  0.00087  0.00052  1.0000
  Sc  Sc2       1.0  0.50000  0.00087  0.49900  1.0000
  Sc  Sc3       1.0  0.99800  0.49900  0.50100  1.0000
  Sc  Sc4       1.0  0.99800  0.49900  0.99900  1.0000
