data_image0
_chemical_formula_structural       K2O5Sb2
_chemical_formula_sum              "K2 O5 Sb2"
_cell_length_a       5.55784
_cell_length_b       5.72839
_cell_length_c       6.18822
_cell_angle_alpha    68.6392
_cell_angle_beta     67.408
_cell_angle_gamma    61.8728

_space_group_name_H-M_alt    "P 1"
_space_group_IT_number       1

loop_
  _space_group_symop_operation_xyz
  'x, y, z'

loop_
  _atom_site_type_symbol
  _atom_site_label
  _atom_site_symmetry_multiplicity
  _atom_site_fract_x
  _atom_site_fract_y
  _atom_site_fract_z
  _atom_site_occupancy
  K   K1        1.0  0.65800  0.62600  0.09600  1.0000
  K   K2        1.0  0.40800  0.34700  0.87000  1.0000
  O   O1        1.0  0.12000  0.10200  0.26400  1.0000
  O   O2        1.0  0.51000  0.22500  0.35100  1.0000
  O   O3        1.0  0.46200  0.80800  0.69400  1.0000
  O   O4        1.0  0.97600  0.41100  0.70900  1.0000
  O   O5        1.0  0.88600  0.94400  0.71400  1.0000
  Sb  Sb1       1.0  0.84100  0.86000  0.44500  1.0000
  Sb  Sb2       1.0  0.17500  0.11900  0.54900  1.0000
