data_image0
_chemical_formula_structural       As4Na12Se12
_chemical_formula_sum              "As4 Na12 Se12"
_cell_length_a       8.88328
_cell_length_b       8.88328
_cell_length_c       8.88328
_cell_angle_alpha    90
_cell_angle_beta     90
_cell_angle_gamma    90

_space_group_name_H-M_alt    "P 1"
_space_group_IT_number       1

loop_
  _space_group_symop_operation_xyz
  'x, y, z'

loop_
  _atom_site_type_symbol
  _atom_site_label
  _atom_site_symmetry_multiplicity
  _atom_site_fract_x
  _atom_site_fract_y
  _atom_site_fract_z
  _atom_site_occupancy
  As  As1       1.0  0.02970  0.02970  0.02970  1.0000
  As  As2       1.0  0.97000  0.53000  0.47000  1.0000
  As  As3       1.0  0.47000  0.97000  0.53000  1.0000
  As  As4       1.0  0.53000  0.47000  0.97000  1.0000
  Na  Na1       1.0  0.91700  0.41700  0.08310  1.0000
  Na  Na2       1.0  0.67900  0.82100  0.17900  1.0000
  Na  Na3       1.0  0.31400  0.68600  0.18600  1.0000
  Na  Na4       1.0  0.68600  0.18600  0.31400  1.0000
  Na  Na5       1.0  0.32100  0.32100  0.32100  1.0000
  Na  Na6       1.0  0.08310  0.91700  0.41700  1.0000
  Na  Na7       1.0  0.58300  0.58300  0.58300  1.0000
  Na  Na8       1.0  0.82100  0.17900  0.67900  1.0000
  Na  Na9       1.0  0.18600  0.31400  0.68600  1.0000
  Na  Na10      1.0  0.81400  0.81400  0.81400  1.0000
  Na  Na11      1.0  0.17900  0.67900  0.82100  1.0000
  Na  Na12      1.0  0.41700  0.08310  0.91700  1.0000
  Se  Se1       1.0  0.77000  0.11200  0.00045  1.0000
  Se  Se2       1.0  0.00045  0.77000  0.11200  1.0000
  Se  Se3       1.0  0.61200  0.50000  0.23000  1.0000
  Se  Se4       1.0  0.38800  0.00000  0.27000  1.0000
  Se  Se5       1.0  0.00000  0.27000  0.38800  1.0000
  Se  Se6       1.0  0.23000  0.61200  0.50000  1.0000
  Se  Se7       1.0  0.73000  0.88800  0.50000  1.0000
  Se  Se8       1.0  0.50000  0.23000  0.61200  1.0000
  Se  Se9       1.0  0.88800  0.50000  0.73000  1.0000
  Se  Se10      1.0  0.11200  0.00045  0.77000  1.0000
  Se  Se11      1.0  0.50000  0.73000  0.88800  1.0000
  Se  Se12      1.0  0.27000  0.38800  0.00000  1.0000
