data_image0
_chemical_formula_structural       Ba4O11Pb4
_chemical_formula_sum              "Ba4 O11 Pb4"
_cell_length_a       6.056
_cell_length_b       6.00986
_cell_length_c       8.61679
_cell_angle_alpha    90.0654
_cell_angle_beta     89.9051
_cell_angle_gamma    90.8057

_space_group_name_H-M_alt    "P 1"
_space_group_IT_number       1

loop_
  _space_group_symop_operation_xyz
  'x, y, z'

loop_
  _atom_site_type_symbol
  _atom_site_label
  _atom_site_symmetry_multiplicity
  _atom_site_fract_x
  _atom_site_fract_y
  _atom_site_fract_z
  _atom_site_occupancy
  Ba  Ba1       1.0  0.50300  0.52400  0.25200  1.0000
  Ba  Ba2       1.0  0.99800  0.02070  0.25200  1.0000
  Ba  Ba3       1.0  0.49400  0.47900  0.74800  1.0000
  Ba  Ba4       1.0  0.00553  0.97600  0.74800  1.0000
  O   O1        1.0  0.77900  0.78000  0.03490  1.0000
  O   O2        1.0  0.06340  0.48800  0.25000  1.0000
  O   O3        1.0  0.43600  0.99000  0.25000  1.0000
  O   O4        1.0  0.72000  0.28000  0.46400  1.0000
  O   O5        1.0  0.78000  0.78000  0.46500  1.0000
  O   O6        1.0  0.28100  0.72000  0.53500  1.0000
  O   O7        1.0  0.22000  0.22000  0.53500  1.0000
  O   O8        1.0  0.93500  0.51000  0.75100  1.0000
  O   O9        1.0  0.56500  0.01220  0.75100  1.0000
  O   O10       1.0  0.28000  0.72000  0.96600  1.0000
  O   O11       1.0  0.22000  0.22100  0.96600  1.0000
  Pb  Pb1       1.0  0.50000  0.00045  0.50000  1.0000
  Pb  Pb2       1.0  0.00000  0.50000  0.50000  1.0000
  Pb  Pb3       1.0  0.00415  0.50300  0.99900  1.0000
  Pb  Pb4       1.0  0.49700  0.99600  0.99900  1.0000
