data_image0
_chemical_formula_structural       F8H16O4
_chemical_formula_sum              "F8 H16 O4"
_cell_length_a       2.97008
_cell_length_b       5.50203
_cell_length_c       10.466
_cell_angle_alpha    90
_cell_angle_beta     99.5852
_cell_angle_gamma    90

_space_group_name_H-M_alt    "P 1"
_space_group_IT_number       1

loop_
  _space_group_symop_operation_xyz
  'x, y, z'

loop_
  _atom_site_type_symbol
  _atom_site_label
  _atom_site_symmetry_multiplicity
  _atom_site_fract_x
  _atom_site_fract_y
  _atom_site_fract_z
  _atom_site_occupancy
  F   F1        1.0  0.34700  0.30800  0.43300  1.0000
  F   F2        1.0  0.65300  0.80800  0.06750  1.0000
  F   F3        1.0  0.65300  0.69200  0.56700  1.0000
  F   F4        1.0  0.34700  0.19200  0.93300  1.0000
  F   F5        1.0  0.59800  0.54900  0.28100  1.0000
  F   F6        1.0  0.40200  0.04940  0.21900  1.0000
  F   F7        1.0  0.40200  0.45100  0.71900  1.0000
  F   F8        1.0  0.59800  0.95100  0.78100  1.0000
  H   H1        1.0  0.11500  0.22300  0.15200  1.0000
  H   H2        1.0  0.88500  0.72300  0.34800  1.0000
  H   H3        1.0  0.88500  0.77700  0.84800  1.0000
  H   H4        1.0  0.11500  0.27700  0.65200  1.0000
  H   H5        1.0  0.77700  0.45400  0.17100  1.0000
  H   H6        1.0  0.22300  0.95400  0.32900  1.0000
  H   H7        1.0  0.22300  0.54600  0.82900  1.0000
  H   H8        1.0  0.77700  0.04630  0.67100  1.0000
  H   H9        1.0  0.70700  0.30100  0.02930  1.0000
  H   H10       1.0  0.29300  0.80100  0.47100  1.0000
  H   H11       1.0  0.29300  0.69900  0.97100  1.0000
  H   H12       1.0  0.70700  0.19900  0.52900  1.0000
  H   H13       1.0  0.47800  0.41100  0.36400  1.0000
  H   H14       1.0  0.52200  0.91100  0.13600  1.0000
  H   H15       1.0  0.52200  0.58900  0.63600  1.0000
  H   H16       1.0  0.47800  0.08860  0.86400  1.0000
  O   O1        1.0  0.93500  0.36500  0.10500  1.0000
  O   O2        1.0  0.06460  0.86500  0.39500  1.0000
  O   O3        1.0  0.06460  0.63500  0.89500  1.0000
  O   O4        1.0  0.93500  0.13500  0.60500  1.0000
