data_image0
_chemical_formula_structural       Ag6Ge6P12Sn4
_chemical_formula_sum              "Ag6 Ge6 P12 Sn4"
_cell_length_a       9.18955
_cell_length_b       9.18955
_cell_length_c       9.18955
_cell_angle_alpha    109.471
_cell_angle_beta     109.471
_cell_angle_gamma    109.471

_space_group_name_H-M_alt    "P 1"
_space_group_IT_number       1

loop_
  _space_group_symop_operation_xyz
  'x, y, z'

loop_
  _atom_site_type_symbol
  _atom_site_label
  _atom_site_symmetry_multiplicity
  _atom_site_fract_x
  _atom_site_fract_y
  _atom_site_fract_z
  _atom_site_occupancy
  Ag  Ag1       1.0  0.19600  0.19600  0.00000  1.0000
  Ag  Ag2       1.0  0.80400  0.80400  0.00000  1.0000
  Ag  Ag3       1.0  0.19600  0.00000  0.19600  1.0000
  Ag  Ag4       1.0  0.00000  0.19600  0.19600  1.0000
  Ag  Ag5       1.0  0.80400  0.00000  0.80400  1.0000
  Ag  Ag6       1.0  0.00000  0.80400  0.80400  1.0000
  Ge  Ge1       1.0  0.75000  0.50000  0.25000  1.0000
  Ge  Ge2       1.0  0.50000  0.75000  0.25000  1.0000
  Ge  Ge3       1.0  0.75000  0.25000  0.50000  1.0000
  Ge  Ge4       1.0  0.25000  0.75000  0.50000  1.0000
  Ge  Ge5       1.0  0.50000  0.25000  0.75000  1.0000
  Ge  Ge6       1.0  0.25000  0.50000  0.75000  1.0000
  P   P1        1.0  0.76100  0.51000  0.00000  1.0000
  P   P2        1.0  0.51000  0.76100  0.00000  1.0000
  P   P3        1.0  0.74900  0.23900  0.23900  1.0000
  P   P4        1.0  0.23900  0.74900  0.23900  1.0000
  P   P5        1.0  0.49000  0.49000  0.25100  1.0000
  P   P6        1.0  0.49000  0.25100  0.49000  1.0000
  P   P7        1.0  0.25100  0.49000  0.49000  1.0000
  P   P8        1.0  0.76100  0.00000  0.51000  1.0000
  P   P9        1.0  0.00000  0.76100  0.51000  1.0000
  P   P10       1.0  0.23900  0.23900  0.74900  1.0000
  P   P11       1.0  0.51000  0.00000  0.76100  1.0000
  P   P12       1.0  0.00000  0.51000  0.76100  1.0000
  Sn  Sn1       1.0  0.41100  0.00000  0.00000  1.0000
  Sn  Sn2       1.0  0.00000  0.41100  0.00000  1.0000
  Sn  Sn3       1.0  0.00000  0.00000  0.41100  1.0000
  Sn  Sn4       1.0  0.58900  0.58900  0.58900  1.0000
