data_image0
_chemical_formula_structural       Be4Eu4O11
_chemical_formula_sum              "Be4 Eu4 O11"
_cell_length_a       5.84927
_cell_length_b       5.06771
_cell_length_c       6.96078
_cell_angle_alpha    89.5803
_cell_angle_beta     90.0416
_cell_angle_gamma    90.5029

_space_group_name_H-M_alt    "P 1"
_space_group_IT_number       1

loop_
  _space_group_symop_operation_xyz
  'x, y, z'

loop_
  _atom_site_type_symbol
  _atom_site_label
  _atom_site_symmetry_multiplicity
  _atom_site_fract_x
  _atom_site_fract_y
  _atom_site_fract_z
  _atom_site_occupancy
  Be  Be1       1.0  0.41100  0.48100  0.25400  1.0000
  Be  Be2       1.0  0.11300  0.97600  0.25600  1.0000
  Be  Be3       1.0  0.89400  0.01710  0.75300  1.0000
  Be  Be4       1.0  0.59800  0.52500  0.75400  1.0000
  Eu  Eu1       1.0  0.49800  0.02750  0.01040  1.0000
  Eu  Eu2       1.0  0.97500  0.48400  0.01470  1.0000
  Eu  Eu3       1.0  0.97600  0.48400  0.49100  1.0000
  Eu  Eu4       1.0  0.50000  0.02320  0.50000  1.0000
  O   O1        1.0  0.87400  0.92300  0.14500  1.0000
  O   O2        1.0  0.65700  0.39400  0.25200  1.0000
  O   O3        1.0  0.22300  0.25600  0.25500  1.0000
  O   O4        1.0  0.29800  0.75500  0.26000  1.0000
  O   O5        1.0  0.87200  0.92300  0.36400  1.0000
  O   O6        1.0  0.13400  0.08510  0.64900  1.0000
  O   O7        1.0  0.35600  0.58100  0.65300  1.0000
  O   O8        1.0  0.78100  0.74600  0.75000  1.0000
  O   O9        1.0  0.71600  0.25100  0.75300  1.0000
  O   O10       1.0  0.12800  0.07390  0.86800  1.0000
  O   O11       1.0  0.36700  0.57000  0.87600  1.0000
