data_image0
_chemical_formula_structural       Mg20Pd8
_chemical_formula_sum              "Mg20 Pd8"
_cell_length_a       8.66639
_cell_length_b       8.66652
_cell_length_c       8.22777
_cell_angle_alpha    90
_cell_angle_beta     90
_cell_angle_gamma    120

_space_group_name_H-M_alt    "P 1"
_space_group_IT_number       1

loop_
  _space_group_symop_operation_xyz
  'x, y, z'

loop_
  _atom_site_type_symbol
  _atom_site_label
  _atom_site_symmetry_multiplicity
  _atom_site_fract_x
  _atom_site_fract_y
  _atom_site_fract_z
  _atom_site_occupancy
  Mg  Mg1       1.0  0.00000  0.00000  0.00000  1.0000
  Mg  Mg2       1.0  0.80700  0.61400  0.06200  1.0000
  Mg  Mg3       1.0  0.38600  0.19300  0.06200  1.0000
  Mg  Mg4       1.0  0.80700  0.19300  0.06200  1.0000
  Mg  Mg5       1.0  0.08070  0.54000  0.25000  1.0000
  Mg  Mg6       1.0  0.46000  0.54000  0.25000  1.0000
  Mg  Mg7       1.0  0.46000  0.91900  0.25000  1.0000
  Mg  Mg8       1.0  0.38600  0.19300  0.43800  1.0000
  Mg  Mg9       1.0  0.80700  0.19300  0.43800  1.0000
  Mg  Mg10      1.0  0.80700  0.61400  0.43800  1.0000
  Mg  Mg11      1.0  0.00000  0.00000  0.50000  1.0000
  Mg  Mg12      1.0  0.19300  0.38600  0.56200  1.0000
  Mg  Mg13      1.0  0.19300  0.80700  0.56200  1.0000
  Mg  Mg14      1.0  0.61400  0.80700  0.56200  1.0000
  Mg  Mg15      1.0  0.54000  0.08070  0.75000  1.0000
  Mg  Mg16      1.0  0.54000  0.46000  0.75000  1.0000
  Mg  Mg17      1.0  0.91900  0.46000  0.75000  1.0000
  Mg  Mg18      1.0  0.19300  0.80700  0.93800  1.0000
  Mg  Mg19      1.0  0.61400  0.80700  0.93800  1.0000
  Mg  Mg20      1.0  0.19300  0.38600  0.93800  1.0000
  Pd  Pd1       1.0  0.12400  0.24700  0.25000  1.0000
  Pd  Pd2       1.0  0.66700  0.33300  0.25000  1.0000
  Pd  Pd3       1.0  0.12400  0.87600  0.25000  1.0000
  Pd  Pd4       1.0  0.75300  0.87600  0.25000  1.0000
  Pd  Pd5       1.0  0.24700  0.12400  0.75000  1.0000
  Pd  Pd6       1.0  0.87600  0.12400  0.75000  1.0000
  Pd  Pd7       1.0  0.33300  0.66700  0.75000  1.0000
  Pd  Pd8       1.0  0.87600  0.75300  0.75000  1.0000
