data_image0
_chemical_formula_structural       Cl6K4N6O10Ru2
_chemical_formula_sum              "Cl6 K4 N6 O10 Ru2"
_cell_length_a       6.89149
_cell_length_b       7.42393
_cell_length_c       10.1325
_cell_angle_alpha    90.3119
_cell_angle_beta     103.102
_cell_angle_gamma    90.6414

_space_group_name_H-M_alt    "P 1"
_space_group_IT_number       1

loop_
  _space_group_symop_operation_xyz
  'x, y, z'

loop_
  _atom_site_type_symbol
  _atom_site_label
  _atom_site_symmetry_multiplicity
  _atom_site_fract_x
  _atom_site_fract_y
  _atom_site_fract_z
  _atom_site_occupancy
  Cl  Cl1       1.0  0.70800  0.23200  0.03440  1.0000
  Cl  Cl2       1.0  0.07930  0.48400  0.19800  1.0000
  Cl  Cl3       1.0  0.09650  0.02130  0.20600  1.0000
  Cl  Cl4       1.0  0.90300  0.97900  0.79400  1.0000
  Cl  Cl5       1.0  0.92100  0.51600  0.80200  1.0000
  Cl  Cl6       1.0  0.29200  0.76800  0.96600  1.0000
  K   K1        1.0  0.76400  0.74700  0.01730  1.0000
  K   K2        1.0  0.38200  0.74600  0.36600  1.0000
  K   K3        1.0  0.61800  0.25400  0.63400  1.0000
  K   K4        1.0  0.23600  0.25300  0.98300  1.0000
  N   N1        1.0  0.67200  0.43700  0.29400  1.0000
  N   N2        1.0  0.68900  0.04370  0.30200  1.0000
  N   N3        1.0  0.99500  0.25600  0.43400  1.0000
  N   N4        1.0  0.00496  0.74400  0.56600  1.0000
  N   N5        1.0  0.31100  0.95600  0.69800  1.0000
  N   N6        1.0  0.32800  0.56300  0.70600  1.0000
  O   O1        1.0  0.58600  0.53700  0.20100  1.0000
  O   O2        1.0  0.61800  0.92600  0.21600  1.0000
  O   O3        1.0  0.64100  0.45200  0.41100  1.0000
  O   O4        1.0  0.65200  0.03950  0.41800  1.0000
  O   O5        1.0  0.93900  0.74000  0.44900  1.0000
  O   O6        1.0  0.06090  0.26000  0.55100  1.0000
  O   O7        1.0  0.34800  0.96100  0.58200  1.0000
  O   O8        1.0  0.35900  0.54800  0.58900  1.0000
  O   O9        1.0  0.38200  0.07370  0.78400  1.0000
  O   O10       1.0  0.41400  0.46300  0.79900  1.0000
  Ru  Ru1       1.0  0.87600  0.24700  0.26100  1.0000
  Ru  Ru2       1.0  0.12400  0.75300  0.73900  1.0000
