data_image0
_chemical_formula_structural       Al4Dy4O11
_chemical_formula_sum              "Al4 Dy4 O11"
_cell_length_a       5.17284
_cell_length_b       5.32671
_cell_length_c       7.33467
_cell_angle_alpha    90
_cell_angle_beta     90
_cell_angle_gamma    90.1407

_space_group_name_H-M_alt    "P 1"
_space_group_IT_number       1

loop_
  _space_group_symop_operation_xyz
  'x, y, z'

loop_
  _atom_site_type_symbol
  _atom_site_label
  _atom_site_symmetry_multiplicity
  _atom_site_fract_x
  _atom_site_fract_y
  _atom_site_fract_z
  _atom_site_occupancy
  Al  Al1       1.0  0.50000  0.00000  0.00118  1.0000
  Al  Al2       1.0  0.00000  0.50100  0.00534  1.0000
  Al  Al3       1.0  0.00000  0.50100  0.49500  1.0000
  Al  Al4       1.0  0.50000  0.00000  0.49900  1.0000
  Dy  Dy1       1.0  0.98900  0.05640  0.25000  1.0000
  Dy  Dy2       1.0  0.50800  0.55100  0.25000  1.0000
  Dy  Dy3       1.0  0.48900  0.44800  0.75000  1.0000
  Dy  Dy4       1.0  0.01020  0.94600  0.75000  1.0000
  O   O1        1.0  0.79400  0.79400  0.04340  1.0000
  O   O2        1.0  0.70600  0.29300  0.04500  1.0000
  O   O3        1.0  0.41600  0.97900  0.25000  1.0000
  O   O4        1.0  0.70600  0.29300  0.45500  1.0000
  O   O5        1.0  0.79400  0.79400  0.45700  1.0000
  O   O6        1.0  0.20600  0.20700  0.54100  1.0000
  O   O7        1.0  0.29500  0.70500  0.54200  1.0000
  O   O8        1.0  0.58200  0.02140  0.75000  1.0000
  O   O9        1.0  0.91700  0.52000  0.75000  1.0000
  O   O10       1.0  0.29500  0.70500  0.95800  1.0000
  O   O11       1.0  0.20600  0.20700  0.95900  1.0000
