data_image0
_chemical_formula_structural       Mn8Na8Se12
_chemical_formula_sum              "Mn8 Na8 Se12"
_cell_length_a       7.23772
_cell_length_b       10.4347
_cell_length_c       10.4347
_cell_angle_alpha    96.0764
_cell_angle_beta     109.985
_cell_angle_gamma    70.0149

_space_group_name_H-M_alt    "P 1"
_space_group_IT_number       1

loop_
  _space_group_symop_operation_xyz
  'x, y, z'

loop_
  _atom_site_type_symbol
  _atom_site_label
  _atom_site_symmetry_multiplicity
  _atom_site_fract_x
  _atom_site_fract_y
  _atom_site_fract_z
  _atom_site_occupancy
  Mn  Mn1       1.0  0.24300  0.44700  0.08100  1.0000
  Mn  Mn2       1.0  0.70400  0.63400  0.21400  1.0000
  Mn  Mn3       1.0  0.20400  0.78600  0.36600  1.0000
  Mn  Mn4       1.0  0.25700  0.08100  0.44700  1.0000
  Mn  Mn5       1.0  0.74300  0.91900  0.55300  1.0000
  Mn  Mn6       1.0  0.79600  0.21400  0.63400  1.0000
  Mn  Mn7       1.0  0.29600  0.36600  0.78600  1.0000
  Mn  Mn8       1.0  0.75700  0.55300  0.91900  1.0000
  Na  Na1       1.0  0.13700  0.81000  0.02000  1.0000
  Na  Na2       1.0  0.63700  0.98000  0.19000  1.0000
  Na  Na3       1.0  0.75000  0.28000  0.28000  1.0000
  Na  Na4       1.0  0.25000  0.43100  0.43100  1.0000
  Na  Na5       1.0  0.75000  0.56900  0.56900  1.0000
  Na  Na6       1.0  0.25000  0.72000  0.72000  1.0000
  Na  Na7       1.0  0.36300  0.02000  0.81000  1.0000
  Na  Na8       1.0  0.86300  0.19000  0.98000  1.0000
  Se  Se1       1.0  0.45100  0.22600  0.00281  1.0000
  Se  Se2       1.0  0.95000  0.41500  0.14700  1.0000
  Se  Se3       1.0  0.04850  0.00281  0.22600  1.0000
  Se  Se4       1.0  0.43400  0.57000  0.27900  1.0000
  Se  Se5       1.0  0.55000  0.14700  0.41500  1.0000
  Se  Se6       1.0  0.93400  0.72100  0.43000  1.0000
  Se  Se7       1.0  0.06560  0.27900  0.57000  1.0000
  Se  Se8       1.0  0.45000  0.85300  0.58500  1.0000
  Se  Se9       1.0  0.56600  0.43000  0.72100  1.0000
  Se  Se10      1.0  0.95100  0.99700  0.77400  1.0000
  Se  Se11      1.0  0.04990  0.58500  0.85300  1.0000
  Se  Se12      1.0  0.54900  0.77400  0.99700  1.0000
