data_image0
_chemical_formula_structural       Ag4C4N12O8
_chemical_formula_sum              "Ag4 C4 N12 O8"
_cell_length_a       5.42144
_cell_length_b       12.464
_cell_length_c       5.39688
_cell_angle_alpha    90
_cell_angle_beta     90
_cell_angle_gamma    90

_space_group_name_H-M_alt    "P 1"
_space_group_IT_number       1

loop_
  _space_group_symop_operation_xyz
  'x, y, z'

loop_
  _atom_site_type_symbol
  _atom_site_label
  _atom_site_symmetry_multiplicity
  _atom_site_fract_x
  _atom_site_fract_y
  _atom_site_fract_z
  _atom_site_occupancy
  Ag  Ag1       1.0  0.53700  0.20500  0.25000  1.0000
  Ag  Ag2       1.0  0.46300  0.70500  0.25000  1.0000
  Ag  Ag3       1.0  0.53700  0.29500  0.75000  1.0000
  Ag  Ag4       1.0  0.46300  0.79500  0.75000  1.0000
  C   C1        1.0  0.66500  0.46300  0.25000  1.0000
  C   C2        1.0  0.33500  0.96300  0.25000  1.0000
  C   C3        1.0  0.66500  0.03710  0.75000  1.0000
  C   C4        1.0  0.33500  0.53700  0.75000  1.0000
  N   N1        1.0  0.29000  0.06600  0.25000  1.0000
  N   N2        1.0  0.04500  0.09140  0.25000  1.0000
  N   N3        1.0  0.59900  0.37300  0.25000  1.0000
  N   N4        1.0  0.71000  0.56600  0.25000  1.0000
  N   N5        1.0  0.95500  0.59100  0.25000  1.0000
  N   N6        1.0  0.40100  0.87300  0.25000  1.0000
  N   N7        1.0  0.59900  0.12700  0.75000  1.0000
  N   N8        1.0  0.04500  0.40900  0.75000  1.0000
  N   N9        1.0  0.29000  0.43400  0.75000  1.0000
  N   N10       1.0  0.40100  0.62700  0.75000  1.0000
  N   N11       1.0  0.95500  0.90900  0.75000  1.0000
  N   N12       1.0  0.71000  0.93400  0.75000  1.0000
  O   O1        1.0  0.88600  0.01900  0.25000  1.0000
  O   O2        1.0  0.99800  0.19000  0.25000  1.0000
  O   O3        1.0  0.11400  0.51900  0.25000  1.0000
  O   O4        1.0  0.00243  0.69000  0.25000  1.0000
  O   O5        1.0  0.99800  0.31000  0.75000  1.0000
  O   O6        1.0  0.88600  0.48100  0.75000  1.0000
  O   O7        1.0  0.00243  0.81000  0.75000  1.0000
  O   O8        1.0  0.11400  0.98100  0.75000  1.0000
