data_image0
_chemical_formula_structural       F8N12O4P4
_chemical_formula_sum              "F8 N12 O4 P4"
_cell_length_a       5.16513
_cell_length_b       5.30706
_cell_length_c       12.0878
_cell_angle_alpha    98.1832
_cell_angle_beta     91.3063
_cell_angle_gamma    90.0569

_space_group_name_H-M_alt    "P 1"
_space_group_IT_number       1

loop_
  _space_group_symop_operation_xyz
  'x, y, z'

loop_
  _atom_site_type_symbol
  _atom_site_label
  _atom_site_symmetry_multiplicity
  _atom_site_fract_x
  _atom_site_fract_y
  _atom_site_fract_z
  _atom_site_occupancy
  F   F1        1.0  0.49400  0.15300  0.18300  1.0000
  F   F2        1.0  0.03920  0.15600  0.18800  1.0000
  F   F3        1.0  0.76800  0.98100  0.34800  1.0000
  F   F4        1.0  0.76700  0.42700  0.35000  1.0000
  F   F5        1.0  0.23300  0.57300  0.65000  1.0000
  F   F6        1.0  0.23200  0.01910  0.65200  1.0000
  F   F7        1.0  0.96100  0.84400  0.81200  1.0000
  F   F8        1.0  0.50600  0.84700  0.81700  1.0000
  N   N1        1.0  0.25400  0.37800  0.04450  1.0000
  N   N2        1.0  0.75500  0.64100  0.05860  1.0000
  N   N3        1.0  0.76300  0.63500  0.15200  1.0000
  N   N4        1.0  0.26200  0.68800  0.28400  1.0000
  N   N5        1.0  0.21200  0.71400  0.37600  1.0000
  N   N6        1.0  0.13000  0.74100  0.47200  1.0000
  N   N7        1.0  0.87000  0.25900  0.52800  1.0000
  N   N8        1.0  0.78800  0.28600  0.62400  1.0000
  N   N9        1.0  0.73800  0.31200  0.71600  1.0000
  N   N10       1.0  0.23700  0.36500  0.84800  1.0000
  N   N11       1.0  0.24500  0.35900  0.94100  1.0000
  N   N12       1.0  0.74600  0.62200  0.95500  1.0000
  O   O1        1.0  0.24900  0.87200  0.02770  1.0000
  O   O2        1.0  0.38900  0.23100  0.43700  1.0000
  O   O3        1.0  0.61100  0.76900  0.56300  1.0000
  O   O4        1.0  0.75100  0.12800  0.97200  1.0000
  P   P1        1.0  0.25700  0.11500  0.10100  1.0000
  P   P2        1.0  0.66900  0.22600  0.42000  1.0000
  P   P3        1.0  0.33100  0.77400  0.58000  1.0000
  P   P4        1.0  0.74300  0.88500  0.89900  1.0000
