data_image0
_chemical_formula_structural       Ge4Te12Tl12
_chemical_formula_sum              "Ge4 Te12 Tl12"
_cell_length_a       9.70538
_cell_length_b       9.97143
_cell_length_c       10.7159
_cell_angle_alpha    89.5604
_cell_angle_beta     82.9366
_cell_angle_gamma    78.9004

_space_group_name_H-M_alt    "P 1"
_space_group_IT_number       1

loop_
  _space_group_symop_operation_xyz
  'x, y, z'

loop_
  _atom_site_type_symbol
  _atom_site_label
  _atom_site_symmetry_multiplicity
  _atom_site_fract_x
  _atom_site_fract_y
  _atom_site_fract_z
  _atom_site_occupancy
  Ge  Ge1       1.0  0.90800  0.42800  0.01610  1.0000
  Ge  Ge2       1.0  0.42300  0.01520  0.41400  1.0000
  Ge  Ge3       1.0  0.57700  0.98500  0.58600  1.0000
  Ge  Ge4       1.0  0.09210  0.57200  0.98400  1.0000
  Te  Te1       1.0  0.31600  0.43900  0.07740  1.0000
  Te  Te2       1.0  0.00260  0.79900  0.11200  1.0000
  Te  Te3       1.0  0.58000  0.06540  0.21000  1.0000
  Te  Te4       1.0  0.86900  0.38300  0.25700  1.0000
  Te  Te5       1.0  0.32400  0.78700  0.40800  1.0000
  Te  Te6       1.0  0.21200  0.22200  0.47000  1.0000
  Te  Te7       1.0  0.78800  0.77800  0.53000  1.0000
  Te  Te8       1.0  0.67600  0.21300  0.59200  1.0000
  Te  Te9       1.0  0.13100  0.61700  0.74300  1.0000
  Te  Te10      1.0  0.42000  0.93500  0.79000  1.0000
  Te  Te11      1.0  0.99700  0.20100  0.88800  1.0000
  Te  Te12      1.0  0.68400  0.56100  0.92300  1.0000
  Tl  Tl1       1.0  0.36000  0.76900  0.08910  1.0000
  Tl  Tl2       1.0  0.19200  0.15900  0.15800  1.0000
  Tl  Tl3       1.0  0.69200  0.71700  0.24400  1.0000
  Tl  Tl4       1.0  0.09920  0.56800  0.34000  1.0000
  Tl  Tl5       1.0  0.89000  0.04660  0.35200  1.0000
  Tl  Tl6       1.0  0.51100  0.37100  0.35300  1.0000
  Tl  Tl7       1.0  0.48900  0.62900  0.64700  1.0000
  Tl  Tl8       1.0  0.11000  0.95300  0.64800  1.0000
  Tl  Tl9       1.0  0.90100  0.43200  0.66000  1.0000
  Tl  Tl10      1.0  0.30800  0.28300  0.75600  1.0000
  Tl  Tl11      1.0  0.80800  0.84100  0.84200  1.0000
  Tl  Tl12      1.0  0.64000  0.23100  0.91100  1.0000
