data_image0
_chemical_formula_structural       Fe4Gd4O11
_chemical_formula_sum              "Fe4 Gd4 O11"
_cell_length_a       5.32701
_cell_length_b       5.63717
_cell_length_c       7.62217
_cell_angle_alpha    90
_cell_angle_beta     90
_cell_angle_gamma    89.8005

_space_group_name_H-M_alt    "P 1"
_space_group_IT_number       1

loop_
  _space_group_symop_operation_xyz
  'x, y, z'

loop_
  _atom_site_type_symbol
  _atom_site_label
  _atom_site_symmetry_multiplicity
  _atom_site_fract_x
  _atom_site_fract_y
  _atom_site_fract_z
  _atom_site_occupancy
  Fe  Fe1       1.0  0.50200  0.00156  0.00149  1.0000
  Fe  Fe2       1.0  0.50200  0.00156  0.49900  1.0000
  Fe  Fe3       1.0  0.99300  0.50000  0.50500  1.0000
  Fe  Fe4       1.0  0.99300  0.50000  0.99500  1.0000
  Gd  Gd1       1.0  0.97600  0.06800  0.25000  1.0000
  Gd  Gd2       1.0  0.52200  0.58100  0.25000  1.0000
  Gd  Gd3       1.0  0.47800  0.43000  0.75000  1.0000
  Gd  Gd4       1.0  0.02240  0.93500  0.75000  1.0000
  O   O1        1.0  0.81100  0.79700  0.06670  1.0000
  O   O2        1.0  0.70600  0.30800  0.06690  1.0000
  O   O3        1.0  0.38300  0.96900  0.25000  1.0000
  O   O4        1.0  0.70600  0.30800  0.43300  1.0000
  O   O5        1.0  0.81100  0.79700  0.43300  1.0000
  O   O6        1.0  0.30700  0.68300  0.54600  1.0000
  O   O7        1.0  0.18900  0.19600  0.55000  1.0000
  O   O8        1.0  0.61200  0.03610  0.75000  1.0000
  O   O9        1.0  0.88200  0.54500  0.75000  1.0000
  O   O10       1.0  0.18900  0.19600  0.95000  1.0000
  O   O11       1.0  0.30700  0.68300  0.95400  1.0000
