data_image0
_chemical_formula_structural       Br4C4Cu4H8N8
_chemical_formula_sum              "Br4 C4 Cu4 H8 N8"
_cell_length_a       8.42177
_cell_length_b       3.80955
_cell_length_c       12.512
_cell_angle_alpha    90
_cell_angle_beta     90
_cell_angle_gamma    90

_space_group_name_H-M_alt    "P 1"
_space_group_IT_number       1

loop_
  _space_group_symop_operation_xyz
  'x, y, z'

loop_
  _atom_site_type_symbol
  _atom_site_label
  _atom_site_symmetry_multiplicity
  _atom_site_fract_x
  _atom_site_fract_y
  _atom_site_fract_z
  _atom_site_occupancy
  Br  Br1       1.0  0.53900  0.25000  0.13900  1.0000
  Br  Br2       1.0  0.03850  0.25000  0.36100  1.0000
  Br  Br3       1.0  0.96100  0.75000  0.63900  1.0000
  Br  Br4       1.0  0.46100  0.75000  0.86100  1.0000
  C   C1        1.0  0.03900  0.75000  0.11300  1.0000
  C   C2        1.0  0.53900  0.75000  0.38700  1.0000
  C   C3        1.0  0.46100  0.25000  0.61300  1.0000
  C   C4        1.0  0.96100  0.25000  0.88700  1.0000
  Cu  Cu1       1.0  0.39200  0.75000  0.05380  1.0000
  Cu  Cu2       1.0  0.89200  0.75000  0.44600  1.0000
  Cu  Cu3       1.0  0.10800  0.25000  0.55400  1.0000
  Cu  Cu4       1.0  0.60800  0.25000  0.94600  1.0000
  H   H1        1.0  0.80200  0.75000  0.08410  1.0000
  H   H2        1.0  0.85800  0.75000  0.21900  1.0000
  H   H3        1.0  0.35800  0.75000  0.28100  1.0000
  H   H4        1.0  0.30200  0.75000  0.41600  1.0000
  H   H5        1.0  0.69800  0.25000  0.58400  1.0000
  H   H6        1.0  0.64200  0.25000  0.71900  1.0000
  H   H7        1.0  0.14200  0.25000  0.78100  1.0000
  H   H8        1.0  0.19800  0.25000  0.91600  1.0000
  N   N1        1.0  0.17300  0.75000  0.08740  1.0000
  N   N2        1.0  0.89000  0.75000  0.14000  1.0000
  N   N3        1.0  0.39000  0.75000  0.36000  1.0000
  N   N4        1.0  0.67300  0.75000  0.41300  1.0000
  N   N5        1.0  0.32700  0.25000  0.58700  1.0000
  N   N6        1.0  0.61000  0.25000  0.64000  1.0000
  N   N7        1.0  0.11000  0.25000  0.86000  1.0000
  N   N8        1.0  0.82700  0.25000  0.91300  1.0000
