data_image0
_chemical_formula_structural       Fe6Li4O16Sb2
_chemical_formula_sum              "Fe6 Li4 O16 Sb2"
_cell_length_a       5.91443
_cell_length_b       5.91443
_cell_length_c       9.63068
_cell_angle_alpha    90
_cell_angle_beta     90
_cell_angle_gamma    120

_space_group_name_H-M_alt    "P 1"
_space_group_IT_number       1

loop_
  _space_group_symop_operation_xyz
  'x, y, z'

loop_
  _atom_site_type_symbol
  _atom_site_label
  _atom_site_symmetry_multiplicity
  _atom_site_fract_x
  _atom_site_fract_y
  _atom_site_fract_z
  _atom_site_occupancy
  Fe  Fe1       1.0  0.17000  0.83000  0.21100  1.0000
  Fe  Fe2       1.0  0.66000  0.83000  0.21100  1.0000
  Fe  Fe3       1.0  0.17000  0.34000  0.21100  1.0000
  Fe  Fe4       1.0  0.34000  0.17000  0.71100  1.0000
  Fe  Fe5       1.0  0.83000  0.17000  0.71100  1.0000
  Fe  Fe6       1.0  0.83000  0.66000  0.71100  1.0000
  Li  Li1       1.0  0.66700  0.33300  0.40100  1.0000
  Li  Li2       1.0  0.00000  0.00000  0.48800  1.0000
  Li  Li3       1.0  0.33300  0.66700  0.90100  1.0000
  Li  Li4       1.0  0.00000  0.00000  0.98800  1.0000
  O   O1        1.0  0.33400  0.16700  0.09320  1.0000
  O   O2        1.0  0.83300  0.16700  0.09320  1.0000
  O   O3        1.0  0.83300  0.66600  0.09320  1.0000
  O   O4        1.0  0.33300  0.66700  0.10300  1.0000
  O   O5        1.0  0.00000  0.00000  0.30200  1.0000
  O   O6        1.0  0.48300  0.96600  0.34400  1.0000
  O   O7        1.0  0.03410  0.51700  0.34400  1.0000
  O   O8        1.0  0.48300  0.51700  0.34400  1.0000
  O   O9        1.0  0.16700  0.33400  0.59300  1.0000
  O   O10       1.0  0.16700  0.83300  0.59300  1.0000
  O   O11       1.0  0.66600  0.83300  0.59300  1.0000
  O   O12       1.0  0.66700  0.33300  0.60300  1.0000
  O   O13       1.0  0.00000  0.00000  0.80200  1.0000
  O   O14       1.0  0.51700  0.03410  0.84400  1.0000
  O   O15       1.0  0.51700  0.48300  0.84400  1.0000
  O   O16       1.0  0.96600  0.48300  0.84400  1.0000
  Sb  Sb1       1.0  0.33300  0.66700  0.48400  1.0000
  Sb  Sb2       1.0  0.66700  0.33300  0.98400  1.0000
