data_image0
_chemical_formula_structural       Eu4Ge4O11
_chemical_formula_sum              "Eu4 Ge4 O11"
_cell_length_a       5.40249
_cell_length_b       5.35751
_cell_length_c       7.30751
_cell_angle_alpha    90
_cell_angle_beta     90
_cell_angle_gamma    90.0755

_space_group_name_H-M_alt    "P 1"
_space_group_IT_number       1

loop_
  _space_group_symop_operation_xyz
  'x, y, z'

loop_
  _atom_site_type_symbol
  _atom_site_label
  _atom_site_symmetry_multiplicity
  _atom_site_fract_x
  _atom_site_fract_y
  _atom_site_fract_z
  _atom_site_occupancy
  Eu  Eu1       1.0  0.99800  0.00819  0.25000  1.0000
  Eu  Eu2       1.0  0.48900  0.50500  0.25000  1.0000
  Eu  Eu3       1.0  0.50000  0.49300  0.75000  1.0000
  Eu  Eu4       1.0  0.00460  0.99300  0.75000  1.0000
  Ge  Ge1       1.0  0.50200  0.00000  0.00190  1.0000
  Ge  Ge2       1.0  0.99900  0.50100  0.00871  1.0000
  Ge  Ge3       1.0  0.99900  0.50100  0.49100  1.0000
  Ge  Ge4       1.0  0.50200  0.00000  0.49800  1.0000
  O   O1        1.0  0.75700  0.75800  0.03260  1.0000
  O   O2        1.0  0.74100  0.25800  0.03330  1.0000
  O   O3        1.0  0.44300  0.99600  0.25000  1.0000
  O   O4        1.0  0.74100  0.25800  0.46700  1.0000
  O   O5        1.0  0.75700  0.75800  0.46700  1.0000
  O   O6        1.0  0.24600  0.24200  0.52100  1.0000
  O   O7        1.0  0.26000  0.74400  0.52400  1.0000
  O   O8        1.0  0.55800  0.00259  0.75000  1.0000
  O   O9        1.0  0.94900  0.50100  0.75000  1.0000
  O   O10       1.0  0.26000  0.74400  0.97600  1.0000
  O   O11       1.0  0.24600  0.24200  0.97900  1.0000
