data_image0
_chemical_formula_structural       Ge4Lu4Na4O16
_chemical_formula_sum              "Ge4 Lu4 Na4 O16"
_cell_length_a       5.21989
_cell_length_b       6.28675
_cell_length_c       11.2085
_cell_angle_alpha    90
_cell_angle_beta     90
_cell_angle_gamma    90

_space_group_name_H-M_alt    "P 1"
_space_group_IT_number       1

loop_
  _space_group_symop_operation_xyz
  'x, y, z'

loop_
  _atom_site_type_symbol
  _atom_site_label
  _atom_site_symmetry_multiplicity
  _atom_site_fract_x
  _atom_site_fract_y
  _atom_site_fract_z
  _atom_site_occupancy
  Ge  Ge1       1.0  0.94900  0.75000  0.09810  1.0000
  Ge  Ge2       1.0  0.44900  0.25000  0.40200  1.0000
  Ge  Ge3       1.0  0.55100  0.75000  0.59800  1.0000
  Ge  Ge4       1.0  0.05120  0.25000  0.90200  1.0000
  Lu  Lu1       1.0  0.00629  0.25000  0.22400  1.0000
  Lu  Lu2       1.0  0.50600  0.75000  0.27600  1.0000
  Lu  Lu3       1.0  0.49400  0.25000  0.72400  1.0000
  Lu  Lu4       1.0  0.99400  0.75000  0.77600  1.0000
  Na  Na1       1.0  0.50000  0.00000  0.00000  1.0000
  Na  Na2       1.0  0.50000  0.50000  0.00000  1.0000
  Na  Na3       1.0  0.00000  0.00000  0.50000  1.0000
  Na  Na4       1.0  0.00000  0.50000  0.50000  1.0000
  O   O1        1.0  0.17200  0.25000  0.04810  1.0000
  O   O2        1.0  0.27900  0.75000  0.11100  1.0000
  O   O3        1.0  0.78900  0.53700  0.17600  1.0000
  O   O4        1.0  0.78900  0.96300  0.17600  1.0000
  O   O5        1.0  0.28900  0.03750  0.32400  1.0000
  O   O6        1.0  0.28900  0.46300  0.32400  1.0000
  O   O7        1.0  0.77900  0.25000  0.38900  1.0000
  O   O8        1.0  0.67200  0.75000  0.45200  1.0000
  O   O9        1.0  0.32800  0.25000  0.54800  1.0000
  O   O10       1.0  0.22100  0.75000  0.61100  1.0000
  O   O11       1.0  0.71100  0.53700  0.67600  1.0000
  O   O12       1.0  0.71100  0.96300  0.67600  1.0000
  O   O13       1.0  0.21100  0.03750  0.82400  1.0000
  O   O14       1.0  0.21100  0.46300  0.82400  1.0000
  O   O15       1.0  0.72100  0.25000  0.88900  1.0000
  O   O16       1.0  0.82800  0.75000  0.95200  1.0000
