data_image0
_chemical_formula_structural       Cu4Gd2O16Sr4Ta2
_chemical_formula_sum              "Cu4 Gd2 O16 Sr4 Ta2"
_cell_length_a       5.44409
_cell_length_b       5.44409
_cell_length_c       12.2426
_cell_angle_alpha    102.847
_cell_angle_beta     102.847
_cell_angle_gamma    90

_space_group_name_H-M_alt    "P 1"
_space_group_IT_number       1

loop_
  _space_group_symop_operation_xyz
  'x, y, z'

loop_
  _atom_site_type_symbol
  _atom_site_label
  _atom_site_symmetry_multiplicity
  _atom_site_fract_x
  _atom_site_fract_y
  _atom_site_fract_z
  _atom_site_occupancy
  Cu  Cu1       1.0  0.18000  0.18000  0.36100  1.0000
  Cu  Cu2       1.0  0.68000  0.68000  0.36100  1.0000
  Cu  Cu3       1.0  0.32000  0.32000  0.63900  1.0000
  Cu  Cu4       1.0  0.82000  0.82000  0.63900  1.0000
  Gd  Gd1       1.0  0.75000  0.25000  0.50000  1.0000
  Gd  Gd2       1.0  0.25000  0.75000  0.50000  1.0000
  O   O1        1.0  0.68000  0.18000  0.00000  1.0000
  O   O2        1.0  0.18000  0.32000  0.00000  1.0000
  O   O3        1.0  0.82000  0.68000  0.00000  1.0000
  O   O4        1.0  0.32000  0.82000  0.00000  1.0000
  O   O5        1.0  0.08450  0.08450  0.16900  1.0000
  O   O6        1.0  0.58400  0.58400  0.16900  1.0000
  O   O7        1.0  0.44200  0.43200  0.37400  1.0000
  O   O8        1.0  0.94200  0.44200  0.37400  1.0000
  O   O9        1.0  0.43200  0.93200  0.37400  1.0000
  O   O10       1.0  0.93200  0.94200  0.37400  1.0000
  O   O11       1.0  0.06800  0.05810  0.62600  1.0000
  O   O12       1.0  0.56800  0.06800  0.62600  1.0000
  O   O13       1.0  0.05810  0.55800  0.62600  1.0000
  O   O14       1.0  0.55800  0.56800  0.62600  1.0000
  O   O15       1.0  0.41600  0.41600  0.83100  1.0000
  O   O16       1.0  0.91600  0.91600  0.83100  1.0000
  Sr  Sr1       1.0  0.60100  0.10100  0.20200  1.0000
  Sr  Sr2       1.0  0.10100  0.60100  0.20200  1.0000
  Sr  Sr3       1.0  0.89900  0.39900  0.79800  1.0000
  Sr  Sr4       1.0  0.39900  0.89900  0.79800  1.0000
  Ta  Ta1       1.0  0.00000  0.00000  0.00000  1.0000
  Ta  Ta2       1.0  0.50000  0.50000  0.00000  1.0000
