data_image0
_chemical_formula_structural       Cs4Er4S16Si4
_chemical_formula_sum              "Cs4 Er4 S16 Si4"
_cell_length_a       6.3474
_cell_length_b       6.69131
_cell_length_c       17.811
_cell_angle_alpha    90
_cell_angle_beta     90
_cell_angle_gamma    90

_space_group_name_H-M_alt    "P 1"
_space_group_IT_number       1

loop_
  _space_group_symop_operation_xyz
  'x, y, z'

loop_
  _atom_site_type_symbol
  _atom_site_label
  _atom_site_symmetry_multiplicity
  _atom_site_fract_x
  _atom_site_fract_y
  _atom_site_fract_z
  _atom_site_occupancy
  Cs  Cs1       1.0  0.00207  0.00768  0.03170  1.0000
  Cs  Cs2       1.0  0.99800  0.50800  0.46800  1.0000
  Cs  Cs3       1.0  0.49800  0.99200  0.53200  1.0000
  Cs  Cs4       1.0  0.50200  0.49200  0.96800  1.0000
  Er  Er1       1.0  0.29100  0.47800  0.22900  1.0000
  Er  Er2       1.0  0.70900  0.97800  0.27100  1.0000
  Er  Er3       1.0  0.20900  0.52200  0.72900  1.0000
  Er  Er4       1.0  0.79100  0.02150  0.77100  1.0000
  S   S1        1.0  0.05600  0.51300  0.09750  1.0000
  S   S2        1.0  0.56400  0.74900  0.14800  1.0000
  S   S3        1.0  0.60300  0.25300  0.15800  1.0000
  S   S4        1.0  0.10400  0.07970  0.22000  1.0000
  S   S5        1.0  0.89600  0.58000  0.28000  1.0000
  S   S6        1.0  0.39700  0.75300  0.34200  1.0000
  S   S7        1.0  0.43600  0.24900  0.35200  1.0000
  S   S8        1.0  0.94400  0.01290  0.40200  1.0000
  S   S9        1.0  0.44400  0.48700  0.59800  1.0000
  S   S10       1.0  0.93600  0.25100  0.64800  1.0000
  S   S11       1.0  0.89700  0.74700  0.65800  1.0000
  S   S12       1.0  0.39600  0.92000  0.72000  1.0000
  S   S13       1.0  0.60400  0.42000  0.78000  1.0000
  S   S14       1.0  0.10300  0.24700  0.84200  1.0000
  S   S15       1.0  0.06440  0.75100  0.85200  1.0000
  S   S16       1.0  0.55600  0.98700  0.90200  1.0000
  Si  Si1       1.0  0.79000  0.51800  0.16900  1.0000
  Si  Si2       1.0  0.21000  0.01800  0.33100  1.0000
  Si  Si3       1.0  0.71000  0.48200  0.66900  1.0000
  Si  Si4       1.0  0.29000  0.98200  0.83100  1.0000
