data_image0
_chemical_formula_structural       Eu4O11Sn4
_chemical_formula_sum              "Eu4 O11 Sn4"
_cell_length_a       5.56346
_cell_length_b       5.66723
_cell_length_c       8.05329
_cell_angle_alpha    90.2946
_cell_angle_beta     89.8684
_cell_angle_gamma    92.2617

_space_group_name_H-M_alt    "P 1"
_space_group_IT_number       1

loop_
  _space_group_symop_operation_xyz
  'x, y, z'

loop_
  _atom_site_type_symbol
  _atom_site_label
  _atom_site_symmetry_multiplicity
  _atom_site_fract_x
  _atom_site_fract_y
  _atom_site_fract_z
  _atom_site_occupancy
  Eu  Eu1       1.0  0.50500  0.55800  0.24700  1.0000
  Eu  Eu2       1.0  0.00402  0.03300  0.25500  1.0000
  Eu  Eu3       1.0  0.47200  0.46500  0.74800  1.0000
  Eu  Eu4       1.0  0.01970  0.94400  0.75500  1.0000
  O   O1        1.0  0.79400  0.78900  0.04790  1.0000
  O   O2        1.0  0.08890  0.47200  0.25200  1.0000
  O   O3        1.0  0.41700  0.97300  0.25300  1.0000
  O   O4        1.0  0.69900  0.29700  0.43600  1.0000
  O   O5        1.0  0.79600  0.79400  0.45400  1.0000
  O   O6        1.0  0.29700  0.70400  0.54600  1.0000
  O   O7        1.0  0.20100  0.20300  0.54800  1.0000
  O   O8        1.0  0.90500  0.52200  0.74700  1.0000
  O   O9        1.0  0.59700  0.03410  0.74700  1.0000
  O   O10       1.0  0.21200  0.20900  0.95500  1.0000
  O   O11       1.0  0.29200  0.70900  0.95800  1.0000
  Sn  Sn1       1.0  0.98000  0.48100  0.00157  1.0000
  Sn  Sn2       1.0  0.51800  0.01870  0.00200  1.0000
  Sn  Sn3       1.0  0.99500  0.49600  0.49900  1.0000
  Sn  Sn4       1.0  0.50400  0.00427  0.50100  1.0000
