data_image0
_chemical_formula_structural       F4Np4O16P4
_chemical_formula_sum              "F4 Np4 O16 P4"
_cell_length_a       8.59146
_cell_length_b       6.96625
_cell_length_c       6.32752
_cell_angle_alpha    90
_cell_angle_beta     90
_cell_angle_gamma    90

_space_group_name_H-M_alt    "P 1"
_space_group_IT_number       1

loop_
  _space_group_symop_operation_xyz
  'x, y, z'

loop_
  _atom_site_type_symbol
  _atom_site_label
  _atom_site_symmetry_multiplicity
  _atom_site_fract_x
  _atom_site_fract_y
  _atom_site_fract_z
  _atom_site_occupancy
  F   F1        1.0  0.71300  0.75000  0.19200  1.0000
  F   F2        1.0  0.21300  0.75000  0.30800  1.0000
  F   F3        1.0  0.78700  0.25000  0.69200  1.0000
  F   F4        1.0  0.28700  0.25000  0.80800  1.0000
  Np  Np1       1.0  0.45200  0.75000  0.14400  1.0000
  Np  Np2       1.0  0.95200  0.75000  0.35600  1.0000
  Np  Np3       1.0  0.04850  0.25000  0.64400  1.0000
  Np  Np4       1.0  0.54800  0.25000  0.85600  1.0000
  O   O1        1.0  0.98900  0.75000  0.00515  1.0000
  O   O2        1.0  0.73000  0.25000  0.11300  1.0000
  O   O3        1.0  0.43300  0.07710  0.16900  1.0000
  O   O4        1.0  0.43300  0.42300  0.16900  1.0000
  O   O5        1.0  0.93300  0.07710  0.33100  1.0000
  O   O6        1.0  0.93300  0.42300  0.33100  1.0000
  O   O7        1.0  0.23000  0.25000  0.38700  1.0000
  O   O8        1.0  0.48900  0.75000  0.49500  1.0000
  O   O9        1.0  0.51100  0.25000  0.50500  1.0000
  O   O10       1.0  0.77000  0.75000  0.61300  1.0000
  O   O11       1.0  0.06690  0.57700  0.66900  1.0000
  O   O12       1.0  0.06690  0.92300  0.66900  1.0000
  O   O13       1.0  0.56700  0.57700  0.83100  1.0000
  O   O14       1.0  0.56700  0.92300  0.83100  1.0000
  O   O15       1.0  0.27000  0.75000  0.88700  1.0000
  O   O16       1.0  0.01140  0.25000  0.99500  1.0000
  P   P1        1.0  0.89900  0.25000  0.18100  1.0000
  P   P2        1.0  0.39900  0.25000  0.31900  1.0000
  P   P3        1.0  0.60100  0.75000  0.68100  1.0000
  P   P4        1.0  0.10100  0.75000  0.81900  1.0000
