data_image0
_chemical_formula_structural       Au2N24Rb2
_chemical_formula_sum              "Au2 N24 Rb2"
_cell_length_a       7.30371
_cell_length_b       7.30371
_cell_length_c       7.70426
_cell_angle_alpha    91.8665
_cell_angle_beta     91.8665
_cell_angle_gamma    92.1867

_space_group_name_H-M_alt    "P 1"
_space_group_IT_number       1

loop_
  _space_group_symop_operation_xyz
  'x, y, z'

loop_
  _atom_site_type_symbol
  _atom_site_label
  _atom_site_symmetry_multiplicity
  _atom_site_fract_x
  _atom_site_fract_y
  _atom_site_fract_z
  _atom_site_occupancy
  Au  Au1       1.0  0.51100  0.48900  0.25000  1.0000
  Au  Au2       1.0  0.48900  0.51100  0.75000  1.0000
  N   N1        1.0  0.91100  0.71800  0.03290  1.0000
  N   N2        1.0  0.27100  0.92300  0.08690  1.0000
  N   N3        1.0  0.84400  0.59600  0.10300  1.0000
  N   N4        1.0  0.39100  0.83400  0.13200  1.0000
  N   N5        1.0  0.78100  0.46500  0.17800  1.0000
  N   N6        1.0  0.52700  0.75700  0.17900  1.0000
  N   N7        1.0  0.24300  0.47300  0.32100  1.0000
  N   N8        1.0  0.53500  0.21900  0.32200  1.0000
  N   N9        1.0  0.16600  0.60900  0.36800  1.0000
  N   N10       1.0  0.40400  0.15600  0.39700  1.0000
  N   N11       1.0  0.07720  0.72900  0.41300  1.0000
  N   N12       1.0  0.28200  0.08920  0.46700  1.0000
  N   N13       1.0  0.71800  0.91100  0.53300  1.0000
  N   N14       1.0  0.92300  0.27100  0.58700  1.0000
  N   N15       1.0  0.59600  0.84400  0.60300  1.0000
  N   N16       1.0  0.83400  0.39100  0.63200  1.0000
  N   N17       1.0  0.46500  0.78100  0.67800  1.0000
  N   N18       1.0  0.75700  0.52700  0.67900  1.0000
  N   N19       1.0  0.47300  0.24300  0.82100  1.0000
  N   N20       1.0  0.21900  0.53500  0.82200  1.0000
  N   N21       1.0  0.60900  0.16600  0.86800  1.0000
  N   N22       1.0  0.15600  0.40400  0.89700  1.0000
  N   N23       1.0  0.72900  0.07720  0.91300  1.0000
  N   N24       1.0  0.08920  0.28200  0.96700  1.0000
  Rb  Rb1       1.0  0.92100  0.07940  0.25000  1.0000
  Rb  Rb2       1.0  0.07940  0.92100  0.75000  1.0000
