data_image0
_chemical_formula_structural       B4Mg4O16Sc4
_chemical_formula_sum              "B4 Mg4 O16 Sc4"
_cell_length_a       9.46184
_cell_length_b       9.34662
_cell_length_c       3.20752
_cell_angle_alpha    90
_cell_angle_beta     90
_cell_angle_gamma    90

_space_group_name_H-M_alt    "P 1"
_space_group_IT_number       1

loop_
  _space_group_symop_operation_xyz
  'x, y, z'

loop_
  _atom_site_type_symbol
  _atom_site_label
  _atom_site_symmetry_multiplicity
  _atom_site_fract_x
  _atom_site_fract_y
  _atom_site_fract_z
  _atom_site_occupancy
  B   B1        1.0  0.82300  0.62300  0.25000  1.0000
  B   B2        1.0  0.32300  0.87700  0.25000  1.0000
  B   B3        1.0  0.67700  0.12300  0.75000  1.0000
  B   B4        1.0  0.17700  0.37700  0.75000  1.0000
  Mg  Mg1       1.0  0.40300  0.18900  0.25000  1.0000
  Mg  Mg2       1.0  0.90300  0.31100  0.25000  1.0000
  Mg  Mg3       1.0  0.09740  0.68900  0.75000  1.0000
  Mg  Mg4       1.0  0.59700  0.81100  0.75000  1.0000
  O   O1        1.0  0.26700  0.01450  0.25000  1.0000
  O   O2        1.0  0.98500  0.11300  0.25000  1.0000
  O   O3        1.0  0.48500  0.38700  0.25000  1.0000
  O   O4        1.0  0.76700  0.48600  0.25000  1.0000
  O   O5        1.0  0.96500  0.64800  0.25000  1.0000
  O   O6        1.0  0.73500  0.74300  0.25000  1.0000
  O   O7        1.0  0.23500  0.75700  0.25000  1.0000
  O   O8        1.0  0.46500  0.85200  0.25000  1.0000
  O   O9        1.0  0.53500  0.14800  0.75000  1.0000
  O   O10       1.0  0.76500  0.24300  0.75000  1.0000
  O   O11       1.0  0.26500  0.25700  0.75000  1.0000
  O   O12       1.0  0.03470  0.35200  0.75000  1.0000
  O   O13       1.0  0.23300  0.51400  0.75000  1.0000
  O   O14       1.0  0.51500  0.61300  0.75000  1.0000
  O   O15       1.0  0.01550  0.88700  0.75000  1.0000
  O   O16       1.0  0.73300  0.98600  0.75000  1.0000
  Sc  Sc1       1.0  0.38800  0.58900  0.25000  1.0000
  Sc  Sc2       1.0  0.88800  0.91100  0.25000  1.0000
  Sc  Sc3       1.0  0.11200  0.08920  0.75000  1.0000
  Sc  Sc4       1.0  0.61200  0.41100  0.75000  1.0000
