data_image0
_chemical_formula_structural       Cr4Gd4O11
_chemical_formula_sum              "Cr4 Gd4 O11"
_cell_length_a       5.305
_cell_length_b       5.59406
_cell_length_c       7.57315
_cell_angle_alpha    90
_cell_angle_beta     90
_cell_angle_gamma    90.0513

_space_group_name_H-M_alt    "P 1"
_space_group_IT_number       1

loop_
  _space_group_symop_operation_xyz
  'x, y, z'

loop_
  _atom_site_type_symbol
  _atom_site_label
  _atom_site_symmetry_multiplicity
  _atom_site_fract_x
  _atom_site_fract_y
  _atom_site_fract_z
  _atom_site_occupancy
  Cr  Cr1       1.0  0.50000  0.00079  0.00158  1.0000
  Cr  Cr2       1.0  0.00000  0.50100  0.00636  1.0000
  Cr  Cr3       1.0  0.00000  0.50100  0.49400  1.0000
  Cr  Cr4       1.0  0.50000  0.00079  0.49800  1.0000
  Gd  Gd1       1.0  0.98000  0.06600  0.25000  1.0000
  Gd  Gd2       1.0  0.52200  0.56900  0.25000  1.0000
  Gd  Gd3       1.0  0.48400  0.43600  0.75000  1.0000
  Gd  Gd4       1.0  0.01810  0.93200  0.75000  1.0000
  O   O1        1.0  0.80300  0.80100  0.05850  1.0000
  O   O2        1.0  0.69500  0.30000  0.05880  1.0000
  O   O3        1.0  0.38900  0.96600  0.25000  1.0000
  O   O4        1.0  0.69500  0.30000  0.44100  1.0000
  O   O5        1.0  0.80300  0.80100  0.44100  1.0000
  O   O6        1.0  0.19300  0.19700  0.54800  1.0000
  O   O7        1.0  0.30900  0.69700  0.54900  1.0000
  O   O8        1.0  0.60600  0.03650  0.75000  1.0000
  O   O9        1.0  0.89500  0.53700  0.75000  1.0000
  O   O10       1.0  0.30900  0.69700  0.95100  1.0000
  O   O11       1.0  0.19300  0.19700  0.95200  1.0000
