data_image0
_chemical_formula_structural       Eu4O11Pd4
_chemical_formula_sum              "Eu4 O11 Pd4"
_cell_length_a       5.36519
_cell_length_b       5.63976
_cell_length_c       7.76941
_cell_angle_alpha    90
_cell_angle_beta     90
_cell_angle_gamma    90.2594

_space_group_name_H-M_alt    "P 1"
_space_group_IT_number       1

loop_
  _space_group_symop_operation_xyz
  'x, y, z'

loop_
  _atom_site_type_symbol
  _atom_site_label
  _atom_site_symmetry_multiplicity
  _atom_site_fract_x
  _atom_site_fract_y
  _atom_site_fract_z
  _atom_site_occupancy
  Eu  Eu1       1.0  0.96900  0.07340  0.25000  1.0000
  Eu  Eu2       1.0  0.50300  0.56900  0.25000  1.0000
  Eu  Eu3       1.0  0.48400  0.43800  0.75000  1.0000
  Eu  Eu4       1.0  0.02760  0.93300  0.75000  1.0000
  O   O1        1.0  0.69100  0.30700  0.05710  1.0000
  O   O2        1.0  0.80400  0.79500  0.06350  1.0000
  O   O3        1.0  0.39000  0.98400  0.25000  1.0000
  O   O4        1.0  0.80400  0.79500  0.43700  1.0000
  O   O5        1.0  0.69100  0.30700  0.44300  1.0000
  O   O6        1.0  0.18800  0.19600  0.53800  1.0000
  O   O7        1.0  0.31300  0.69500  0.53900  1.0000
  O   O8        1.0  0.60300  0.02350  0.75000  1.0000
  O   O9        1.0  0.93100  0.50900  0.75000  1.0000
  O   O10       1.0  0.31300  0.69500  0.96100  1.0000
  O   O11       1.0  0.18800  0.19600  0.96200  1.0000
  Pd  Pd1       1.0  0.50100  0.00223  0.00218  1.0000
  Pd  Pd2       1.0  0.99900  0.50400  0.00848  1.0000
  Pd  Pd3       1.0  0.99900  0.50400  0.49200  1.0000
  Pd  Pd4       1.0  0.50100  0.00223  0.49800  1.0000
