data_image0
_chemical_formula_structural       K4O11U4
_chemical_formula_sum              "K4 O11 U4"
_cell_length_a       6.16064
_cell_length_b       6.16767
_cell_length_c       8.68993
_cell_angle_alpha    90
_cell_angle_beta     90
_cell_angle_gamma    90.0048

_space_group_name_H-M_alt    "P 1"
_space_group_IT_number       1

loop_
  _space_group_symop_operation_xyz
  'x, y, z'

loop_
  _atom_site_type_symbol
  _atom_site_label
  _atom_site_symmetry_multiplicity
  _atom_site_fract_x
  _atom_site_fract_y
  _atom_site_fract_z
  _atom_site_occupancy
  K   K1        1.0  0.00061  0.00344  0.25000  1.0000
  K   K2        1.0  0.50100  0.50400  0.25000  1.0000
  K   K3        1.0  0.49800  0.49800  0.75000  1.0000
  K   K4        1.0  0.00207  0.99800  0.75000  1.0000
  O   O1        1.0  0.26600  0.73700  0.00352  1.0000
  O   O2        1.0  0.23800  0.23500  0.00390  1.0000
  O   O3        1.0  0.76300  0.76500  0.02950  1.0000
  O   O4        1.0  0.73700  0.26200  0.02980  1.0000
  O   O5        1.0  0.47400  0.99800  0.25000  1.0000
  O   O6        1.0  0.73700  0.26200  0.47000  1.0000
  O   O7        1.0  0.76300  0.76500  0.47000  1.0000
  O   O8        1.0  0.23800  0.23500  0.49600  1.0000
  O   O9        1.0  0.26600  0.73700  0.49600  1.0000
  O   O10       1.0  0.52500  0.00181  0.75000  1.0000
  O   O11       1.0  0.96900  0.50200  0.75000  1.0000
  U   U1        1.0  0.50200  0.00000  0.00403  1.0000
  U   U2        1.0  0.50200  0.00000  0.49600  1.0000
  U   U3        1.0  0.99800  0.50000  0.50600  1.0000
  U   U4        1.0  0.99800  0.50000  0.99400  1.0000
