data_image0
_chemical_formula_structural       Cs4O11Pa4
_chemical_formula_sum              "Cs4 O11 Pa4"
_cell_length_a       6.37968
_cell_length_b       6.37938
_cell_length_c       8.94385
_cell_angle_alpha    90.0031
_cell_angle_beta     90.0011
_cell_angle_gamma    89.2221

_space_group_name_H-M_alt    "P 1"
_space_group_IT_number       1

loop_
  _space_group_symop_operation_xyz
  'x, y, z'

loop_
  _atom_site_type_symbol
  _atom_site_label
  _atom_site_symmetry_multiplicity
  _atom_site_fract_x
  _atom_site_fract_y
  _atom_site_fract_z
  _atom_site_occupancy
  Cs  Cs1       1.0  0.50200  0.49800  0.25500  1.0000
  Cs  Cs2       1.0  0.99800  0.00195  0.25500  1.0000
  Cs  Cs3       1.0  0.99800  0.00203  0.74500  1.0000
  Cs  Cs4       1.0  0.50200  0.49800  0.74500  1.0000
  O   O1        1.0  0.75000  0.75000  0.00013  1.0000
  O   O2        1.0  0.99200  0.49200  0.25400  1.0000
  O   O3        1.0  0.50700  0.00761  0.25400  1.0000
  O   O4        1.0  0.75000  0.25000  0.50000  1.0000
  O   O5        1.0  0.75000  0.75000  0.50000  1.0000
  O   O6        1.0  0.25000  0.75000  0.50000  1.0000
  O   O7        1.0  0.25000  0.25000  0.50000  1.0000
  O   O8        1.0  0.99200  0.49200  0.74600  1.0000
  O   O9        1.0  0.50800  0.00779  0.74600  1.0000
  O   O10       1.0  0.25000  0.75000  0.00000  1.0000
  O   O11       1.0  0.25000  0.25000  0.00000  1.0000
  Pa  Pa1       1.0  0.01390  0.51400  0.00000  1.0000
  Pa  Pa2       1.0  0.48600  0.98600  0.00000  1.0000
  Pa  Pa3       1.0  0.99900  0.49900  0.50000  1.0000
  Pa  Pa4       1.0  0.50100  0.00061  0.50000  1.0000
