data_image0
_chemical_formula_structural       Fe4Mn4O16Si4
_chemical_formula_sum              "Fe4 Mn4 O16 Si4"
_cell_length_a       6.15285
_cell_length_b       4.86258
_cell_length_c       10.5842
_cell_angle_alpha    90
_cell_angle_beta     90
_cell_angle_gamma    90

_space_group_name_H-M_alt    "P 1"
_space_group_IT_number       1

loop_
  _space_group_symop_operation_xyz
  'x, y, z'

loop_
  _atom_site_type_symbol
  _atom_site_label
  _atom_site_symmetry_multiplicity
  _atom_site_fract_x
  _atom_site_fract_y
  _atom_site_fract_z
  _atom_site_occupancy
  Fe  Fe1       1.0  0.00000  0.00000  0.00000  1.0000
  Fe  Fe2       1.0  0.50000  0.00000  0.00000  1.0000
  Fe  Fe3       1.0  0.00000  0.50000  0.50000  1.0000
  Fe  Fe4       1.0  0.50000  0.50000  0.50000  1.0000
  Mn  Mn1       1.0  0.75000  0.48700  0.22200  1.0000
  Mn  Mn2       1.0  0.25000  0.98700  0.27800  1.0000
  Mn  Mn3       1.0  0.75000  0.01310  0.72200  1.0000
  Mn  Mn4       1.0  0.25000  0.51300  0.77800  1.0000
  O   O1        1.0  0.75000  0.71800  0.05000  1.0000
  O   O2        1.0  0.25000  0.76000  0.08930  1.0000
  O   O3        1.0  0.03700  0.28300  0.16200  1.0000
  O   O4        1.0  0.46300  0.28300  0.16200  1.0000
  O   O5        1.0  0.53700  0.78300  0.33800  1.0000
  O   O6        1.0  0.96300  0.78300  0.33800  1.0000
  O   O7        1.0  0.75000  0.26000  0.41100  1.0000
  O   O8        1.0  0.25000  0.21800  0.45000  1.0000
  O   O9        1.0  0.75000  0.78200  0.55000  1.0000
  O   O10       1.0  0.25000  0.74000  0.58900  1.0000
  O   O11       1.0  0.03700  0.21700  0.66200  1.0000
  O   O12       1.0  0.46300  0.21700  0.66200  1.0000
  O   O13       1.0  0.53700  0.71700  0.83800  1.0000
  O   O14       1.0  0.96300  0.71700  0.83800  1.0000
  O   O15       1.0  0.75000  0.24000  0.91100  1.0000
  O   O16       1.0  0.25000  0.28200  0.95000  1.0000
  Si  Si1       1.0  0.25000  0.42400  0.09350  1.0000
  Si  Si2       1.0  0.75000  0.92400  0.40600  1.0000
  Si  Si3       1.0  0.25000  0.07610  0.59400  1.0000
  Si  Si4       1.0  0.75000  0.57600  0.90600  1.0000
