data_image0
_chemical_formula_structural       Al4Gd4O11
_chemical_formula_sum              "Al4 Gd4 O11"
_cell_length_a       5.22248
_cell_length_b       5.28692
_cell_length_c       7.42709
_cell_angle_alpha    90.0627
_cell_angle_beta     89.931
_cell_angle_gamma    90.385

_space_group_name_H-M_alt    "P 1"
_space_group_IT_number       1

loop_
  _space_group_symop_operation_xyz
  'x, y, z'

loop_
  _atom_site_type_symbol
  _atom_site_label
  _atom_site_symmetry_multiplicity
  _atom_site_fract_x
  _atom_site_fract_y
  _atom_site_fract_z
  _atom_site_occupancy
  Al  Al1       1.0  0.50200  0.00145  0.00000  1.0000
  Al  Al2       1.0  0.99700  0.49600  0.00042  1.0000
  Al  Al3       1.0  0.50000  0.00000  0.49900  1.0000
  Al  Al4       1.0  0.00000  0.50000  0.50000  1.0000
  Gd  Gd1       1.0  0.51200  0.53900  0.24600  1.0000
  Gd  Gd2       1.0  0.99100  0.04070  0.25100  1.0000
  Gd  Gd3       1.0  0.49000  0.45800  0.74900  1.0000
  Gd  Gd4       1.0  0.00961  0.95700  0.75200  1.0000
  O   O1        1.0  0.78500  0.78500  0.04030  1.0000
  O   O2        1.0  0.42800  0.98800  0.24900  1.0000
  O   O3        1.0  0.07640  0.48500  0.25000  1.0000
  O   O4        1.0  0.71300  0.28700  0.45700  1.0000
  O   O5        1.0  0.78500  0.78600  0.46000  1.0000
  O   O6        1.0  0.21200  0.21200  0.54100  1.0000
  O   O7        1.0  0.28500  0.71400  0.54200  1.0000
  O   O8        1.0  0.57800  0.01880  0.75100  1.0000
  O   O9        1.0  0.92300  0.51300  0.75100  1.0000
  O   O10       1.0  0.28600  0.71300  0.95900  1.0000
  O   O11       1.0  0.21700  0.21400  0.96100  1.0000
