data_image0
_chemical_formula_structural       Ba10Bi10In8
_chemical_formula_sum              "Ba10 Bi10 In8"
_cell_length_a       9.0587
_cell_length_b       10.7077
_cell_length_c       10.7077
_cell_angle_alpha    90
_cell_angle_beta     90
_cell_angle_gamma    90

_space_group_name_H-M_alt    "P 1"
_space_group_IT_number       1

loop_
  _space_group_symop_operation_xyz
  'x, y, z'

loop_
  _atom_site_type_symbol
  _atom_site_label
  _atom_site_symmetry_multiplicity
  _atom_site_fract_x
  _atom_site_fract_y
  _atom_site_fract_z
  _atom_site_occupancy
  Ba  Ba1       1.0  0.19900  0.00000  0.00000  1.0000
  Ba  Ba2       1.0  0.87400  0.69000  0.10600  1.0000
  Ba  Ba3       1.0  0.37400  0.60600  0.19000  1.0000
  Ba  Ba4       1.0  0.87400  0.10600  0.31000  1.0000
  Ba  Ba5       1.0  0.37400  0.19000  0.39400  1.0000
  Ba  Ba6       1.0  0.69900  0.50000  0.50000  1.0000
  Ba  Ba7       1.0  0.37400  0.81000  0.60600  1.0000
  Ba  Ba8       1.0  0.87400  0.89400  0.69000  1.0000
  Ba  Ba9       1.0  0.37400  0.39400  0.81000  1.0000
  Ba  Ba10      1.0  0.87400  0.31000  0.89400  1.0000
  Bi  Bi1       1.0  0.81400  0.00000  0.00000  1.0000
  Bi  Bi2       1.0  0.19300  0.31000  0.10900  1.0000
  Bi  Bi3       1.0  0.69300  0.39100  0.19000  1.0000
  Bi  Bi4       1.0  0.19300  0.89100  0.31000  1.0000
  Bi  Bi5       1.0  0.69300  0.81000  0.39100  1.0000
  Bi  Bi6       1.0  0.31400  0.50000  0.50000  1.0000
  Bi  Bi7       1.0  0.69300  0.19000  0.60900  1.0000
  Bi  Bi8       1.0  0.19300  0.10900  0.69000  1.0000
  Bi  Bi9       1.0  0.69300  0.60900  0.81000  1.0000
  Bi  Bi10      1.0  0.19300  0.69000  0.89100  1.0000
  In  In1       1.0  0.53000  0.18500  0.07190  1.0000
  In  In2       1.0  0.53000  0.92800  0.18500  1.0000
  In  In3       1.0  0.03040  0.42800  0.31500  1.0000
  In  In4       1.0  0.03040  0.68500  0.42800  1.0000
  In  In5       1.0  0.03040  0.31500  0.57200  1.0000
  In  In6       1.0  0.03040  0.57200  0.68500  1.0000
  In  In7       1.0  0.53000  0.07190  0.81500  1.0000
  In  In8       1.0  0.53000  0.81500  0.92800  1.0000
