data_image0
_chemical_formula_structural       Co2F2H8Na2O12S2
_chemical_formula_sum              "Co2 F2 H8 Na2 O12 S2"
_cell_length_a       5.63276
_cell_length_b       7.22866
_cell_length_c       7.08304
_cell_angle_alpha    90
_cell_angle_beta     113.917
_cell_angle_gamma    90

_space_group_name_H-M_alt    "P 1"
_space_group_IT_number       1

loop_
  _space_group_symop_operation_xyz
  'x, y, z'

loop_
  _atom_site_type_symbol
  _atom_site_label
  _atom_site_symmetry_multiplicity
  _atom_site_fract_x
  _atom_site_fract_y
  _atom_site_fract_z
  _atom_site_occupancy
  Co  Co1       1.0  0.50000  0.00000  0.50000  1.0000
  Co  Co2       1.0  0.50000  0.50000  0.50000  1.0000
  F   F1        1.0  0.64700  0.75000  0.49000  1.0000
  F   F2        1.0  0.35300  0.25000  0.51000  1.0000
  H   H1        1.0  0.19900  0.59400  0.11900  1.0000
  H   H2        1.0  0.19900  0.90600  0.11900  1.0000
  H   H3        1.0  0.07210  0.07510  0.19000  1.0000
  H   H4        1.0  0.07210  0.42500  0.19000  1.0000
  H   H5        1.0  0.92800  0.57500  0.81000  1.0000
  H   H6        1.0  0.92800  0.92500  0.81000  1.0000
  H   H7        1.0  0.80100  0.09390  0.88100  1.0000
  H   H8        1.0  0.80100  0.40600  0.88100  1.0000
  Na  Na1       1.0  0.88600  0.75000  0.31000  1.0000
  Na  Na2       1.0  0.11400  0.25000  0.69000  1.0000
  O   O1        1.0  0.37900  0.25000  0.04170  1.0000
  O   O2        1.0  0.83200  0.25000  0.08470  1.0000
  O   O3        1.0  0.16400  0.54400  0.23500  1.0000
  O   O4        1.0  0.16400  0.95600  0.23500  1.0000
  O   O5        1.0  0.71300  0.08220  0.32800  1.0000
  O   O6        1.0  0.71300  0.41800  0.32800  1.0000
  O   O7        1.0  0.28700  0.58200  0.67200  1.0000
  O   O8        1.0  0.28700  0.91800  0.67200  1.0000
  O   O9        1.0  0.83600  0.04440  0.76500  1.0000
  O   O10       1.0  0.83600  0.45600  0.76500  1.0000
  O   O11       1.0  0.16800  0.75000  0.91500  1.0000
  O   O12       1.0  0.62100  0.75000  0.95800  1.0000
  S   S1        1.0  0.64800  0.25000  0.19300  1.0000
  S   S2        1.0  0.35200  0.75000  0.80700  1.0000
