data_image0
_chemical_formula_structural       Br16Cd4Cs8
_chemical_formula_sum              "Br16 Cd4 Cs8"
_cell_length_a       10.2379
_cell_length_b       7.71532
_cell_length_c       13.5747
_cell_angle_alpha    90
_cell_angle_beta     90
_cell_angle_gamma    90

_space_group_name_H-M_alt    "P 1"
_space_group_IT_number       1

loop_
  _space_group_symop_operation_xyz
  'x, y, z'

loop_
  _atom_site_type_symbol
  _atom_site_label
  _atom_site_symmetry_multiplicity
  _atom_site_fract_x
  _atom_site_fract_y
  _atom_site_fract_z
  _atom_site_occupancy
  Br  Br1       1.0  0.32400  0.98400  0.33900  1.0000
  Br  Br2       1.0  0.17600  0.01550  0.83900  1.0000
  Br  Br3       1.0  0.82400  0.51600  0.16100  1.0000
  Br  Br4       1.0  0.67600  0.48400  0.66100  1.0000
  Br  Br5       1.0  0.67600  0.01550  0.66100  1.0000
  Br  Br6       1.0  0.82400  0.98400  0.16100  1.0000
  Br  Br7       1.0  0.17600  0.48400  0.83900  1.0000
  Br  Br8       1.0  0.32400  0.51600  0.33900  1.0000
  Br  Br9       1.0  0.32500  0.25000  0.59800  1.0000
  Br  Br10      1.0  0.17500  0.75000  0.09780  1.0000
  Br  Br11      1.0  0.82500  0.25000  0.90200  1.0000
  Br  Br12      1.0  0.67500  0.75000  0.40200  1.0000
  Br  Br13      1.0  0.96400  0.25000  0.40100  1.0000
  Br  Br14      1.0  0.53600  0.75000  0.90100  1.0000
  Br  Br15      1.0  0.46400  0.25000  0.09900  1.0000
  Br  Br16      1.0  0.03630  0.75000  0.59900  1.0000
  Cd  Cd1       1.0  0.21500  0.25000  0.42400  1.0000
  Cd  Cd2       1.0  0.28500  0.75000  0.92400  1.0000
  Cd  Cd3       1.0  0.71500  0.25000  0.07560  1.0000
  Cd  Cd4       1.0  0.78500  0.75000  0.57600  1.0000
  Cs  Cs1       1.0  0.11300  0.25000  0.10000  1.0000
  Cs  Cs2       1.0  0.38700  0.75000  0.60000  1.0000
  Cs  Cs3       1.0  0.61300  0.25000  0.40000  1.0000
  Cs  Cs4       1.0  0.88700  0.75000  0.90000  1.0000
  Cs  Cs5       1.0  0.98000  0.25000  0.66500  1.0000
  Cs  Cs6       1.0  0.52000  0.75000  0.16500  1.0000
  Cs  Cs7       1.0  0.48000  0.25000  0.83500  1.0000
  Cs  Cs8       1.0  0.02010  0.75000  0.33500  1.0000
