data_image0
_chemical_formula_structural       Cr4Eu4O11
_chemical_formula_sum              "Cr4 Eu4 O11"
_cell_length_a       5.39621
_cell_length_b       5.38933
_cell_length_c       7.53766
_cell_angle_alpha    90
_cell_angle_beta     90
_cell_angle_gamma    89.7624

_space_group_name_H-M_alt    "P 1"
_space_group_IT_number       1

loop_
  _space_group_symop_operation_xyz
  'x, y, z'

loop_
  _atom_site_type_symbol
  _atom_site_label
  _atom_site_symmetry_multiplicity
  _atom_site_fract_x
  _atom_site_fract_y
  _atom_site_fract_z
  _atom_site_occupancy
  Cr  Cr1       1.0  0.50700  0.99900  0.00540  1.0000
  Cr  Cr2       1.0  0.50700  0.99900  0.49500  1.0000
  Cr  Cr3       1.0  0.99300  0.50000  0.51200  1.0000
  Cr  Cr4       1.0  0.99300  0.50000  0.98800  1.0000
  Eu  Eu1       1.0  0.99800  0.01930  0.25000  1.0000
  Eu  Eu2       1.0  0.49400  0.52200  0.25000  1.0000
  Eu  Eu3       1.0  0.48500  0.47800  0.75000  1.0000
  Eu  Eu4       1.0  0.01790  0.98300  0.75000  1.0000
  O   O1        1.0  0.73500  0.26900  0.04820  1.0000
  O   O2        1.0  0.77100  0.76700  0.04910  1.0000
  O   O3        1.0  0.43200  0.98300  0.25000  1.0000
  O   O4        1.0  0.77100  0.76700  0.45100  1.0000
  O   O5        1.0  0.73500  0.26900  0.45200  1.0000
  O   O6        1.0  0.23600  0.23200  0.51900  1.0000
  O   O7        1.0  0.27300  0.72900  0.52200  1.0000
  O   O8        1.0  0.57200  0.01440  0.75000  1.0000
  O   O9        1.0  0.91800  0.51800  0.75000  1.0000
  O   O10       1.0  0.27300  0.72900  0.97800  1.0000
  O   O11       1.0  0.23600  0.23200  0.98100  1.0000
