data_image0
_chemical_formula_structural       Ag10Zn16
_chemical_formula_sum              "Ag10 Zn16"
_cell_length_a       8.1389
_cell_length_b       8.1389
_cell_length_c       8.1389
_cell_angle_alpha    109.471
_cell_angle_beta     109.471
_cell_angle_gamma    109.471

_space_group_name_H-M_alt    "P 1"
_space_group_IT_number       1

loop_
  _space_group_symop_operation_xyz
  'x, y, z'

loop_
  _atom_site_type_symbol
  _atom_site_label
  _atom_site_symmetry_multiplicity
  _atom_site_fract_x
  _atom_site_fract_y
  _atom_site_fract_z
  _atom_site_occupancy
  Ag  Ag1       1.0  0.64200  0.00000  0.00000  1.0000
  Ag  Ag2       1.0  0.35400  0.35400  0.00000  1.0000
  Ag  Ag3       1.0  0.00000  0.64200  0.00000  1.0000
  Ag  Ag4       1.0  0.64600  0.64600  0.00000  1.0000
  Ag  Ag5       1.0  0.35400  0.00000  0.35400  1.0000
  Ag  Ag6       1.0  0.00000  0.35400  0.35400  1.0000
  Ag  Ag7       1.0  0.35800  0.35800  0.35800  1.0000
  Ag  Ag8       1.0  0.00000  0.00000  0.64200  1.0000
  Ag  Ag9       1.0  0.64600  0.00000  0.64600  1.0000
  Ag  Ag10      1.0  0.00000  0.64600  0.64600  1.0000
  Zn  Zn1       1.0  0.22000  0.00000  0.00000  1.0000
  Zn  Zn2       1.0  0.00000  0.22000  0.00000  1.0000
  Zn  Zn3       1.0  0.71500  0.34400  0.00000  1.0000
  Zn  Zn4       1.0  0.34400  0.71500  0.00000  1.0000
  Zn  Zn5       1.0  0.00000  0.00000  0.22000  1.0000
  Zn  Zn6       1.0  0.63000  0.28500  0.28500  1.0000
  Zn  Zn7       1.0  0.28500  0.63000  0.28500  1.0000
  Zn  Zn8       1.0  0.71500  0.00000  0.34400  1.0000
  Zn  Zn9       1.0  0.00000  0.71500  0.34400  1.0000
  Zn  Zn10      1.0  0.65600  0.65600  0.37000  1.0000
  Zn  Zn11      1.0  0.28500  0.28500  0.63000  1.0000
  Zn  Zn12      1.0  0.65600  0.37000  0.65600  1.0000
  Zn  Zn13      1.0  0.37000  0.65600  0.65600  1.0000
  Zn  Zn14      1.0  0.34400  0.00000  0.71500  1.0000
  Zn  Zn15      1.0  0.00000  0.34400  0.71500  1.0000
  Zn  Zn16      1.0  0.78000  0.78000  0.78000  1.0000
