data_image0
_chemical_formula_structural       As2K2O5
_chemical_formula_sum              "As2 K2 O5"
_cell_length_a       5.49164
_cell_length_b       5.21737
_cell_length_c       5.93
_cell_angle_alpha    69.1046
_cell_angle_beta     71.5578
_cell_angle_gamma    61.8818

_space_group_name_H-M_alt    "P 1"
_space_group_IT_number       1

loop_
  _space_group_symop_operation_xyz
  'x, y, z'

loop_
  _atom_site_type_symbol
  _atom_site_label
  _atom_site_symmetry_multiplicity
  _atom_site_fract_x
  _atom_site_fract_y
  _atom_site_fract_z
  _atom_site_occupancy
  As  As1       1.0  0.61100  0.67400  0.05840  1.0000
  As  As2       1.0  0.38800  0.32100  0.95200  1.0000
  K   K1        1.0  0.86500  0.84300  0.39400  1.0000
  K   K2        1.0  0.14700  0.09380  0.63800  1.0000
  O   O1        1.0  0.27400  0.99300  0.13300  1.0000
  O   O2        1.0  0.38200  0.38500  0.22700  1.0000
  O   O3        1.0  0.13000  0.52400  0.78500  1.0000
  O   O4        1.0  0.57400  0.59300  0.79900  1.0000
  O   O5        1.0  0.68700  0.03040  0.83700  1.0000
