data_image0
_chemical_formula_structural       As12K4Si12
_chemical_formula_sum              "As12 K4 Si12"
_cell_length_a       10.1454
_cell_length_b       19.4946
_cell_length_c       3.70941
_cell_angle_alpha    90
_cell_angle_beta     90
_cell_angle_gamma    90

_space_group_name_H-M_alt    "P 1"
_space_group_IT_number       1

loop_
  _space_group_symop_operation_xyz
  'x, y, z'

loop_
  _atom_site_type_symbol
  _atom_site_label
  _atom_site_symmetry_multiplicity
  _atom_site_fract_x
  _atom_site_fract_y
  _atom_site_fract_z
  _atom_site_occupancy
  As  As1       1.0  0.71700  0.04080  0.00000  1.0000
  As  As2       1.0  0.39800  0.19700  0.00000  1.0000
  As  As3       1.0  0.89800  0.30300  0.00000  1.0000
  As  As4       1.0  0.21700  0.45900  0.00000  1.0000
  As  As5       1.0  0.78300  0.54100  0.00000  1.0000
  As  As6       1.0  0.10200  0.69700  0.00000  1.0000
  As  As7       1.0  0.60200  0.80300  0.00000  1.0000
  As  As8       1.0  0.28300  0.95900  0.00000  1.0000
  As  As9       1.0  0.08730  0.11400  0.50000  1.0000
  As  As10      1.0  0.58700  0.38600  0.50000  1.0000
  As  As11      1.0  0.41300  0.61400  0.50000  1.0000
  As  As12      1.0  0.91300  0.88600  0.50000  1.0000
  K   K1        1.0  0.69300  0.19600  0.50000  1.0000
  K   K2        1.0  0.19300  0.30400  0.50000  1.0000
  K   K3        1.0  0.80700  0.69600  0.50000  1.0000
  K   K4        1.0  0.30700  0.80400  0.50000  1.0000
  Si  Si1       1.0  0.09340  0.03560  0.00000  1.0000
  Si  Si2       1.0  0.59300  0.46400  0.00000  1.0000
  Si  Si3       1.0  0.40700  0.53600  0.00000  1.0000
  Si  Si4       1.0  0.90700  0.96400  0.00000  1.0000
  Si  Si5       1.0  0.38800  0.01550  0.50000  1.0000
  Si  Si6       1.0  0.32600  0.13200  0.50000  1.0000
  Si  Si7       1.0  0.82600  0.36800  0.50000  1.0000
  Si  Si8       1.0  0.88800  0.48400  0.50000  1.0000
  Si  Si9       1.0  0.11200  0.51600  0.50000  1.0000
  Si  Si10      1.0  0.17400  0.63200  0.50000  1.0000
  Si  Si11      1.0  0.67400  0.86800  0.50000  1.0000
  Si  Si12      1.0  0.61200  0.98400  0.50000  1.0000
