data_image0
_chemical_formula_structural       Ag4Eu4O11
_chemical_formula_sum              "Ag4 Eu4 O11"
_cell_length_a       5.50967
_cell_length_b       5.80158
_cell_length_c       7.81804
_cell_angle_alpha    90
_cell_angle_beta     90
_cell_angle_gamma    90.526

_space_group_name_H-M_alt    "P 1"
_space_group_IT_number       1

loop_
  _space_group_symop_operation_xyz
  'x, y, z'

loop_
  _atom_site_type_symbol
  _atom_site_label
  _atom_site_symmetry_multiplicity
  _atom_site_fract_x
  _atom_site_fract_y
  _atom_site_fract_z
  _atom_site_occupancy
  Ag  Ag1       1.0  0.50300  0.00072  0.00219  1.0000
  Ag  Ag2       1.0  0.00000  0.50000  0.00775  1.0000
  Ag  Ag3       1.0  0.00000  0.50000  0.49200  1.0000
  Ag  Ag4       1.0  0.50300  0.00072  0.49800  1.0000
  Eu  Eu1       1.0  0.97500  0.06370  0.25000  1.0000
  Eu  Eu2       1.0  0.51200  0.57100  0.25000  1.0000
  Eu  Eu3       1.0  0.47900  0.43700  0.75000  1.0000
  Eu  Eu4       1.0  0.02390  0.93600  0.75000  1.0000
  O   O1        1.0  0.70100  0.30200  0.06300  1.0000
  O   O2        1.0  0.80300  0.78900  0.06440  1.0000
  O   O3        1.0  0.39000  0.97000  0.25000  1.0000
  O   O4        1.0  0.80300  0.78900  0.43600  1.0000
  O   O5        1.0  0.70100  0.30200  0.43700  1.0000
  O   O6        1.0  0.19300  0.20300  0.53700  1.0000
  O   O7        1.0  0.30500  0.69600  0.54000  1.0000
  O   O8        1.0  0.60600  0.03770  0.75000  1.0000
  O   O9        1.0  0.90100  0.53500  0.75000  1.0000
  O   O10       1.0  0.30500  0.69600  0.96000  1.0000
  O   O11       1.0  0.19300  0.20300  0.96300  1.0000
