data_image0
_chemical_formula_structural       Fe4Na12Se12
_chemical_formula_sum              "Fe4 Na12 Se12"
_cell_length_a       7.38608
_cell_length_b       7.15948
_cell_length_c       12.9501
_cell_angle_alpha    90
_cell_angle_beta     90.7307
_cell_angle_gamma    90

_space_group_name_H-M_alt    "P 1"
_space_group_IT_number       1

loop_
  _space_group_symop_operation_xyz
  'x, y, z'

loop_
  _atom_site_type_symbol
  _atom_site_label
  _atom_site_symmetry_multiplicity
  _atom_site_fract_x
  _atom_site_fract_y
  _atom_site_fract_z
  _atom_site_occupancy
  Fe  Fe1       1.0  0.57500  0.12400  0.07450  1.0000
  Fe  Fe2       1.0  0.92500  0.62400  0.42500  1.0000
  Fe  Fe3       1.0  0.07450  0.37600  0.57500  1.0000
  Fe  Fe4       1.0  0.42500  0.87600  0.92500  1.0000
  Na  Na1       1.0  0.22000  0.48700  0.09380  1.0000
  Na  Na2       1.0  0.16500  0.98600  0.11200  1.0000
  Na  Na3       1.0  0.72800  0.50400  0.22500  1.0000
  Na  Na4       1.0  0.77200  0.00433  0.27500  1.0000
  Na  Na5       1.0  0.33500  0.48600  0.38800  1.0000
  Na  Na6       1.0  0.28000  0.98700  0.40600  1.0000
  Na  Na7       1.0  0.72000  0.01310  0.59400  1.0000
  Na  Na8       1.0  0.66500  0.51400  0.61200  1.0000
  Na  Na9       1.0  0.22800  0.99600  0.72500  1.0000
  Na  Na10      1.0  0.27200  0.49600  0.77500  1.0000
  Na  Na11      1.0  0.83500  0.01350  0.88800  1.0000
  Na  Na12      1.0  0.78000  0.51300  0.90600  1.0000
  Se  Se1       1.0  0.87200  0.24600  0.07330  1.0000
  Se  Se2       1.0  0.58700  0.78900  0.07720  1.0000
  Se  Se3       1.0  0.42600  0.22100  0.22700  1.0000
  Se  Se4       1.0  0.07430  0.72100  0.27300  1.0000
  Se  Se5       1.0  0.91300  0.28900  0.42300  1.0000
  Se  Se6       1.0  0.62800  0.74600  0.42700  1.0000
  Se  Se7       1.0  0.37200  0.25400  0.57300  1.0000
  Se  Se8       1.0  0.08710  0.71100  0.57700  1.0000
  Se  Se9       1.0  0.92600  0.27900  0.72700  1.0000
  Se  Se10      1.0  0.57400  0.77900  0.77300  1.0000
  Se  Se11      1.0  0.41300  0.21100  0.92300  1.0000
  Se  Se12      1.0  0.12800  0.75400  0.92700  1.0000
