data_image0
_chemical_formula_structural       Co8Ge2Nb18
_chemical_formula_sum              "Co8 Ge2 Nb18"
_cell_length_a       5.05406
_cell_length_b       9.66133
_cell_length_c       9.66133
_cell_angle_alpha    93.9229
_cell_angle_beta     105.163
_cell_angle_gamma    74.8373

_space_group_name_H-M_alt    "P 1"
_space_group_IT_number       1

loop_
  _space_group_symop_operation_xyz
  'x, y, z'

loop_
  _atom_site_type_symbol
  _atom_site_label
  _atom_site_symmetry_multiplicity
  _atom_site_fract_x
  _atom_site_fract_y
  _atom_site_fract_z
  _atom_site_occupancy
  Co  Co1       1.0  0.00000  0.50000  0.00000  1.0000
  Co  Co2       1.0  0.50000  0.50000  0.00000  1.0000
  Co  Co3       1.0  0.86700  0.50000  0.23400  1.0000
  Co  Co4       1.0  0.00000  0.00000  0.50000  1.0000
  Co  Co5       1.0  0.50000  0.00000  0.50000  1.0000
  Co  Co6       1.0  0.63300  0.23400  0.50000  1.0000
  Co  Co7       1.0  0.36700  0.76600  0.50000  1.0000
  Co  Co8       1.0  0.13300  0.50000  0.76600  1.0000
  Ge  Ge1       1.0  0.25000  0.00000  0.00000  1.0000
  Ge  Ge2       1.0  0.75000  0.00000  0.00000  1.0000
  Nb  Nb1       1.0  0.91300  0.25300  0.07870  1.0000
  Nb  Nb2       1.0  0.66600  0.74700  0.07870  1.0000
  Nb  Nb3       1.0  0.29400  0.63600  0.22500  1.0000
  Nb  Nb4       1.0  0.43100  0.36400  0.22500  1.0000
  Nb  Nb5       1.0  0.16600  0.92100  0.25300  1.0000
  Nb  Nb6       1.0  0.58700  0.07870  0.25300  1.0000
  Nb  Nb7       1.0  0.79400  0.77500  0.36400  1.0000
  Nb  Nb8       1.0  0.06920  0.22500  0.36400  1.0000
  Nb  Nb9       1.0  0.25000  0.50000  0.50000  1.0000
  Nb  Nb10      1.0  0.75000  0.50000  0.50000  1.0000
  Nb  Nb11      1.0  0.20600  0.22500  0.63600  1.0000
  Nb  Nb12      1.0  0.93100  0.77500  0.63600  1.0000
  Nb  Nb13      1.0  0.83400  0.07870  0.74700  1.0000
  Nb  Nb14      1.0  0.41300  0.92100  0.74700  1.0000
  Nb  Nb15      1.0  0.70600  0.36400  0.77500  1.0000
  Nb  Nb16      1.0  0.56900  0.63600  0.77500  1.0000
  Nb  Nb17      1.0  0.33400  0.25300  0.92100  1.0000
  Nb  Nb18      1.0  0.08690  0.74700  0.92100  1.0000
