data_image0
_chemical_formula_structural       O10P4
_chemical_formula_sum              "O10 P4"
_cell_length_a       4.80582
_cell_length_b       4.80582
_cell_length_c       8.51917
_cell_angle_alpha    99.1606
_cell_angle_beta     99.1606
_cell_angle_gamma    115.822

_space_group_name_H-M_alt    "P 1"
_space_group_IT_number       1

loop_
  _space_group_symop_operation_xyz
  'x, y, z'

loop_
  _atom_site_type_symbol
  _atom_site_label
  _atom_site_symmetry_multiplicity
  _atom_site_fract_x
  _atom_site_fract_y
  _atom_site_fract_z
  _atom_site_occupancy
  O   O1        1.0  0.99000  0.99000  0.00000  1.0000
  O   O2        1.0  0.28100  0.61000  0.10700  1.0000
  O   O3        1.0  0.83800  0.21300  0.22300  1.0000
  O   O4        1.0  0.36500  0.24000  0.27700  1.0000
  O   O5        1.0  0.92400  0.75300  0.39300  1.0000
  O   O6        1.0  0.74000  0.24000  0.50000  1.0000
  O   O7        1.0  0.36000  0.53100  0.60700  1.0000
  O   O8        1.0  0.96300  0.08790  0.72300  1.0000
  O   O9        1.0  0.99000  0.61500  0.77700  1.0000
  O   O10       1.0  0.50300  0.17400  0.89300  1.0000
  P   P1        1.0  0.13600  0.30400  0.14800  1.0000
  P   P2        1.0  0.73800  0.40600  0.35200  1.0000
  P   P3        1.0  0.05410  0.38600  0.64800  1.0000
  P   P4        1.0  0.15600  0.98800  0.85200  1.0000
