data_image0
_chemical_formula_structural       Eu4O11Pt4
_chemical_formula_sum              "Eu4 O11 Pt4"
_cell_length_a       5.33996
_cell_length_b       5.70284
_cell_length_c       7.77553
_cell_angle_alpha    90
_cell_angle_beta     90
_cell_angle_gamma    90.2531

_space_group_name_H-M_alt    "P 1"
_space_group_IT_number       1

loop_
  _space_group_symop_operation_xyz
  'x, y, z'

loop_
  _atom_site_type_symbol
  _atom_site_label
  _atom_site_symmetry_multiplicity
  _atom_site_fract_x
  _atom_site_fract_y
  _atom_site_fract_z
  _atom_site_occupancy
  Eu  Eu1       1.0  0.96600  0.07820  0.25000  1.0000
  Eu  Eu2       1.0  0.50400  0.57300  0.25000  1.0000
  Eu  Eu3       1.0  0.48400  0.43300  0.75000  1.0000
  Eu  Eu4       1.0  0.02950  0.92500  0.75000  1.0000
  O   O1        1.0  0.68200  0.31100  0.05540  1.0000
  O   O2        1.0  0.81000  0.79900  0.06330  1.0000
  O   O3        1.0  0.38400  0.98200  0.25000  1.0000
  O   O4        1.0  0.81000  0.79900  0.43700  1.0000
  O   O5        1.0  0.68200  0.31100  0.44500  1.0000
  O   O6        1.0  0.18400  0.19500  0.54100  1.0000
  O   O7        1.0  0.31500  0.69400  0.54300  1.0000
  O   O8        1.0  0.60900  0.02510  0.75000  1.0000
  O   O9        1.0  0.92700  0.51000  0.75000  1.0000
  O   O10       1.0  0.31500  0.69400  0.95700  1.0000
  O   O11       1.0  0.18400  0.19500  0.95900  1.0000
  Pt  Pt1       1.0  0.50000  0.00125  0.00265  1.0000
  Pt  Pt2       1.0  0.00193  0.50200  0.01520  1.0000
  Pt  Pt3       1.0  0.00193  0.50200  0.48500  1.0000
  Pt  Pt4       1.0  0.50000  0.00125  0.49700  1.0000
