data_image0
_chemical_formula_structural       Ag6N10O12
_chemical_formula_sum              "Ag6 N10 O12"
_cell_length_a       7.11331
_cell_length_b       5.60159
_cell_length_c       9.36087
_cell_angle_alpha    90
_cell_angle_beta     90
_cell_angle_gamma    113.187

_space_group_name_H-M_alt    "P 1"
_space_group_IT_number       1

loop_
  _space_group_symop_operation_xyz
  'x, y, z'

loop_
  _atom_site_type_symbol
  _atom_site_label
  _atom_site_symmetry_multiplicity
  _atom_site_fract_x
  _atom_site_fract_y
  _atom_site_fract_z
  _atom_site_occupancy
  Ag  Ag1       1.0  0.00000  0.57200  0.05350  1.0000
  Ag  Ag2       1.0  0.28000  0.22300  0.10200  1.0000
  Ag  Ag3       1.0  0.72000  0.94300  0.10200  1.0000
  Ag  Ag4       1.0  0.00000  0.42800  0.55400  1.0000
  Ag  Ag5       1.0  0.28000  0.05690  0.60200  1.0000
  Ag  Ag6       1.0  0.72000  0.77700  0.60200  1.0000
  N   N1        1.0  0.00000  0.86700  0.20900  1.0000
  N   N2        1.0  0.00000  0.83100  0.33400  1.0000
  N   N3        1.0  0.61000  0.17400  0.37500  1.0000
  N   N4        1.0  0.39000  0.56400  0.37500  1.0000
  N   N5        1.0  0.00000  0.80300  0.46000  1.0000
  N   N6        1.0  0.00000  0.13300  0.70900  1.0000
  N   N7        1.0  0.00000  0.16900  0.83400  1.0000
  N   N8        1.0  0.61000  0.43600  0.87500  1.0000
  N   N9        1.0  0.39000  0.82600  0.87500  1.0000
  N   N10       1.0  0.00000  0.19700  0.96000  1.0000
  O   O1        1.0  0.60900  0.38600  0.00977  1.0000
  O   O2        1.0  0.39100  0.77600  0.00977  1.0000
  O   O3        1.0  0.44300  0.06860  0.30900  1.0000
  O   O4        1.0  0.55700  0.62500  0.30900  1.0000
  O   O5        1.0  0.78100  0.23000  0.31400  1.0000
  O   O6        1.0  0.21900  0.44900  0.31400  1.0000
  O   O7        1.0  0.60900  0.22400  0.51000  1.0000
  O   O8        1.0  0.39100  0.61400  0.51000  1.0000
  O   O9        1.0  0.44300  0.37500  0.80900  1.0000
  O   O10       1.0  0.55700  0.93100  0.80900  1.0000
  O   O11       1.0  0.78100  0.55100  0.81400  1.0000
  O   O12       1.0  0.21900  0.77000  0.81400  1.0000
