data_image0
_chemical_formula_structural       Co4Mg4O16Si4
_chemical_formula_sum              "Co4 Mg4 O16 Si4"
_cell_length_a       4.77569
_cell_length_b       10.1944
_cell_length_c       5.95174
_cell_angle_alpha    90
_cell_angle_beta     90
_cell_angle_gamma    90

_space_group_name_H-M_alt    "P 1"
_space_group_IT_number       1

loop_
  _space_group_symop_operation_xyz
  'x, y, z'

loop_
  _atom_site_type_symbol
  _atom_site_label
  _atom_site_symmetry_multiplicity
  _atom_site_fract_x
  _atom_site_fract_y
  _atom_site_fract_z
  _atom_site_occupancy
  Co  Co1       1.0  0.00000  0.00000  0.00000  1.0000
  Co  Co2       1.0  0.50000  0.50000  0.00000  1.0000
  Co  Co3       1.0  0.00000  0.00000  0.50000  1.0000
  Co  Co4       1.0  0.50000  0.50000  0.50000  1.0000
  Mg  Mg1       1.0  0.99200  0.27600  0.25000  1.0000
  Mg  Mg2       1.0  0.50800  0.77600  0.25000  1.0000
  Mg  Mg3       1.0  0.49200  0.22400  0.75000  1.0000
  Mg  Mg4       1.0  0.00816  0.72400  0.75000  1.0000
  O   O1        1.0  0.27900  0.16600  0.03160  1.0000
  O   O2        1.0  0.22100  0.66600  0.03160  1.0000
  O   O3        1.0  0.76900  0.09550  0.25000  1.0000
  O   O4        1.0  0.21300  0.44500  0.25000  1.0000
  O   O5        1.0  0.73100  0.59500  0.25000  1.0000
  O   O6        1.0  0.28700  0.94500  0.25000  1.0000
  O   O7        1.0  0.27900  0.16600  0.46800  1.0000
  O   O8        1.0  0.22100  0.66600  0.46800  1.0000
  O   O9        1.0  0.77900  0.33400  0.53200  1.0000
  O   O10       1.0  0.72100  0.83400  0.53200  1.0000
  O   O11       1.0  0.71300  0.05470  0.75000  1.0000
  O   O12       1.0  0.26900  0.40500  0.75000  1.0000
  O   O13       1.0  0.78700  0.55500  0.75000  1.0000
  O   O14       1.0  0.23100  0.90500  0.75000  1.0000
  O   O15       1.0  0.77900  0.33400  0.96800  1.0000
  O   O16       1.0  0.72100  0.83400  0.96800  1.0000
  Si  Si1       1.0  0.42700  0.09500  0.25000  1.0000
  Si  Si2       1.0  0.07320  0.59500  0.25000  1.0000
  Si  Si3       1.0  0.92700  0.40500  0.75000  1.0000
  Si  Si4       1.0  0.57300  0.90500  0.75000  1.0000
