data_image0
_chemical_formula_structural       Eu4O11V4
_chemical_formula_sum              "Eu4 O11 V4"
_cell_length_a       5.45098
_cell_length_b       5.45174
_cell_length_c       7.52896
_cell_angle_alpha    90
_cell_angle_beta     90
_cell_angle_gamma    90.7978

_space_group_name_H-M_alt    "P 1"
_space_group_IT_number       1

loop_
  _space_group_symop_operation_xyz
  'x, y, z'

loop_
  _atom_site_type_symbol
  _atom_site_label
  _atom_site_symmetry_multiplicity
  _atom_site_fract_x
  _atom_site_fract_y
  _atom_site_fract_z
  _atom_site_occupancy
  Eu  Eu1       1.0  0.00133  0.01350  0.25000  1.0000
  Eu  Eu2       1.0  0.50600  0.52300  0.25000  1.0000
  Eu  Eu3       1.0  0.48400  0.48100  0.75000  1.0000
  Eu  Eu4       1.0  0.00554  0.97900  0.75000  1.0000
  O   O1        1.0  0.77300  0.76700  0.04270  1.0000
  O   O2        1.0  0.74900  0.27800  0.04700  1.0000
  O   O3        1.0  0.44300  0.99800  0.25000  1.0000
  O   O4        1.0  0.74900  0.27800  0.45300  1.0000
  O   O5        1.0  0.77300  0.76700  0.45700  1.0000
  O   O6        1.0  0.26100  0.71800  0.51400  1.0000
  O   O7        1.0  0.23000  0.23100  0.52700  1.0000
  O   O8        1.0  0.55800  0.00429  0.75000  1.0000
  O   O9        1.0  0.92200  0.52100  0.75000  1.0000
  O   O10       1.0  0.23000  0.23100  0.97300  1.0000
  O   O11       1.0  0.26100  0.71800  0.98600  1.0000
  V   V1        1.0  0.50400  0.99900  0.00356  1.0000
  V   V2        1.0  0.50400  0.99900  0.49600  1.0000
  V   V3        1.0  0.99600  0.49800  0.50500  1.0000
  V   V4        1.0  0.99600  0.49800  0.99500  1.0000
