data_image0
_chemical_formula_structural       Ge4Na4O16Tb4
_chemical_formula_sum              "Ge4 Na4 O16 Tb4"
_cell_length_a       5.26907
_cell_length_b       6.44865
_cell_length_c       11.4459
_cell_angle_alpha    90
_cell_angle_beta     90
_cell_angle_gamma    90

_space_group_name_H-M_alt    "P 1"
_space_group_IT_number       1

loop_
  _space_group_symop_operation_xyz
  'x, y, z'

loop_
  _atom_site_type_symbol
  _atom_site_label
  _atom_site_symmetry_multiplicity
  _atom_site_fract_x
  _atom_site_fract_y
  _atom_site_fract_z
  _atom_site_occupancy
  Ge  Ge1       1.0  0.05680  0.25000  0.09580  1.0000
  Ge  Ge2       1.0  0.55700  0.75000  0.40400  1.0000
  Ge  Ge3       1.0  0.44300  0.25000  0.59600  1.0000
  Ge  Ge4       1.0  0.94300  0.75000  0.90400  1.0000
  Na  Na1       1.0  0.50000  0.00000  0.00000  1.0000
  Na  Na2       1.0  0.50000  0.50000  0.00000  1.0000
  Na  Na3       1.0  0.00000  0.00000  0.50000  1.0000
  Na  Na4       1.0  0.00000  0.50000  0.50000  1.0000
  O   O1        1.0  0.81800  0.75000  0.04630  1.0000
  O   O2        1.0  0.72800  0.25000  0.10800  1.0000
  O   O3        1.0  0.21100  0.04090  0.17300  1.0000
  O   O4        1.0  0.21100  0.45900  0.17300  1.0000
  O   O5        1.0  0.71100  0.54100  0.32700  1.0000
  O   O6        1.0  0.71100  0.95900  0.32700  1.0000
  O   O7        1.0  0.22800  0.75000  0.39200  1.0000
  O   O8        1.0  0.31800  0.25000  0.45400  1.0000
  O   O9        1.0  0.68200  0.75000  0.54600  1.0000
  O   O10       1.0  0.77200  0.25000  0.60800  1.0000
  O   O11       1.0  0.28900  0.04090  0.67300  1.0000
  O   O12       1.0  0.28900  0.45900  0.67300  1.0000
  O   O13       1.0  0.78900  0.54100  0.82700  1.0000
  O   O14       1.0  0.78900  0.95900  0.82700  1.0000
  O   O15       1.0  0.27200  0.75000  0.89200  1.0000
  O   O16       1.0  0.18200  0.25000  0.95400  1.0000
  Tb  Tb1       1.0  0.99700  0.75000  0.22200  1.0000
  Tb  Tb2       1.0  0.49700  0.25000  0.27800  1.0000
  Tb  Tb3       1.0  0.50300  0.75000  0.72200  1.0000
  Tb  Tb4       1.0  0.00349  0.25000  0.77800  1.0000
