data_image0
_chemical_formula_structural       Mg4Mn4O16Si4
_chemical_formula_sum              "Mg4 Mn4 O16 Si4"
_cell_length_a       4.79574
_cell_length_b       10.4643
_cell_length_c       6.1219
_cell_angle_alpha    90
_cell_angle_beta     90
_cell_angle_gamma    90

_space_group_name_H-M_alt    "P 1"
_space_group_IT_number       1

loop_
  _space_group_symop_operation_xyz
  'x, y, z'

loop_
  _atom_site_type_symbol
  _atom_site_label
  _atom_site_symmetry_multiplicity
  _atom_site_fract_x
  _atom_site_fract_y
  _atom_site_fract_z
  _atom_site_occupancy
  Mg  Mg1       1.0  0.00000  0.00000  0.00000  1.0000
  Mg  Mg2       1.0  0.50000  0.50000  0.00000  1.0000
  Mg  Mg3       1.0  0.00000  0.00000  0.50000  1.0000
  Mg  Mg4       1.0  0.50000  0.50000  0.50000  1.0000
  Mn  Mn1       1.0  0.98500  0.27800  0.25000  1.0000
  Mn  Mn2       1.0  0.51500  0.77800  0.25000  1.0000
  Mn  Mn3       1.0  0.48500  0.22200  0.75000  1.0000
  Mn  Mn4       1.0  0.01490  0.72200  0.75000  1.0000
  O   O1        1.0  0.27500  0.15700  0.03530  1.0000
  O   O2        1.0  0.22500  0.65700  0.03530  1.0000
  O   O3        1.0  0.76000  0.08430  0.25000  1.0000
  O   O4        1.0  0.23600  0.44700  0.25000  1.0000
  O   O5        1.0  0.74000  0.58400  0.25000  1.0000
  O   O6        1.0  0.26400  0.94700  0.25000  1.0000
  O   O7        1.0  0.27500  0.15700  0.46500  1.0000
  O   O8        1.0  0.22500  0.65700  0.46500  1.0000
  O   O9        1.0  0.77500  0.34300  0.53500  1.0000
  O   O10       1.0  0.72500  0.84300  0.53500  1.0000
  O   O11       1.0  0.73600  0.05320  0.75000  1.0000
  O   O12       1.0  0.26000  0.41600  0.75000  1.0000
  O   O13       1.0  0.76400  0.55300  0.75000  1.0000
  O   O14       1.0  0.24000  0.91600  0.75000  1.0000
  O   O15       1.0  0.77500  0.34300  0.96500  1.0000
  O   O16       1.0  0.72500  0.84300  0.96500  1.0000
  Si  Si1       1.0  0.42100  0.08930  0.25000  1.0000
  Si  Si2       1.0  0.07900  0.58900  0.25000  1.0000
  Si  Si3       1.0  0.92100  0.41100  0.75000  1.0000
  Si  Si4       1.0  0.57900  0.91100  0.75000  1.0000
