data_image0
_chemical_formula_structural       Eu4O11Pa4
_chemical_formula_sum              "Eu4 O11 Pa4"
_cell_length_a       5.98105
_cell_length_b       6.16698
_cell_length_c       8.63029
_cell_angle_alpha    90
_cell_angle_beta     90
_cell_angle_gamma    89.9129

_space_group_name_H-M_alt    "P 1"
_space_group_IT_number       1

loop_
  _space_group_symop_operation_xyz
  'x, y, z'

loop_
  _atom_site_type_symbol
  _atom_site_label
  _atom_site_symmetry_multiplicity
  _atom_site_fract_x
  _atom_site_fract_y
  _atom_site_fract_z
  _atom_site_occupancy
  Eu  Eu1       1.0  0.99200  0.02400  0.25000  1.0000
  Eu  Eu2       1.0  0.54200  0.55700  0.25000  1.0000
  Eu  Eu3       1.0  0.48600  0.45400  0.75000  1.0000
  Eu  Eu4       1.0  0.01500  0.94800  0.75000  1.0000
  O   O1        1.0  0.69000  0.31100  0.06520  1.0000
  O   O2        1.0  0.80500  0.80200  0.06810  1.0000
  O   O3        1.0  0.37700  0.93400  0.25000  1.0000
  O   O4        1.0  0.80500  0.80200  0.43200  1.0000
  O   O5        1.0  0.69000  0.31100  0.43500  1.0000
  O   O6        1.0  0.18700  0.19300  0.57000  1.0000
  O   O7        1.0  0.30100  0.70000  0.57500  1.0000
  O   O8        1.0  0.62900  0.06670  0.75000  1.0000
  O   O9        1.0  0.86400  0.56800  0.75000  1.0000
  O   O10       1.0  0.30100  0.70000  0.92500  1.0000
  O   O11       1.0  0.18700  0.19300  0.93000  1.0000
  Pa  Pa1       1.0  0.49900  0.00241  0.50100  1.0000
  Pa  Pa2       1.0  0.00000  0.49700  0.50400  1.0000
  Pa  Pa3       1.0  0.00000  0.49700  0.99600  1.0000
  Pa  Pa4       1.0  0.49900  0.00241  0.99900  1.0000
