data_image0
_chemical_formula_structural       Eu4Nb4O11
_chemical_formula_sum              "Eu4 Nb4 O11"
_cell_length_a       5.60329
_cell_length_b       5.66996
_cell_length_c       7.83487
_cell_angle_alpha    90
_cell_angle_beta     90
_cell_angle_gamma    90.1596

_space_group_name_H-M_alt    "P 1"
_space_group_IT_number       1

loop_
  _space_group_symop_operation_xyz
  'x, y, z'

loop_
  _atom_site_type_symbol
  _atom_site_label
  _atom_site_symmetry_multiplicity
  _atom_site_fract_x
  _atom_site_fract_y
  _atom_site_fract_z
  _atom_site_occupancy
  Eu  Eu1       1.0  0.99900  0.03140  0.25000  1.0000
  Eu  Eu2       1.0  0.50800  0.54300  0.25000  1.0000
  Eu  Eu3       1.0  0.49600  0.46500  0.75000  1.0000
  Eu  Eu4       1.0  0.00983  0.95800  0.75000  1.0000
  Nb  Nb1       1.0  0.50100  0.00282  0.00066  1.0000
  Nb  Nb2       1.0  0.99800  0.50200  0.00908  1.0000
  Nb  Nb3       1.0  0.99800  0.50200  0.49100  1.0000
  Nb  Nb4       1.0  0.50100  0.00282  0.49900  1.0000
  O   O1        1.0  0.79000  0.79100  0.03430  1.0000
  O   O2        1.0  0.70900  0.29100  0.03960  1.0000
  O   O3        1.0  0.41800  0.97400  0.25000  1.0000
  O   O4        1.0  0.70900  0.29100  0.46000  1.0000
  O   O5        1.0  0.79000  0.79100  0.46600  1.0000
  O   O6        1.0  0.20700  0.21200  0.52600  1.0000
  O   O7        1.0  0.29200  0.71000  0.53200  1.0000
  O   O8        1.0  0.56400  0.01880  0.75000  1.0000
  O   O9        1.0  0.93800  0.51100  0.75000  1.0000
  O   O10       1.0  0.29200  0.71000  0.96800  1.0000
  O   O11       1.0  0.20700  0.21200  0.97400  1.0000
