data_image0
_chemical_formula_structural       Ba4Cu7O15Y2
_chemical_formula_sum              "Ba4 Cu7 O15 Y2"
_cell_length_a       3.85468
_cell_length_b       3.8516
_cell_length_c       25.2347
_cell_angle_alpha    85.6232
_cell_angle_beta     90
_cell_angle_gamma    90

_space_group_name_H-M_alt    "P 1"
_space_group_IT_number       1

loop_
  _space_group_symop_operation_xyz
  'x, y, z'

loop_
  _atom_site_type_symbol
  _atom_site_label
  _atom_site_symmetry_multiplicity
  _atom_site_fract_x
  _atom_site_fract_y
  _atom_site_fract_z
  _atom_site_occupancy
  Ba  Ba1       1.0  0.50000  0.45800  0.08410  1.0000
  Ba  Ba2       1.0  0.50000  0.31200  0.37700  1.0000
  Ba  Ba3       1.0  0.50000  0.68800  0.62300  1.0000
  Ba  Ba4       1.0  0.50000  0.54200  0.91600  1.0000
  Cu  Cu1       1.0  0.00000  0.00000  0.00000  1.0000
  Cu  Cu2       1.0  0.00000  0.91800  0.16300  1.0000
  Cu  Cu3       1.0  0.00000  0.85200  0.29700  1.0000
  Cu  Cu4       1.0  0.00000  0.77000  0.46000  1.0000
  Cu  Cu5       1.0  0.00000  0.23000  0.54000  1.0000
  Cu  Cu6       1.0  0.00000  0.14800  0.70300  1.0000
  Cu  Cu7       1.0  0.00000  0.08170  0.83700  1.0000
  O   O1        1.0  0.50000  0.00000  0.00000  1.0000
  O   O2        1.0  0.00000  0.96300  0.07370  1.0000
  O   O3        1.0  0.00000  0.41300  0.17300  1.0000
  O   O4        1.0  0.50000  0.91300  0.17500  1.0000
  O   O5        1.0  0.00000  0.35700  0.28700  1.0000
  O   O6        1.0  0.50000  0.85600  0.28800  1.0000
  O   O7        1.0  0.00000  0.80600  0.38800  1.0000
  O   O8        1.0  0.00000  0.26800  0.46500  1.0000
  O   O9        1.0  0.00000  0.73200  0.53500  1.0000
  O   O10       1.0  0.00000  0.19400  0.61200  1.0000
  O   O11       1.0  0.50000  0.14400  0.71200  1.0000
  O   O12       1.0  0.00000  0.64300  0.71300  1.0000
  O   O13       1.0  0.50000  0.08730  0.82500  1.0000
  O   O14       1.0  0.00000  0.58700  0.82700  1.0000
  O   O15       1.0  0.00000  0.03680  0.92600  1.0000
  Y   Y1        1.0  0.50000  0.38500  0.23000  1.0000
  Y   Y2        1.0  0.50000  0.61500  0.77000  1.0000
