data_image0
_chemical_formula_structural       As4Li4Ni4O16
_chemical_formula_sum              "As4 Li4 Ni4 O16"
_cell_length_a       4.86207
_cell_length_b       5.87088
_cell_length_c       10.2438
_cell_angle_alpha    90
_cell_angle_beta     90
_cell_angle_gamma    90

_space_group_name_H-M_alt    "P 1"
_space_group_IT_number       1

loop_
  _space_group_symop_operation_xyz
  'x, y, z'

loop_
  _atom_site_type_symbol
  _atom_site_label
  _atom_site_symmetry_multiplicity
  _atom_site_fract_x
  _atom_site_fract_y
  _atom_site_fract_z
  _atom_site_occupancy
  As  As1       1.0  0.43600  0.25000  0.09360  1.0000
  As  As2       1.0  0.93600  0.75000  0.40600  1.0000
  As  As3       1.0  0.06410  0.25000  0.59400  1.0000
  As  As4       1.0  0.56400  0.75000  0.90600  1.0000
  Li  Li1       1.0  0.00000  0.00000  0.00000  1.0000
  Li  Li2       1.0  0.00000  0.50000  0.00000  1.0000
  Li  Li3       1.0  0.50000  0.00000  0.50000  1.0000
  Li  Li4       1.0  0.50000  0.50000  0.50000  1.0000
  Ni  Ni1       1.0  0.49500  0.75000  0.22900  1.0000
  Ni  Ni2       1.0  0.99500  0.25000  0.27100  1.0000
  Ni  Ni3       1.0  0.00531  0.75000  0.72900  1.0000
  Ni  Ni4       1.0  0.50500  0.25000  0.77100  1.0000
  O   O1        1.0  0.70900  0.75000  0.05940  1.0000
  O   O2        1.0  0.78500  0.25000  0.09500  1.0000
  O   O3        1.0  0.27100  0.02470  0.17100  1.0000
  O   O4        1.0  0.27100  0.47500  0.17100  1.0000
  O   O5        1.0  0.77100  0.52500  0.32900  1.0000
  O   O6        1.0  0.77100  0.97500  0.32900  1.0000
  O   O7        1.0  0.28500  0.75000  0.40500  1.0000
  O   O8        1.0  0.20900  0.25000  0.44100  1.0000
  O   O9        1.0  0.79100  0.75000  0.55900  1.0000
  O   O10       1.0  0.71500  0.25000  0.59500  1.0000
  O   O11       1.0  0.22900  0.02470  0.67100  1.0000
  O   O12       1.0  0.22900  0.47500  0.67100  1.0000
  O   O13       1.0  0.72900  0.52500  0.82900  1.0000
  O   O14       1.0  0.72900  0.97500  0.82900  1.0000
  O   O15       1.0  0.21500  0.75000  0.90500  1.0000
  O   O16       1.0  0.29100  0.25000  0.94100  1.0000
