data_image0
_chemical_formula_structural       Ga4Mg4S16Sc4
_chemical_formula_sum              "Ga4 Mg4 S16 Sc4"
_cell_length_a       12.8968
_cell_length_b       7.45405
_cell_length_c       6.11088
_cell_angle_alpha    90
_cell_angle_beta     90
_cell_angle_gamma    90

_space_group_name_H-M_alt    "P 1"
_space_group_IT_number       1

loop_
  _space_group_symop_operation_xyz
  'x, y, z'

loop_
  _atom_site_type_symbol
  _atom_site_label
  _atom_site_symmetry_multiplicity
  _atom_site_fract_x
  _atom_site_fract_y
  _atom_site_fract_z
  _atom_site_occupancy
  Ga  Ga1       1.0  0.59000  0.25000  0.09020  1.0000
  Ga  Ga2       1.0  0.09040  0.25000  0.41000  1.0000
  Ga  Ga3       1.0  0.91000  0.75000  0.59000  1.0000
  Ga  Ga4       1.0  0.41000  0.75000  0.91000  1.0000
  Mg  Mg1       1.0  0.73400  0.75000  0.00364  1.0000
  Mg  Mg2       1.0  0.23400  0.75000  0.49600  1.0000
  Mg  Mg3       1.0  0.76600  0.25000  0.50400  1.0000
  Mg  Mg4       1.0  0.26600  0.25000  0.99600  1.0000
  S   S1        1.0  0.90900  0.75000  0.22000  1.0000
  S   S2        1.0  0.16600  0.00844  0.24300  1.0000
  S   S3        1.0  0.16600  0.49200  0.24300  1.0000
  S   S4        1.0  0.92600  0.25000  0.25000  1.0000
  S   S5        1.0  0.42600  0.25000  0.25000  1.0000
  S   S6        1.0  0.66600  0.00844  0.25700  1.0000
  S   S7        1.0  0.66600  0.49200  0.25700  1.0000
  S   S8        1.0  0.40900  0.75000  0.28000  1.0000
  S   S9        1.0  0.59100  0.25000  0.72000  1.0000
  S   S10       1.0  0.33400  0.50800  0.74300  1.0000
  S   S11       1.0  0.33400  0.99200  0.74300  1.0000
  S   S12       1.0  0.57400  0.75000  0.75000  1.0000
  S   S13       1.0  0.07370  0.75000  0.75000  1.0000
  S   S14       1.0  0.83400  0.50800  0.75700  1.0000
  S   S15       1.0  0.83400  0.99200  0.75700  1.0000
  S   S16       1.0  0.09140  0.25000  0.78000  1.0000
  Sc  Sc1       1.0  0.00000  0.00000  0.00000  1.0000
  Sc  Sc2       1.0  0.00000  0.50000  0.00000  1.0000
  Sc  Sc3       1.0  0.50000  0.00000  0.50000  1.0000
  Sc  Sc4       1.0  0.50000  0.50000  0.50000  1.0000
