data_image0
_chemical_formula_structural       Au2K2N24
_chemical_formula_sum              "Au2 K2 N24"
_cell_length_a       7.27184
_cell_length_b       7.27184
_cell_length_c       7.40447
_cell_angle_alpha    91.1273
_cell_angle_beta     88.8727
_cell_angle_gamma    89.392

_space_group_name_H-M_alt    "P 1"
_space_group_IT_number       1

loop_
  _space_group_symop_operation_xyz
  'x, y, z'

loop_
  _atom_site_type_symbol
  _atom_site_label
  _atom_site_symmetry_multiplicity
  _atom_site_fract_x
  _atom_site_fract_y
  _atom_site_fract_z
  _atom_site_occupancy
  Au  Au1       1.0  0.48900  0.48900  0.25000  1.0000
  Au  Au2       1.0  0.51100  0.51100  0.75000  1.0000
  K   K1        1.0  0.07890  0.07890  0.25000  1.0000
  K   K2        1.0  0.92100  0.92100  0.75000  1.0000
  N   N1        1.0  0.08850  0.72300  0.03560  1.0000
  N   N2        1.0  0.73700  0.92500  0.07780  1.0000
  N   N3        1.0  0.15400  0.59800  0.10500  1.0000
  N   N4        1.0  0.61400  0.83700  0.12800  1.0000
  N   N5        1.0  0.21600  0.46400  0.17900  1.0000
  N   N6        1.0  0.47600  0.76100  0.18100  1.0000
  N   N7        1.0  0.76100  0.47600  0.31900  1.0000
  N   N8        1.0  0.46400  0.21600  0.32100  1.0000
  N   N9        1.0  0.83700  0.61400  0.37200  1.0000
  N   N10       1.0  0.59800  0.15400  0.39500  1.0000
  N   N11       1.0  0.92500  0.73700  0.42200  1.0000
  N   N12       1.0  0.72300  0.08850  0.46400  1.0000
  N   N13       1.0  0.27700  0.91100  0.53600  1.0000
  N   N14       1.0  0.07540  0.26300  0.57800  1.0000
  N   N15       1.0  0.40200  0.84600  0.60500  1.0000
  N   N16       1.0  0.16300  0.38600  0.62800  1.0000
  N   N17       1.0  0.53600  0.78400  0.67900  1.0000
  N   N18       1.0  0.23900  0.52400  0.68100  1.0000
  N   N19       1.0  0.52400  0.23900  0.81900  1.0000
  N   N20       1.0  0.78400  0.53600  0.82100  1.0000
  N   N21       1.0  0.38600  0.16300  0.87200  1.0000
  N   N22       1.0  0.84600  0.40200  0.89500  1.0000
  N   N23       1.0  0.26300  0.07540  0.92200  1.0000
  N   N24       1.0  0.91100  0.27700  0.96400  1.0000
