data_image0
_chemical_formula_structural       Co4Mn4O16Si4
_chemical_formula_sum              "Co4 Mn4 O16 Si4"
_cell_length_a       10.5362
_cell_length_b       6.11893
_cell_length_c       4.81164
_cell_angle_alpha    90
_cell_angle_beta     90
_cell_angle_gamma    90

_space_group_name_H-M_alt    "P 1"
_space_group_IT_number       1

loop_
  _space_group_symop_operation_xyz
  'x, y, z'

loop_
  _atom_site_type_symbol
  _atom_site_label
  _atom_site_symmetry_multiplicity
  _atom_site_fract_x
  _atom_site_fract_y
  _atom_site_fract_z
  _atom_site_occupancy
  Co  Co1       1.0  0.00000  0.00000  0.00000  1.0000
  Co  Co2       1.0  0.00000  0.50000  0.00000  1.0000
  Co  Co3       1.0  0.50000  0.00000  0.50000  1.0000
  Co  Co4       1.0  0.50000  0.50000  0.50000  1.0000
  Mn  Mn1       1.0  0.27600  0.75000  0.01340  1.0000
  Mn  Mn2       1.0  0.77600  0.75000  0.48700  1.0000
  Mn  Mn3       1.0  0.22400  0.25000  0.51300  1.0000
  Mn  Mn4       1.0  0.72400  0.25000  0.98700  1.0000
  O   O1        1.0  0.34100  0.03580  0.22100  1.0000
  O   O2        1.0  0.34100  0.46400  0.22100  1.0000
  O   O3        1.0  0.55300  0.25000  0.22700  1.0000
  O   O4        1.0  0.08660  0.75000  0.23900  1.0000
  O   O5        1.0  0.58700  0.75000  0.26100  1.0000
  O   O6        1.0  0.05300  0.25000  0.27300  1.0000
  O   O7        1.0  0.84100  0.03580  0.27900  1.0000
  O   O8        1.0  0.84100  0.46400  0.27900  1.0000
  O   O9        1.0  0.15900  0.53600  0.72100  1.0000
  O   O10       1.0  0.15900  0.96400  0.72100  1.0000
  O   O11       1.0  0.94700  0.75000  0.72700  1.0000
  O   O12       1.0  0.41300  0.25000  0.73900  1.0000
  O   O13       1.0  0.91300  0.25000  0.76100  1.0000
  O   O14       1.0  0.44700  0.75000  0.77300  1.0000
  O   O15       1.0  0.65900  0.53600  0.77900  1.0000
  O   O16       1.0  0.65900  0.96400  0.77900  1.0000
  Si  Si1       1.0  0.41000  0.25000  0.07850  1.0000
  Si  Si2       1.0  0.91000  0.25000  0.42100  1.0000
  Si  Si3       1.0  0.08980  0.75000  0.57900  1.0000
  Si  Si4       1.0  0.59000  0.75000  0.92100  1.0000
