data_image0
_chemical_formula_structural       Ba4O11U4
_chemical_formula_sum              "Ba4 O11 U4"
_cell_length_a       6.26981
_cell_length_b       6.31514
_cell_length_c       8.90264
_cell_angle_alpha    90
_cell_angle_beta     90
_cell_angle_gamma    90.0151

_space_group_name_H-M_alt    "P 1"
_space_group_IT_number       1

loop_
  _space_group_symop_operation_xyz
  'x, y, z'

loop_
  _atom_site_type_symbol
  _atom_site_label
  _atom_site_symmetry_multiplicity
  _atom_site_fract_x
  _atom_site_fract_y
  _atom_site_fract_z
  _atom_site_occupancy
  Ba  Ba1       1.0  0.99800  0.01630  0.25000  1.0000
  Ba  Ba2       1.0  0.51700  0.52800  0.25000  1.0000
  Ba  Ba3       1.0  0.49400  0.47300  0.75000  1.0000
  Ba  Ba4       1.0  0.00330  0.97200  0.75000  1.0000
  O   O1        1.0  0.78400  0.78800  0.03580  1.0000
  O   O2        1.0  0.71600  0.29100  0.03810  1.0000
  O   O3        1.0  0.42600  0.98100  0.25000  1.0000
  O   O4        1.0  0.71600  0.29100  0.46200  1.0000
  O   O5        1.0  0.78400  0.78800  0.46400  1.0000
  O   O6        1.0  0.21300  0.21300  0.54000  1.0000
  O   O7        1.0  0.28100  0.71200  0.54300  1.0000
  O   O8        1.0  0.57800  0.02170  0.75000  1.0000
  O   O9        1.0  0.91800  0.52200  0.75000  1.0000
  O   O10       1.0  0.28100  0.71200  0.95700  1.0000
  O   O11       1.0  0.21300  0.21300  0.96000  1.0000
  U   U1        1.0  0.49900  0.00029  0.50000  1.0000
  U   U2        1.0  0.99900  0.50000  0.50100  1.0000
  U   U3        1.0  0.99900  0.50000  0.99900  1.0000
  U   U4        1.0  0.49900  0.00029  0.00000  1.0000
