data_image0
_chemical_formula_structural       Er4Ge4Na4O16
_chemical_formula_sum              "Er4 Ge4 Na4 O16"
_cell_length_a       5.24688
_cell_length_b       6.36524
_cell_length_c       11.3315
_cell_angle_alpha    90
_cell_angle_beta     90
_cell_angle_gamma    90

_space_group_name_H-M_alt    "P 1"
_space_group_IT_number       1

loop_
  _space_group_symop_operation_xyz
  'x, y, z'

loop_
  _atom_site_type_symbol
  _atom_site_label
  _atom_site_symmetry_multiplicity
  _atom_site_fract_x
  _atom_site_fract_y
  _atom_site_fract_z
  _atom_site_occupancy
  Er  Er1       1.0  0.00489  0.75000  0.22300  1.0000
  Er  Er2       1.0  0.50500  0.25000  0.27700  1.0000
  Er  Er3       1.0  0.49500  0.75000  0.72300  1.0000
  Er  Er4       1.0  0.99500  0.25000  0.77700  1.0000
  Ge  Ge1       1.0  0.94700  0.25000  0.09720  1.0000
  Ge  Ge2       1.0  0.44700  0.75000  0.40300  1.0000
  Ge  Ge3       1.0  0.55300  0.25000  0.59700  1.0000
  Ge  Ge4       1.0  0.05340  0.75000  0.90300  1.0000
  Na  Na1       1.0  0.50000  0.00000  0.00000  1.0000
  Na  Na2       1.0  0.50000  0.50000  0.00000  1.0000
  Na  Na3       1.0  0.00000  0.00000  0.50000  1.0000
  Na  Na4       1.0  0.00000  0.50000  0.50000  1.0000
  O   O1        1.0  0.17600  0.75000  0.04690  1.0000
  O   O2        1.0  0.27600  0.25000  0.11000  1.0000
  O   O3        1.0  0.78900  0.03940  0.17500  1.0000
  O   O4        1.0  0.78900  0.46100  0.17500  1.0000
  O   O5        1.0  0.28900  0.53900  0.32500  1.0000
  O   O6        1.0  0.28900  0.96100  0.32500  1.0000
  O   O7        1.0  0.77600  0.75000  0.39000  1.0000
  O   O8        1.0  0.67600  0.25000  0.45300  1.0000
  O   O9        1.0  0.32400  0.75000  0.54700  1.0000
  O   O10       1.0  0.22400  0.25000  0.61000  1.0000
  O   O11       1.0  0.71100  0.03940  0.67500  1.0000
  O   O12       1.0  0.71100  0.46100  0.67500  1.0000
  O   O13       1.0  0.21100  0.53900  0.82500  1.0000
  O   O14       1.0  0.21100  0.96100  0.82500  1.0000
  O   O15       1.0  0.72400  0.75000  0.89000  1.0000
  O   O16       1.0  0.82400  0.25000  0.95300  1.0000
