data_image0
_chemical_formula_structural       B4F6Gd6O12
_chemical_formula_sum              "B4 F6 Gd6 O12"
_cell_length_a       6.14771
_cell_length_b       6.96274
_cell_length_c       8.24149
_cell_angle_alpha    96.6365
_cell_angle_beta     90
_cell_angle_gamma    116.198

_space_group_name_H-M_alt    "P 1"
_space_group_IT_number       1

loop_
  _space_group_symop_operation_xyz
  'x, y, z'

loop_
  _atom_site_type_symbol
  _atom_site_label
  _atom_site_symmetry_multiplicity
  _atom_site_fract_x
  _atom_site_fract_y
  _atom_site_fract_z
  _atom_site_occupancy
  B   B1        1.0  0.08930  0.36000  0.02140  1.0000
  B   B2        1.0  0.72900  0.64000  0.47900  1.0000
  B   B3        1.0  0.27100  0.36000  0.52100  1.0000
  B   B4        1.0  0.91100  0.64000  0.97900  1.0000
  F   F1        1.0  0.22900  0.10200  0.03830  1.0000
  F   F2        1.0  0.51600  0.00000  0.25000  1.0000
  F   F3        1.0  0.12700  0.89800  0.46200  1.0000
  F   F4        1.0  0.87300  0.10200  0.53800  1.0000
  F   F5        1.0  0.48400  0.00000  0.75000  1.0000
  F   F6        1.0  0.77100  0.89800  0.96200  1.0000
  Gd  Gd1       1.0  0.57000  0.35500  0.17800  1.0000
  Gd  Gd2       1.0  0.89600  0.00000  0.25000  1.0000
  Gd  Gd3       1.0  0.21500  0.64500  0.32200  1.0000
  Gd  Gd4       1.0  0.78500  0.35500  0.67800  1.0000
  Gd  Gd5       1.0  0.10400  0.00000  0.75000  1.0000
  Gd  Gd6       1.0  0.43000  0.64500  0.82200  1.0000
  O   O1        1.0  0.31900  0.52400  0.07560  1.0000
  O   O2        1.0  0.91800  0.30000  0.13700  1.0000
  O   O3        1.0  0.95400  0.70400  0.14500  1.0000
  O   O4        1.0  0.25000  0.29600  0.35500  1.0000
  O   O5        1.0  0.61800  0.70000  0.36300  1.0000
  O   O6        1.0  0.79500  0.47600  0.42400  1.0000
  O   O7        1.0  0.20500  0.52400  0.57600  1.0000
  O   O8        1.0  0.38200  0.30000  0.63700  1.0000
  O   O9        1.0  0.75000  0.70400  0.64500  1.0000
  O   O10       1.0  0.04600  0.29600  0.85500  1.0000
  O   O11       1.0  0.08230  0.70000  0.86300  1.0000
  O   O12       1.0  0.68100  0.47600  0.92400  1.0000
