data_image0
_chemical_formula_structural       Al4Ho4O11
_chemical_formula_sum              "Al4 Ho4 O11"
_cell_length_a       5.14795
_cell_length_b       5.31258
_cell_length_c       7.35781
_cell_angle_alpha    90.0843
_cell_angle_beta     89.9238
_cell_angle_gamma    90.3051

_space_group_name_H-M_alt    "P 1"
_space_group_IT_number       1

loop_
  _space_group_symop_operation_xyz
  'x, y, z'

loop_
  _atom_site_type_symbol
  _atom_site_label
  _atom_site_symmetry_multiplicity
  _atom_site_fract_x
  _atom_site_fract_y
  _atom_site_fract_z
  _atom_site_occupancy
  Al  Al1       1.0  0.50200  0.00162  0.00030  1.0000
  Al  Al2       1.0  0.99600  0.49600  0.00069  1.0000
  Al  Al3       1.0  0.50000  0.00000  0.49900  1.0000
  Al  Al4       1.0  0.00000  0.50000  0.50000  1.0000
  Ho  Ho1       1.0  0.51600  0.55400  0.24600  1.0000
  Ho  Ho2       1.0  0.98800  0.05440  0.25100  1.0000
  Ho  Ho3       1.0  0.48500  0.44500  0.74900  1.0000
  Ho  Ho4       1.0  0.01300  0.94400  0.75100  1.0000
  O   O1        1.0  0.79500  0.79500  0.04590  1.0000
  O   O2        1.0  0.41600  0.97900  0.24900  1.0000
  O   O3        1.0  0.08850  0.47800  0.25100  1.0000
  O   O4        1.0  0.70400  0.29500  0.45100  1.0000
  O   O5        1.0  0.79400  0.79400  0.45400  1.0000
  O   O6        1.0  0.20400  0.20500  0.54700  1.0000
  O   O7        1.0  0.29400  0.70700  0.54700  1.0000
  O   O8        1.0  0.91100  0.52100  0.75000  1.0000
  O   O9        1.0  0.58900  0.02540  0.75100  1.0000
  O   O10       1.0  0.29600  0.70400  0.95500  1.0000
  O   O11       1.0  0.20600  0.20500  0.95600  1.0000
