data_image0
_chemical_formula_structural       Mg4Ni4O16Si4
_chemical_formula_sum              "Mg4 Ni4 O16 Si4"
_cell_length_a       4.72609
_cell_length_b       10.1536
_cell_length_c       5.91251
_cell_angle_alpha    90
_cell_angle_beta     90
_cell_angle_gamma    90

_space_group_name_H-M_alt    "P 1"
_space_group_IT_number       1

loop_
  _space_group_symop_operation_xyz
  'x, y, z'

loop_
  _atom_site_type_symbol
  _atom_site_label
  _atom_site_symmetry_multiplicity
  _atom_site_fract_x
  _atom_site_fract_y
  _atom_site_fract_z
  _atom_site_occupancy
  Mg  Mg1       1.0  0.99000  0.27500  0.25000  1.0000
  Mg  Mg2       1.0  0.51000  0.77500  0.25000  1.0000
  Mg  Mg3       1.0  0.49000  0.22500  0.75000  1.0000
  Mg  Mg4       1.0  0.00994  0.72500  0.75000  1.0000
  Ni  Ni1       1.0  0.00000  0.00000  0.00000  1.0000
  Ni  Ni2       1.0  0.50000  0.50000  0.00000  1.0000
  Ni  Ni3       1.0  0.00000  0.00000  0.50000  1.0000
  Ni  Ni4       1.0  0.50000  0.50000  0.50000  1.0000
  O   O1        1.0  0.27500  0.16400  0.02960  1.0000
  O   O2        1.0  0.22500  0.66400  0.02960  1.0000
  O   O3        1.0  0.77000  0.09310  0.25000  1.0000
  O   O4        1.0  0.22100  0.44400  0.25000  1.0000
  O   O5        1.0  0.73000  0.59300  0.25000  1.0000
  O   O6        1.0  0.27900  0.94400  0.25000  1.0000
  O   O7        1.0  0.27500  0.16400  0.47000  1.0000
  O   O8        1.0  0.22500  0.66400  0.47000  1.0000
  O   O9        1.0  0.77500  0.33600  0.53000  1.0000
  O   O10       1.0  0.72500  0.83600  0.53000  1.0000
  O   O11       1.0  0.72100  0.05640  0.75000  1.0000
  O   O12       1.0  0.27000  0.40700  0.75000  1.0000
  O   O13       1.0  0.77900  0.55600  0.75000  1.0000
  O   O14       1.0  0.23000  0.90700  0.75000  1.0000
  O   O15       1.0  0.77500  0.33600  0.97000  1.0000
  O   O16       1.0  0.72500  0.83600  0.97000  1.0000
  Si  Si1       1.0  0.42500  0.09300  0.25000  1.0000
  Si  Si2       1.0  0.07460  0.59300  0.25000  1.0000
  Si  Si3       1.0  0.92500  0.40700  0.75000  1.0000
  Si  Si4       1.0  0.57500  0.90700  0.75000  1.0000
