data_image0
_chemical_formula_structural       Ba4Cu4Nb2O16Pr2
_chemical_formula_sum              "Ba4 Cu4 Nb2 O16 Pr2"
_cell_length_a       5.59006
_cell_length_b       5.59006
_cell_length_c       12.685
_cell_angle_alpha    102.729
_cell_angle_beta     102.729
_cell_angle_gamma    90

_space_group_name_H-M_alt    "P 1"
_space_group_IT_number       1

loop_
  _space_group_symop_operation_xyz
  'x, y, z'

loop_
  _atom_site_type_symbol
  _atom_site_label
  _atom_site_symmetry_multiplicity
  _atom_site_fract_x
  _atom_site_fract_y
  _atom_site_fract_z
  _atom_site_occupancy
  Ba  Ba1       1.0  0.59900  0.09850  0.19700  1.0000
  Ba  Ba2       1.0  0.09850  0.59900  0.19700  1.0000
  Ba  Ba3       1.0  0.90100  0.40100  0.80300  1.0000
  Ba  Ba4       1.0  0.40100  0.90100  0.80300  1.0000
  Cu  Cu1       1.0  0.17900  0.17900  0.35700  1.0000
  Cu  Cu2       1.0  0.67900  0.67900  0.35700  1.0000
  Cu  Cu3       1.0  0.32100  0.32100  0.64300  1.0000
  Cu  Cu4       1.0  0.82100  0.82100  0.64300  1.0000
  Nb  Nb1       1.0  0.00000  0.00000  0.00000  1.0000
  Nb  Nb2       1.0  0.50000  0.50000  0.00000  1.0000
  O   O1        1.0  0.69900  0.19900  0.00000  1.0000
  O   O2        1.0  0.19900  0.30100  0.00000  1.0000
  O   O3        1.0  0.80100  0.69900  0.00000  1.0000
  O   O4        1.0  0.30100  0.80100  0.00000  1.0000
  O   O5        1.0  0.08230  0.08230  0.16500  1.0000
  O   O6        1.0  0.58200  0.58200  0.16500  1.0000
  O   O7        1.0  0.43800  0.43600  0.37300  1.0000
  O   O8        1.0  0.93800  0.43800  0.37300  1.0000
  O   O9        1.0  0.43600  0.93600  0.37300  1.0000
  O   O10       1.0  0.93600  0.93800  0.37300  1.0000
  O   O11       1.0  0.06440  0.06250  0.62700  1.0000
  O   O12       1.0  0.56400  0.06440  0.62700  1.0000
  O   O13       1.0  0.06250  0.56200  0.62700  1.0000
  O   O14       1.0  0.56200  0.56400  0.62700  1.0000
  O   O15       1.0  0.41800  0.41800  0.83500  1.0000
  O   O16       1.0  0.91800  0.91800  0.83500  1.0000
  Pr  Pr1       1.0  0.75000  0.25000  0.50000  1.0000
  Pr  Pr2       1.0  0.25000  0.75000  0.50000  1.0000
