data_image0
_chemical_formula_structural       B4Ga4Mg4O16
_chemical_formula_sum              "B4 Ga4 Mg4 O16"
_cell_length_a       9.207
_cell_length_b       9.30018
_cell_length_c       3.05993
_cell_angle_alpha    90
_cell_angle_beta     90
_cell_angle_gamma    90

_space_group_name_H-M_alt    "P 1"
_space_group_IT_number       1

loop_
  _space_group_symop_operation_xyz
  'x, y, z'

loop_
  _atom_site_type_symbol
  _atom_site_label
  _atom_site_symmetry_multiplicity
  _atom_site_fract_x
  _atom_site_fract_y
  _atom_site_fract_z
  _atom_site_occupancy
  B   B1        1.0  0.83600  0.62800  0.25000  1.0000
  B   B2        1.0  0.33600  0.87200  0.25000  1.0000
  B   B3        1.0  0.66400  0.12800  0.75000  1.0000
  B   B4        1.0  0.16400  0.37200  0.75000  1.0000
  Ga  Ga1       1.0  0.38400  0.56900  0.25000  1.0000
  Ga  Ga2       1.0  0.88400  0.93100  0.25000  1.0000
  Ga  Ga3       1.0  0.11600  0.06890  0.75000  1.0000
  Ga  Ga4       1.0  0.61600  0.43100  0.75000  1.0000
  Mg  Mg1       1.0  0.39500  0.18600  0.25000  1.0000
  Mg  Mg2       1.0  0.89500  0.31400  0.25000  1.0000
  Mg  Mg3       1.0  0.10500  0.68600  0.75000  1.0000
  Mg  Mg4       1.0  0.60500  0.81400  0.75000  1.0000
  O   O1        1.0  0.25800  0.00225  0.25000  1.0000
  O   O2        1.0  0.99000  0.11600  0.25000  1.0000
  O   O3        1.0  0.49000  0.38400  0.25000  1.0000
  O   O4        1.0  0.75800  0.49800  0.25000  1.0000
  O   O5        1.0  0.98100  0.62800  0.25000  1.0000
  O   O6        1.0  0.25800  0.74200  0.25000  1.0000
  O   O7        1.0  0.75800  0.75800  0.25000  1.0000
  O   O8        1.0  0.48100  0.87200  0.25000  1.0000
  O   O9        1.0  0.51900  0.12800  0.75000  1.0000
  O   O10       1.0  0.24200  0.24200  0.75000  1.0000
  O   O11       1.0  0.74200  0.25800  0.75000  1.0000
  O   O12       1.0  0.01940  0.37200  0.75000  1.0000
  O   O13       1.0  0.24200  0.50200  0.75000  1.0000
  O   O14       1.0  0.51000  0.61600  0.75000  1.0000
  O   O15       1.0  0.00992  0.88400  0.75000  1.0000
  O   O16       1.0  0.74200  0.99800  0.75000  1.0000
