data_image0
_chemical_formula_structural       Ba2O18Si6Zr2
_chemical_formula_sum              "Ba2 O18 Si6 Zr2"
_cell_length_a       6.76552
_cell_length_b       6.76548
_cell_length_c       10.02
_cell_angle_alpha    90
_cell_angle_beta     90
_cell_angle_gamma    120

_space_group_name_H-M_alt    "P 1"
_space_group_IT_number       1

loop_
  _space_group_symop_operation_xyz
  'x, y, z'

loop_
  _atom_site_type_symbol
  _atom_site_label
  _atom_site_symmetry_multiplicity
  _atom_site_fract_x
  _atom_site_fract_y
  _atom_site_fract_z
  _atom_site_occupancy
  Ba  Ba1       1.0  0.66700  0.33300  0.00000  1.0000
  Ba  Ba2       1.0  0.66700  0.33300  0.50000  1.0000
  O   O1        1.0  0.58200  0.65000  0.11600  1.0000
  O   O2        1.0  0.35000  0.93200  0.11600  1.0000
  O   O3        1.0  0.06770  0.41800  0.11600  1.0000
  O   O4        1.0  0.79900  0.04700  0.25000  1.0000
  O   O5        1.0  0.24800  0.20100  0.25000  1.0000
  O   O6        1.0  0.95300  0.75200  0.25000  1.0000
  O   O7        1.0  0.06770  0.41800  0.38400  1.0000
  O   O8        1.0  0.58200  0.65000  0.38400  1.0000
  O   O9        1.0  0.35000  0.93200  0.38400  1.0000
  O   O10       1.0  0.06770  0.65000  0.61600  1.0000
  O   O11       1.0  0.58200  0.93200  0.61600  1.0000
  O   O12       1.0  0.35000  0.41800  0.61600  1.0000
  O   O13       1.0  0.24800  0.04700  0.75000  1.0000
  O   O14       1.0  0.95300  0.20100  0.75000  1.0000
  O   O15       1.0  0.79900  0.75200  0.75000  1.0000
  O   O16       1.0  0.35000  0.41800  0.88400  1.0000
  O   O17       1.0  0.06770  0.65000  0.88400  1.0000
  O   O18       1.0  0.58200  0.93200  0.88400  1.0000
  Si  Si1       1.0  0.05320  0.27900  0.25000  1.0000
  Si  Si2       1.0  0.72100  0.77400  0.25000  1.0000
  Si  Si3       1.0  0.22600  0.94700  0.25000  1.0000
  Si  Si4       1.0  0.22600  0.27900  0.75000  1.0000
  Si  Si5       1.0  0.05320  0.77400  0.75000  1.0000
  Si  Si6       1.0  0.72100  0.94700  0.75000  1.0000
  Zr  Zr1       1.0  0.33300  0.66700  0.00000  1.0000
  Zr  Zr2       1.0  0.33300  0.66700  0.50000  1.0000
