data_image0
_chemical_formula_structural       Au4S4Ta20
_chemical_formula_sum              "Au4 S4 Ta20"
_cell_length_a       8.91741
_cell_length_b       8.91741
_cell_length_c       8.91741
_cell_angle_alpha    120
_cell_angle_beta     90
_cell_angle_gamma    120

_space_group_name_H-M_alt    "P 1"
_space_group_IT_number       1

loop_
  _space_group_symop_operation_xyz
  'x, y, z'

loop_
  _atom_site_type_symbol
  _atom_site_label
  _atom_site_symmetry_multiplicity
  _atom_site_fract_x
  _atom_site_fract_y
  _atom_site_fract_z
  _atom_site_occupancy
  Au  Au1       1.0  0.15000  0.29900  0.44900  1.0000
  Au  Au2       1.0  0.15000  0.29900  0.85000  1.0000
  Au  Au3       1.0  0.15000  0.70100  0.85000  1.0000
  Au  Au4       1.0  0.55100  0.70100  0.85000  1.0000
  S   S1        1.0  0.88100  0.23700  0.11900  1.0000
  S   S2        1.0  0.35600  0.23700  0.11900  1.0000
  S   S3        1.0  0.88100  0.76300  0.11900  1.0000
  S   S4        1.0  0.88100  0.76300  0.64400  1.0000
  Ta  Ta1       1.0  0.94700  0.50000  0.05290  1.0000
  Ta  Ta2       1.0  0.55300  0.50000  0.05290  1.0000
  Ta  Ta3       1.0  0.55300  0.10600  0.05290  1.0000
  Ta  Ta4       1.0  0.36800  0.73600  0.10400  1.0000
  Ta  Ta5       1.0  0.22300  0.00000  0.22300  1.0000
  Ta  Ta6       1.0  0.22300  0.44600  0.22300  1.0000
  Ta  Ta7       1.0  0.77700  0.00000  0.22300  1.0000
  Ta  Ta8       1.0  0.58200  0.16400  0.41800  1.0000
  Ta  Ta9       1.0  0.25400  0.83600  0.41800  1.0000
  Ta  Ta10      1.0  0.58200  0.83600  0.41800  1.0000
  Ta  Ta11      1.0  0.55300  0.50000  0.44700  1.0000
  Ta  Ta12      1.0  0.94700  0.50000  0.44700  1.0000
  Ta  Ta13      1.0  0.94700  0.89400  0.44700  1.0000
  Ta  Ta14      1.0  0.36800  0.26400  0.63200  1.0000
  Ta  Ta15      1.0  0.89600  0.26400  0.63200  1.0000
  Ta  Ta16      1.0  0.36800  0.73600  0.63200  1.0000
  Ta  Ta17      1.0  0.58200  0.16400  0.74600  1.0000
  Ta  Ta18      1.0  0.22300  0.00000  0.77700  1.0000
  Ta  Ta19      1.0  0.77700  0.00000  0.77700  1.0000
  Ta  Ta20      1.0  0.77700  0.55400  0.77700  1.0000
