data_image0
_chemical_formula_structural       B4Mg4O16Ti4
_chemical_formula_sum              "B4 Mg4 O16 Ti4"
_cell_length_a       9.21665
_cell_length_b       9.46322
_cell_length_c       3.0581
_cell_angle_alpha    90
_cell_angle_beta     90
_cell_angle_gamma    90

_space_group_name_H-M_alt    "P 1"
_space_group_IT_number       1

loop_
  _space_group_symop_operation_xyz
  'x, y, z'

loop_
  _atom_site_type_symbol
  _atom_site_label
  _atom_site_symmetry_multiplicity
  _atom_site_fract_x
  _atom_site_fract_y
  _atom_site_fract_z
  _atom_site_occupancy
  B   B1        1.0  0.66800  0.63000  0.25000  1.0000
  B   B2        1.0  0.16800  0.87000  0.25000  1.0000
  B   B3        1.0  0.83200  0.13000  0.75000  1.0000
  B   B4        1.0  0.33200  0.37000  0.75000  1.0000
  Mg  Mg1       1.0  0.10500  0.18000  0.25000  1.0000
  Mg  Mg2       1.0  0.60500  0.32000  0.25000  1.0000
  Mg  Mg3       1.0  0.39500  0.68000  0.75000  1.0000
  Mg  Mg4       1.0  0.89500  0.82000  0.75000  1.0000
  O   O1        1.0  0.24300  0.00111  0.25000  1.0000
  O   O2        1.0  0.51300  0.12500  0.25000  1.0000
  O   O3        1.0  0.01320  0.37500  0.25000  1.0000
  O   O4        1.0  0.74300  0.49900  0.25000  1.0000
  O   O5        1.0  0.52300  0.62900  0.25000  1.0000
  O   O6        1.0  0.24700  0.74500  0.25000  1.0000
  O   O7        1.0  0.74700  0.75500  0.25000  1.0000
  O   O8        1.0  0.02250  0.87100  0.25000  1.0000
  O   O9        1.0  0.97700  0.12900  0.75000  1.0000
  O   O10       1.0  0.25300  0.24500  0.75000  1.0000
  O   O11       1.0  0.75300  0.25500  0.75000  1.0000
  O   O12       1.0  0.47700  0.37100  0.75000  1.0000
  O   O13       1.0  0.25700  0.50100  0.75000  1.0000
  O   O14       1.0  0.98700  0.62500  0.75000  1.0000
  O   O15       1.0  0.48700  0.87500  0.75000  1.0000
  O   O16       1.0  0.75700  0.99900  0.75000  1.0000
  Ti  Ti1       1.0  0.11100  0.56500  0.25000  1.0000
  Ti  Ti2       1.0  0.61100  0.93500  0.25000  1.0000
  Ti  Ti3       1.0  0.38900  0.06470  0.75000  1.0000
  Ti  Ti4       1.0  0.88900  0.43500  0.75000  1.0000
