data_image0
_chemical_formula_structural       Ca2O5Pd2
_chemical_formula_sum              "Ca2 O5 Pd2"
_cell_length_a       5.47457
_cell_length_b       5.3677
_cell_length_c       5.90311
_cell_angle_alpha    60.6824
_cell_angle_beta     60.0611
_cell_angle_gamma    59.1827

_space_group_name_H-M_alt    "P 1"
_space_group_IT_number       1

loop_
  _space_group_symop_operation_xyz
  'x, y, z'

loop_
  _atom_site_type_symbol
  _atom_site_label
  _atom_site_symmetry_multiplicity
  _atom_site_fract_x
  _atom_site_fract_y
  _atom_site_fract_z
  _atom_site_occupancy
  Ca  Ca1       1.0  0.88000  0.87300  0.39400  1.0000
  Ca  Ca2       1.0  0.12700  0.14500  0.60900  1.0000
  O   O1        1.0  0.53200  0.26900  0.22900  1.0000
  O   O2        1.0  0.92300  0.53100  0.24200  1.0000
  O   O3        1.0  0.08610  0.47200  0.75000  1.0000
  O   O4        1.0  0.46800  0.72800  0.76800  1.0000
  O   O5        1.0  0.70900  0.05470  0.77700  1.0000
  Pd  Pd1       1.0  0.65000  0.65900  0.02240  1.0000
  Pd  Pd2       1.0  0.33400  0.32500  0.98500  1.0000
