data_image0
_chemical_formula_structural       Eu4Mn4O11
_chemical_formula_sum              "Eu4 Mn4 O11"
_cell_length_a       5.37193
_cell_length_b       5.35478
_cell_length_c       7.54982
_cell_angle_alpha    90
_cell_angle_beta     90
_cell_angle_gamma    90.0658

_space_group_name_H-M_alt    "P 1"
_space_group_IT_number       1

loop_
  _space_group_symop_operation_xyz
  'x, y, z'

loop_
  _atom_site_type_symbol
  _atom_site_label
  _atom_site_symmetry_multiplicity
  _atom_site_fract_x
  _atom_site_fract_y
  _atom_site_fract_z
  _atom_site_occupancy
  Eu  Eu1       1.0  0.99900  0.01730  0.25000  1.0000
  Eu  Eu2       1.0  0.49600  0.51700  0.25000  1.0000
  Eu  Eu3       1.0  0.48500  0.48400  0.75000  1.0000
  Eu  Eu4       1.0  0.01030  0.98800  0.75000  1.0000
  Mn  Mn1       1.0  0.50500  0.00048  0.00436  1.0000
  Mn  Mn2       1.0  0.50500  0.00048  0.49600  1.0000
  Mn  Mn3       1.0  0.99400  0.50100  0.50900  1.0000
  Mn  Mn4       1.0  0.99400  0.50100  0.99100  1.0000
  O   O1        1.0  0.77400  0.76300  0.04390  1.0000
  O   O2        1.0  0.74000  0.27100  0.04470  1.0000
  O   O3        1.0  0.44400  0.99500  0.25000  1.0000
  O   O4        1.0  0.74000  0.27100  0.45500  1.0000
  O   O5        1.0  0.77400  0.76300  0.45600  1.0000
  O   O6        1.0  0.23000  0.23700  0.51300  1.0000
  O   O7        1.0  0.26700  0.72600  0.51400  1.0000
  O   O8        1.0  0.55500  0.00480  0.75000  1.0000
  O   O9        1.0  0.93500  0.50400  0.75000  1.0000
  O   O10       1.0  0.26700  0.72600  0.98600  1.0000
  O   O11       1.0  0.23000  0.23700  0.98700  1.0000
