data_image0
_chemical_formula_structural       Ho12N4Se12
_chemical_formula_sum              "Ho12 N4 Se12"
_cell_length_a       7.67842
_cell_length_b       7.67842
_cell_length_c       12.5302
_cell_angle_alpha    106.905
_cell_angle_beta     73.0946
_cell_angle_gamma    97.6656

_space_group_name_H-M_alt    "P 1"
_space_group_IT_number       1

loop_
  _space_group_symop_operation_xyz
  'x, y, z'

loop_
  _atom_site_type_symbol
  _atom_site_label
  _atom_site_symmetry_multiplicity
  _atom_site_fract_x
  _atom_site_fract_y
  _atom_site_fract_z
  _atom_site_occupancy
  Ho  Ho1       1.0  0.60800  0.24800  0.11300  1.0000
  Ho  Ho2       1.0  0.02130  0.66100  0.11700  1.0000
  Ho  Ho3       1.0  0.06290  0.21200  0.12300  1.0000
  Ho  Ho4       1.0  0.21200  0.06290  0.37700  1.0000
  Ho  Ho5       1.0  0.66100  0.02130  0.38300  1.0000
  Ho  Ho6       1.0  0.24800  0.60800  0.38700  1.0000
  Ho  Ho7       1.0  0.75200  0.39200  0.61300  1.0000
  Ho  Ho8       1.0  0.33900  0.97900  0.61700  1.0000
  Ho  Ho9       1.0  0.78800  0.93700  0.62300  1.0000
  Ho  Ho10      1.0  0.93700  0.78800  0.87700  1.0000
  Ho  Ho11      1.0  0.97900  0.33900  0.88300  1.0000
  Ho  Ho12      1.0  0.39200  0.75200  0.88700  1.0000
  N   N1        1.0  0.89000  0.37500  0.07600  1.0000
  N   N2        1.0  0.37500  0.89000  0.42400  1.0000
  N   N3        1.0  0.62500  0.11000  0.57600  1.0000
  N   N4        1.0  0.11000  0.62500  0.92400  1.0000
  Se  Se1       1.0  0.78000  0.92600  0.12700  1.0000
  Se  Se2       1.0  0.30700  0.95900  0.12800  1.0000
  Se  Se3       1.0  0.33500  0.49600  0.14000  1.0000
  Se  Se4       1.0  0.49600  0.33500  0.36000  1.0000
  Se  Se5       1.0  0.95900  0.30700  0.37200  1.0000
  Se  Se6       1.0  0.92600  0.78000  0.37300  1.0000
  Se  Se7       1.0  0.07430  0.22000  0.62700  1.0000
  Se  Se8       1.0  0.04120  0.69300  0.62800  1.0000
  Se  Se9       1.0  0.50400  0.66500  0.64000  1.0000
  Se  Se10      1.0  0.66500  0.50400  0.86000  1.0000
  Se  Se11      1.0  0.69300  0.04120  0.87200  1.0000
  Se  Se12      1.0  0.22000  0.07430  0.87300  1.0000
