data_image0
_chemical_formula_structural       Cs2O5Ta2
_chemical_formula_sum              "Cs2 O5 Ta2"
_cell_length_a       5.33302
_cell_length_b       5.33836
_cell_length_c       7.42225
_cell_angle_alpha    69.2797
_cell_angle_beta     68.9076
_cell_angle_gamma    64.0151

_space_group_name_H-M_alt    "P 1"
_space_group_IT_number       1

loop_
  _space_group_symop_operation_xyz
  'x, y, z'

loop_
  _atom_site_type_symbol
  _atom_site_label
  _atom_site_symmetry_multiplicity
  _atom_site_fract_x
  _atom_site_fract_y
  _atom_site_fract_z
  _atom_site_occupancy
  Cs  Cs1       1.0  0.62700  0.64500  0.11600  1.0000
  Cs  Cs2       1.0  0.36500  0.36900  0.88400  1.0000
  O   O1        1.0  0.05650  0.55200  0.31400  1.0000
  O   O2        1.0  0.57200  0.07930  0.31600  1.0000
  O   O3        1.0  0.87700  0.99300  0.68000  1.0000
  O   O4        1.0  0.95700  0.45200  0.68200  1.0000
  O   O5        1.0  0.42700  0.90900  0.68200  1.0000
  Ta  Ta1       1.0  0.83800  0.82800  0.49100  1.0000
  Ta  Ta2       1.0  0.16800  0.16300  0.51200  1.0000
