data_image0
_chemical_formula_structural       Bi2O5Rb2
_chemical_formula_sum              "Bi2 O5 Rb2"
_cell_length_a       6.18498
_cell_length_b       5.94161
_cell_length_c       6.80369
_cell_angle_alpha    58.9643
_cell_angle_beta     65.052
_cell_angle_gamma    60.365

_space_group_name_H-M_alt    "P 1"
_space_group_IT_number       1

loop_
  _space_group_symop_operation_xyz
  'x, y, z'

loop_
  _atom_site_type_symbol
  _atom_site_label
  _atom_site_symmetry_multiplicity
  _atom_site_fract_x
  _atom_site_fract_y
  _atom_site_fract_z
  _atom_site_occupancy
  Bi  Bi1       1.0  0.86100  0.85000  0.44700  1.0000
  Bi  Bi2       1.0  0.11600  0.15600  0.55100  1.0000
  O   O1        1.0  0.08290  0.53000  0.25900  1.0000
  O   O2        1.0  0.22000  0.93200  0.34100  1.0000
  O   O3        1.0  0.42800  0.90800  0.69300  1.0000
  O   O4        1.0  0.81400  0.01800  0.70800  1.0000
  O   O5        1.0  0.94500  0.44500  0.72500  1.0000
  Rb  Rb1       1.0  0.62300  0.61500  0.10900  1.0000
  Rb  Rb2       1.0  0.35100  0.38200  0.86300  1.0000
