data_image0
_chemical_formula_structural       Nd4O11Rh4
_chemical_formula_sum              "Nd4 O11 Rh4"
_cell_length_a       5.35508
_cell_length_b       5.81271
_cell_length_c       7.78604
_cell_angle_alpha    90.358
_cell_angle_beta     89.2196
_cell_angle_gamma    90.8174

_space_group_name_H-M_alt    "P 1"
_space_group_IT_number       1

loop_
  _space_group_symop_operation_xyz
  'x, y, z'

loop_
  _atom_site_type_symbol
  _atom_site_label
  _atom_site_symmetry_multiplicity
  _atom_site_fract_x
  _atom_site_fract_y
  _atom_site_fract_z
  _atom_site_occupancy
  Nd  Nd1       1.0  0.52300  0.58100  0.24100  1.0000
  Nd  Nd2       1.0  0.99200  0.06740  0.25300  1.0000
  Nd  Nd3       1.0  0.46200  0.42700  0.74500  1.0000
  Nd  Nd4       1.0  0.02680  0.91800  0.75900  1.0000
  O   O1        1.0  0.82100  0.80700  0.05160  1.0000
  O   O2        1.0  0.10800  0.46300  0.24900  1.0000
  O   O3        1.0  0.40200  0.96700  0.25200  1.0000
  O   O4        1.0  0.68300  0.30200  0.43100  1.0000
  O   O5        1.0  0.81000  0.79900  0.44200  1.0000
  O   O6        1.0  0.17800  0.19200  0.55300  1.0000
  O   O7        1.0  0.31100  0.69700  0.55500  1.0000
  O   O8        1.0  0.62200  0.04820  0.74900  1.0000
  O   O9        1.0  0.87600  0.53300  0.75200  1.0000
  O   O10       1.0  0.19200  0.19900  0.94900  1.0000
  O   O11       1.0  0.32000  0.69300  0.95800  1.0000
  Rh  Rh1       1.0  0.97700  0.48400  0.00231  1.0000
  Rh  Rh2       1.0  0.51900  0.01940  0.00282  1.0000
  Rh  Rh3       1.0  0.99200  0.49700  0.49900  1.0000
  Rh  Rh4       1.0  0.50100  0.00182  0.50100  1.0000
