data_image0
_chemical_formula_structural       Br16Cs8Hg4
_chemical_formula_sum              "Br16 Cs8 Hg4"
_cell_length_a       10.4471
_cell_length_b       7.96298
_cell_length_c       14.1781
_cell_angle_alpha    90
_cell_angle_beta     90
_cell_angle_gamma    90

_space_group_name_H-M_alt    "P 1"
_space_group_IT_number       1

loop_
  _space_group_symop_operation_xyz
  'x, y, z'

loop_
  _atom_site_type_symbol
  _atom_site_label
  _atom_site_symmetry_multiplicity
  _atom_site_fract_x
  _atom_site_fract_y
  _atom_site_fract_z
  _atom_site_occupancy
  Br  Br1       1.0  0.96900  0.25000  0.09660  1.0000
  Br  Br2       1.0  0.68000  0.75000  0.09730  1.0000
  Br  Br3       1.0  0.32800  0.52000  0.15300  1.0000
  Br  Br4       1.0  0.32800  0.98000  0.15300  1.0000
  Br  Br5       1.0  0.82800  0.52000  0.34700  1.0000
  Br  Br6       1.0  0.82800  0.98000  0.34700  1.0000
  Br  Br7       1.0  0.18000  0.75000  0.40300  1.0000
  Br  Br8       1.0  0.46900  0.25000  0.40300  1.0000
  Br  Br9       1.0  0.53100  0.75000  0.59700  1.0000
  Br  Br10      1.0  0.82000  0.25000  0.59700  1.0000
  Br  Br11      1.0  0.17200  0.02000  0.65300  1.0000
  Br  Br12      1.0  0.17200  0.48000  0.65300  1.0000
  Br  Br13      1.0  0.67200  0.02000  0.84700  1.0000
  Br  Br14      1.0  0.67200  0.48000  0.84700  1.0000
  Br  Br15      1.0  0.32000  0.25000  0.90300  1.0000
  Br  Br16      1.0  0.03130  0.75000  0.90300  1.0000
  Cs  Cs1       1.0  0.61400  0.25000  0.08210  1.0000
  Cs  Cs2       1.0  0.01850  0.75000  0.16700  1.0000
  Cs  Cs3       1.0  0.51800  0.75000  0.33300  1.0000
  Cs  Cs4       1.0  0.11400  0.25000  0.41800  1.0000
  Cs  Cs5       1.0  0.88600  0.75000  0.58200  1.0000
  Cs  Cs6       1.0  0.48200  0.25000  0.66700  1.0000
  Cs  Cs7       1.0  0.98200  0.25000  0.83300  1.0000
  Cs  Cs8       1.0  0.38600  0.75000  0.91800  1.0000
  Hg  Hg1       1.0  0.21900  0.25000  0.07680  1.0000
  Hg  Hg2       1.0  0.71900  0.25000  0.42300  1.0000
  Hg  Hg3       1.0  0.28100  0.75000  0.57700  1.0000
  Hg  Hg4       1.0  0.78100  0.75000  0.92300  1.0000
