data_image0
_chemical_formula_structural       Cs2O5Os2
_chemical_formula_sum              "Cs2 O5 Os2"
_cell_length_a       5.33766
_cell_length_b       5.74692
_cell_length_c       7.1401
_cell_angle_alpha    66.2416
_cell_angle_beta     67.6817
_cell_angle_gamma    57.4118

_space_group_name_H-M_alt    "P 1"
_space_group_IT_number       1

loop_
  _space_group_symop_operation_xyz
  'x, y, z'

loop_
  _atom_site_type_symbol
  _atom_site_label
  _atom_site_symmetry_multiplicity
  _atom_site_fract_x
  _atom_site_fract_y
  _atom_site_fract_z
  _atom_site_occupancy
  Cs  Cs1       1.0  0.61100  0.62900  0.12900  1.0000
  Cs  Cs2       1.0  0.38800  0.37100  0.87000  1.0000
  O   O1        1.0  0.05890  0.56300  0.31500  1.0000
  O   O2        1.0  0.05990  0.06240  0.31500  1.0000
  O   O3        1.0  0.44200  0.93500  0.68400  1.0000
  O   O4        1.0  0.94100  0.93700  0.68400  1.0000
  O   O5        1.0  0.94200  0.43800  0.68400  1.0000
  Os  Os1       1.0  0.84700  0.82600  0.50200  1.0000
  Os  Os2       1.0  0.14900  0.17400  0.50400  1.0000
