data_image0
_chemical_formula_structural       Cs4Fe4O16Si4
_chemical_formula_sum              "Cs4 Fe4 O16 Si4"
_cell_length_a       9.62469
_cell_length_b       5.55304
_cell_length_c       8.8654
_cell_angle_alpha    90
_cell_angle_beta     90
_cell_angle_gamma    90

_space_group_name_H-M_alt    "P 1"
_space_group_IT_number       1

loop_
  _space_group_symop_operation_xyz
  'x, y, z'

loop_
  _atom_site_type_symbol
  _atom_site_label
  _atom_site_symmetry_multiplicity
  _atom_site_fract_x
  _atom_site_fract_y
  _atom_site_fract_z
  _atom_site_occupancy
  Cs  Cs1       1.0  0.28900  0.49800  0.00121  1.0000
  Cs  Cs2       1.0  0.78900  0.99800  0.49900  1.0000
  Cs  Cs3       1.0  0.21100  0.49800  0.50100  1.0000
  Cs  Cs4       1.0  0.71100  0.99800  0.99900  1.0000
  Fe  Fe1       1.0  0.91700  0.48000  0.18700  1.0000
  Fe  Fe2       1.0  0.41700  0.98000  0.31300  1.0000
  Fe  Fe3       1.0  0.58300  0.48000  0.68700  1.0000
  Fe  Fe4       1.0  0.08300  0.98000  0.81300  1.0000
  O   O1        1.0  0.07520  0.98800  0.02010  1.0000
  O   O2        1.0  0.53300  0.74300  0.22700  1.0000
  O   O3        1.0  0.47100  0.27600  0.23200  1.0000
  O   O4        1.0  0.73500  0.40700  0.24100  1.0000
  O   O5        1.0  0.23500  0.90700  0.25900  1.0000
  O   O6        1.0  0.97100  0.77600  0.26800  1.0000
  O   O7        1.0  0.03340  0.24300  0.27300  1.0000
  O   O8        1.0  0.57500  0.48800  0.48000  1.0000
  O   O9        1.0  0.42500  0.98800  0.52000  1.0000
  O   O10       1.0  0.96700  0.74300  0.72700  1.0000
  O   O11       1.0  0.02900  0.27600  0.73200  1.0000
  O   O12       1.0  0.76500  0.40700  0.74100  1.0000
  O   O13       1.0  0.26500  0.90700  0.75900  1.0000
  O   O14       1.0  0.52900  0.77600  0.76800  1.0000
  O   O15       1.0  0.46700  0.24300  0.77300  1.0000
  O   O16       1.0  0.92500  0.48800  0.98000  1.0000
  Si  Si1       1.0  0.07940  0.98000  0.20400  1.0000
  Si  Si2       1.0  0.57900  0.48000  0.29600  1.0000
  Si  Si3       1.0  0.42100  0.98000  0.70400  1.0000
  Si  Si4       1.0  0.92100  0.48000  0.79600  1.0000
