data_image0
_chemical_formula_structural       B4Ca4O16Y4
_chemical_formula_sum              "B4 Ca4 O16 Y4"
_cell_length_a       10.4209
_cell_length_b       9.57814
_cell_length_c       3.56478
_cell_angle_alpha    90
_cell_angle_beta     90
_cell_angle_gamma    90

_space_group_name_H-M_alt    "P 1"
_space_group_IT_number       1

loop_
  _space_group_symop_operation_xyz
  'x, y, z'

loop_
  _atom_site_type_symbol
  _atom_site_label
  _atom_site_symmetry_multiplicity
  _atom_site_fract_x
  _atom_site_fract_y
  _atom_site_fract_z
  _atom_site_occupancy
  B   B1        1.0  0.70100  0.13100  0.25000  1.0000
  B   B2        1.0  0.20100  0.36900  0.25000  1.0000
  B   B3        1.0  0.79900  0.63100  0.75000  1.0000
  B   B4        1.0  0.29900  0.86900  0.75000  1.0000
  Ca  Ca1       1.0  0.08340  0.66700  0.25000  1.0000
  Ca  Ca2       1.0  0.58300  0.83300  0.25000  1.0000
  Ca  Ca3       1.0  0.41700  0.16700  0.75000  1.0000
  Ca  Ca4       1.0  0.91700  0.33300  0.75000  1.0000
  O   O1        1.0  0.56700  0.14700  0.25000  1.0000
  O   O2        1.0  0.27700  0.25000  0.25000  1.0000
  O   O3        1.0  0.77700  0.25000  0.25000  1.0000
  O   O4        1.0  0.06740  0.35300  0.25000  1.0000
  O   O5        1.0  0.25300  0.50200  0.25000  1.0000
  O   O6        1.0  0.50900  0.61600  0.25000  1.0000
  O   O7        1.0  0.00907  0.88400  0.25000  1.0000
  O   O8        1.0  0.75300  0.99800  0.25000  1.0000
  O   O9        1.0  0.24700  0.00178  0.75000  1.0000
  O   O10       1.0  0.99100  0.11600  0.75000  1.0000
  O   O11       1.0  0.49100  0.38400  0.75000  1.0000
  O   O12       1.0  0.74700  0.49800  0.75000  1.0000
  O   O13       1.0  0.93300  0.64700  0.75000  1.0000
  O   O14       1.0  0.22300  0.75000  0.75000  1.0000
  O   O15       1.0  0.72300  0.75000  0.75000  1.0000
  O   O16       1.0  0.43300  0.85300  0.75000  1.0000
  Y   Y1        1.0  0.11100  0.08890  0.25000  1.0000
  Y   Y2        1.0  0.61100  0.41100  0.25000  1.0000
  Y   Y3        1.0  0.38900  0.58900  0.75000  1.0000
  Y   Y4        1.0  0.88900  0.91100  0.75000  1.0000
