data_image0
_chemical_formula_structural       Al4Bi4Ga4Se16
_chemical_formula_sum              "Al4 Bi4 Ga4 Se16"
_cell_length_a       7.94878
_cell_length_b       7.94878
_cell_length_c       12.6713
_cell_angle_alpha    90
_cell_angle_beta     90
_cell_angle_gamma    90

_space_group_name_H-M_alt    "P 1"
_space_group_IT_number       1

loop_
  _space_group_symop_operation_xyz
  'x, y, z'

loop_
  _atom_site_type_symbol
  _atom_site_label
  _atom_site_symmetry_multiplicity
  _atom_site_fract_x
  _atom_site_fract_y
  _atom_site_fract_z
  _atom_site_occupancy
  Al  Al1       1.0  0.75000  0.25000  0.00000  1.0000
  Al  Al2       1.0  0.25000  0.75000  0.00000  1.0000
  Al  Al3       1.0  0.75000  0.25000  0.50000  1.0000
  Al  Al4       1.0  0.25000  0.75000  0.50000  1.0000
  Bi  Bi1       1.0  0.25000  0.25000  0.12500  1.0000
  Bi  Bi2       1.0  0.25000  0.25000  0.37500  1.0000
  Bi  Bi3       1.0  0.75000  0.75000  0.62500  1.0000
  Bi  Bi4       1.0  0.75000  0.75000  0.87500  1.0000
  Ga  Ga1       1.0  0.75000  0.25000  0.25000  1.0000
  Ga  Ga2       1.0  0.25000  0.75000  0.25000  1.0000
  Ga  Ga3       1.0  0.75000  0.25000  0.75000  1.0000
  Ga  Ga4       1.0  0.25000  0.75000  0.75000  1.0000
  Se  Se1       1.0  0.91300  0.08180  0.12400  1.0000
  Se  Se2       1.0  0.58700  0.41800  0.12400  1.0000
  Se  Se3       1.0  0.08180  0.58700  0.12400  1.0000
  Se  Se4       1.0  0.41800  0.91300  0.12400  1.0000
  Se  Se5       1.0  0.58700  0.08180  0.37600  1.0000
  Se  Se6       1.0  0.91300  0.41800  0.37600  1.0000
  Se  Se7       1.0  0.41800  0.58700  0.37600  1.0000
  Se  Se8       1.0  0.08180  0.91300  0.37600  1.0000
  Se  Se9       1.0  0.91800  0.08730  0.62400  1.0000
  Se  Se10      1.0  0.58200  0.41300  0.62400  1.0000
  Se  Se11      1.0  0.08730  0.58200  0.62400  1.0000
  Se  Se12      1.0  0.41300  0.91800  0.62400  1.0000
  Se  Se13      1.0  0.58200  0.08730  0.87600  1.0000
  Se  Se14      1.0  0.91800  0.41300  0.87600  1.0000
  Se  Se15      1.0  0.41300  0.58200  0.87600  1.0000
  Se  Se16      1.0  0.08730  0.91800  0.87600  1.0000
