data_image0
_chemical_formula_structural       P6Sn2
_chemical_formula_sum              "P6 Sn2"
_cell_length_a       5.58496
_cell_length_b       5.58496
_cell_length_c       5.58496
_cell_angle_alpha    83.8768
_cell_angle_beta     96.1232
_cell_angle_gamma    96.1232

_space_group_name_H-M_alt    "P 1"
_space_group_IT_number       1

loop_
  _space_group_symop_operation_xyz
  'x, y, z'

loop_
  _atom_site_type_symbol
  _atom_site_label
  _atom_site_symmetry_multiplicity
  _atom_site_fract_x
  _atom_site_fract_y
  _atom_site_fract_z
  _atom_site_occupancy
  P   P1        1.0  0.79800  0.74600  0.20200  1.0000
  P   P2        1.0  0.25400  0.20200  0.20200  1.0000
  P   P3        1.0  0.20200  0.79800  0.25400  1.0000
  P   P4        1.0  0.79800  0.20200  0.74600  1.0000
  P   P5        1.0  0.20200  0.25400  0.79800  1.0000
  P   P6        1.0  0.74600  0.79800  0.79800  1.0000
  Sn  Sn1       1.0  0.74400  0.25600  0.25600  1.0000
  Sn  Sn2       1.0  0.25600  0.74400  0.74400  1.0000
