data_image0
_chemical_formula_structural       O5Pb2Sr2
_chemical_formula_sum              "O5 Pb2 Sr2"
_cell_length_a       6.18188
_cell_length_b       5.90446
_cell_length_c       6.38097
_cell_angle_alpha    55.8256
_cell_angle_beta     59.9
_cell_angle_gamma    59.9287

_space_group_name_H-M_alt    "P 1"
_space_group_IT_number       1

loop_
  _space_group_symop_operation_xyz
  'x, y, z'

loop_
  _atom_site_type_symbol
  _atom_site_label
  _atom_site_symmetry_multiplicity
  _atom_site_fract_x
  _atom_site_fract_y
  _atom_site_fract_z
  _atom_site_occupancy
  O   O1        1.0  0.00417  0.58000  0.18200  1.0000
  O   O2        1.0  0.28700  0.97100  0.26200  1.0000
  O   O3        1.0  0.49800  0.68800  0.74500  1.0000
  O   O4        1.0  0.06320  0.45200  0.74900  1.0000
  O   O5        1.0  0.68300  0.05460  0.76400  1.0000
  Pb  Pb1       1.0  0.63300  0.62700  0.10500  1.0000
  Pb  Pb2       1.0  0.33000  0.36400  0.91700  1.0000
  Sr  Sr1       1.0  0.87100  0.86500  0.40900  1.0000
  Sr  Sr2       1.0  0.10400  0.10300  0.63600  1.0000
