data_image0
_chemical_formula_structural       Al4Lu4O11
_chemical_formula_sum              "Al4 Lu4 O11"
_cell_length_a       5.06614
_cell_length_b       5.30949
_cell_length_c       7.28845
_cell_angle_alpha    90.0747
_cell_angle_beta     89.9864
_cell_angle_gamma    90.365

_space_group_name_H-M_alt    "P 1"
_space_group_IT_number       1

loop_
  _space_group_symop_operation_xyz
  'x, y, z'

loop_
  _atom_site_type_symbol
  _atom_site_label
  _atom_site_symmetry_multiplicity
  _atom_site_fract_x
  _atom_site_fract_y
  _atom_site_fract_z
  _atom_site_occupancy
  Al  Al1       1.0  0.50200  0.00286  0.00057  1.0000
  Al  Al2       1.0  0.99400  0.49500  0.00092  1.0000
  Al  Al3       1.0  0.00000  0.50000  0.49900  1.0000
  Al  Al4       1.0  0.50000  1.00000  0.49900  1.0000
  Lu  Lu1       1.0  0.52000  0.56300  0.24400  1.0000
  Lu  Lu2       1.0  0.98500  0.06360  0.25200  1.0000
  Lu  Lu3       1.0  0.48100  0.43700  0.75000  1.0000
  Lu  Lu4       1.0  0.01650  0.93400  0.75200  1.0000
  O   O1        1.0  0.80200  0.80200  0.05170  1.0000
  O   O2        1.0  0.40300  0.97100  0.24900  1.0000
  O   O3        1.0  0.10100  0.47000  0.25100  1.0000
  O   O4        1.0  0.69700  0.30000  0.44400  1.0000
  O   O5        1.0  0.80100  0.79900  0.44800  1.0000
  O   O6        1.0  0.19700  0.19900  0.55300  1.0000
  O   O7        1.0  0.30100  0.70200  0.55300  1.0000
  O   O8        1.0  0.89900  0.52900  0.75000  1.0000
  O   O9        1.0  0.60100  0.03330  0.75100  1.0000
  O   O10       1.0  0.30300  0.69800  0.95000  1.0000
  O   O11       1.0  0.19800  0.20000  0.95000  1.0000
