data_image0
_chemical_formula_structural       Np4O11Sc4
_chemical_formula_sum              "Np4 O11 Sc4"
_cell_length_a       5.60385
_cell_length_b       5.80377
_cell_length_c       7.98721
_cell_angle_alpha    90
_cell_angle_beta     90
_cell_angle_gamma    89.9765

_space_group_name_H-M_alt    "P 1"
_space_group_IT_number       1

loop_
  _space_group_symop_operation_xyz
  'x, y, z'

loop_
  _atom_site_type_symbol
  _atom_site_label
  _atom_site_symmetry_multiplicity
  _atom_site_fract_x
  _atom_site_fract_y
  _atom_site_fract_z
  _atom_site_occupancy
  Np  Np1       1.0  0.99000  0.04840  0.25000  1.0000
  Np  Np2       1.0  0.52000  0.55100  0.25000  1.0000
  Np  Np3       1.0  0.48900  0.44800  0.75000  1.0000
  Np  Np4       1.0  0.00944  0.94700  0.75000  1.0000
  O   O1        1.0  0.80500  0.80400  0.04870  1.0000
  O   O2        1.0  0.69500  0.30300  0.05040  1.0000
  O   O3        1.0  0.40100  0.96500  0.25000  1.0000
  O   O4        1.0  0.69500  0.30300  0.45000  1.0000
  O   O5        1.0  0.80500  0.80400  0.45100  1.0000
  O   O6        1.0  0.19300  0.19800  0.54800  1.0000
  O   O7        1.0  0.30400  0.69600  0.55000  1.0000
  O   O8        1.0  0.60000  0.03570  0.75000  1.0000
  O   O9        1.0  0.89800  0.53600  0.75000  1.0000
  O   O10       1.0  0.30400  0.69600  0.95000  1.0000
  O   O11       1.0  0.19300  0.19800  0.95200  1.0000
  Sc  Sc1       1.0  0.49900  0.00000  0.00074  1.0000
  Sc  Sc2       1.0  0.99900  0.50000  0.00114  1.0000
  Sc  Sc3       1.0  0.99900  0.50000  0.49900  1.0000
  Sc  Sc4       1.0  0.49900  0.00000  0.49900  1.0000
