data_image0
_chemical_formula_structural       Ba6Fe8S15
_chemical_formula_sum              "Ba6 Fe8 S15"
_cell_length_a       9.50282
_cell_length_b       9.50282
_cell_length_c       9.50282
_cell_angle_alpha    106.291
_cell_angle_beta     116.039
_cell_angle_gamma    106.291

_space_group_name_H-M_alt    "P 1"
_space_group_IT_number       1

loop_
  _space_group_symop_operation_xyz
  'x, y, z'

loop_
  _atom_site_type_symbol
  _atom_site_label
  _atom_site_symmetry_multiplicity
  _atom_site_fract_x
  _atom_site_fract_y
  _atom_site_fract_z
  _atom_site_occupancy
  Ba  Ba1       1.0  0.74900  0.88200  0.13300  1.0000
  Ba  Ba2       1.0  0.13300  0.38400  0.25100  1.0000
  Ba  Ba3       1.0  0.30300  0.00000  0.30300  1.0000
  Ba  Ba4       1.0  0.69700  0.00000  0.69700  1.0000
  Ba  Ba5       1.0  0.86700  0.61600  0.74900  1.0000
  Ba  Ba6       1.0  0.25100  0.11800  0.86700  1.0000
  Fe  Fe1       1.0  0.30800  0.58800  0.01170  1.0000
  Fe  Fe2       1.0  0.57600  0.58800  0.28000  1.0000
  Fe  Fe3       1.0  0.72000  0.29600  0.30800  1.0000
  Fe  Fe4       1.0  0.01170  0.70400  0.42400  1.0000
  Fe  Fe5       1.0  0.98800  0.29600  0.57600  1.0000
  Fe  Fe6       1.0  0.28000  0.70400  0.69200  1.0000
  Fe  Fe7       1.0  0.42400  0.41200  0.72000  1.0000
  Fe  Fe8       1.0  0.69200  0.41200  0.98800  1.0000
  S   S1        1.0  0.00000  0.00000  0.00000  1.0000
  S   S2        1.0  0.50000  0.50000  0.00000  1.0000
  S   S3        1.0  0.69000  0.19700  0.04570  1.0000
  S   S4        1.0  0.95400  0.64500  0.15100  1.0000
  S   S5        1.0  0.40400  0.69700  0.29400  1.0000
  S   S6        1.0  0.50600  0.35500  0.31000  1.0000
  S   S7        1.0  0.70600  0.11000  0.40400  1.0000
  S   S8        1.0  0.84900  0.80300  0.49400  1.0000
  S   S9        1.0  0.00000  0.50000  0.50000  1.0000
  S   S10       1.0  0.15100  0.19700  0.50600  1.0000
  S   S11       1.0  0.29400  0.89000  0.59600  1.0000
  S   S12       1.0  0.49400  0.64500  0.69000  1.0000
  S   S13       1.0  0.59600  0.30300  0.70600  1.0000
  S   S14       1.0  0.04570  0.35500  0.84900  1.0000
  S   S15       1.0  0.31000  0.80300  0.95400  1.0000
