data_image0
_chemical_formula_structural       Mn3Ni20P6
_chemical_formula_sum              "Mn3 Ni20 P6"
_cell_length_a       7.79902
_cell_length_b       7.79902
_cell_length_c       7.79902
_cell_angle_alpha    120
_cell_angle_beta     90
_cell_angle_gamma    120

_space_group_name_H-M_alt    "P 1"
_space_group_IT_number       1

loop_
  _space_group_symop_operation_xyz
  'x, y, z'

loop_
  _atom_site_type_symbol
  _atom_site_label
  _atom_site_symmetry_multiplicity
  _atom_site_fract_x
  _atom_site_fract_y
  _atom_site_fract_z
  _atom_site_occupancy
  Mn  Mn1       1.0  0.00000  0.00000  0.00000  1.0000
  Mn  Mn2       1.0  0.75000  0.50000  0.25000  1.0000
  Mn  Mn3       1.0  0.25000  0.50000  0.75000  1.0000
  Ni  Ni1       1.0  0.34800  0.00000  0.00000  1.0000
  Ni  Ni2       1.0  0.65200  0.00000  0.00000  1.0000
  Ni  Ni3       1.0  0.00000  0.34800  0.00000  1.0000
  Ni  Ni4       1.0  0.34800  0.34800  0.00000  1.0000
  Ni  Ni5       1.0  0.00000  0.65200  0.00000  1.0000
  Ni  Ni6       1.0  0.65200  0.65200  0.00000  1.0000
  Ni  Ni7       1.0  0.38200  0.76400  0.14600  1.0000
  Ni  Ni8       1.0  0.00000  0.34800  0.34800  1.0000
  Ni  Ni9       1.0  0.34800  0.34800  0.34800  1.0000
  Ni  Ni10      1.0  0.00000  0.00000  0.34800  1.0000
  Ni  Ni11      1.0  0.14600  0.76400  0.38200  1.0000
  Ni  Ni12      1.0  0.61800  0.76400  0.38200  1.0000
  Ni  Ni13      1.0  0.61800  0.23600  0.38200  1.0000
  Ni  Ni14      1.0  0.38200  0.23600  0.61800  1.0000
  Ni  Ni15      1.0  0.38200  0.76400  0.61800  1.0000
  Ni  Ni16      1.0  0.85400  0.23600  0.61800  1.0000
  Ni  Ni17      1.0  0.00000  1.00000  0.65200  1.0000
  Ni  Ni18      1.0  0.00000  0.65200  0.65200  1.0000
  Ni  Ni19      1.0  0.65200  0.65200  0.65200  1.0000
  Ni  Ni20      1.0  0.61800  0.23600  0.85400  1.0000
  P   P1        1.0  0.73600  0.00000  0.26400  1.0000
  P   P2        1.0  0.26400  0.52900  0.26400  1.0000
  P   P3        1.0  0.26400  0.00000  0.26400  1.0000
  P   P4        1.0  0.73600  0.47100  0.73600  1.0000
  P   P5        1.0  0.26400  0.00000  0.73600  1.0000
  P   P6        1.0  0.73600  0.00000  0.73600  1.0000
