data_image0
_chemical_formula_structural       K4Np4O11
_chemical_formula_sum              "K4 Np4 O11"
_cell_length_a       6.11761
_cell_length_b       6.12426
_cell_length_c       8.58686
_cell_angle_alpha    90
_cell_angle_beta     90
_cell_angle_gamma    90.1583

_space_group_name_H-M_alt    "P 1"
_space_group_IT_number       1

loop_
  _space_group_symop_operation_xyz
  'x, y, z'

loop_
  _atom_site_type_symbol
  _atom_site_label
  _atom_site_symmetry_multiplicity
  _atom_site_fract_x
  _atom_site_fract_y
  _atom_site_fract_z
  _atom_site_occupancy
  K   K1        1.0  0.00319  0.00622  0.25000  1.0000
  K   K2        1.0  0.49900  0.50500  0.25000  1.0000
  K   K3        1.0  0.49500  0.49600  0.75000  1.0000
  K   K4        1.0  0.00523  0.99600  0.75000  1.0000
  Np  Np1       1.0  0.50200  0.00000  0.00379  1.0000
  Np  Np2       1.0  0.50200  0.00000  0.49600  1.0000
  Np  Np3       1.0  0.99700  0.50000  0.50500  1.0000
  Np  Np4       1.0  0.99700  0.50000  0.99500  1.0000
  O   O1        1.0  0.24000  0.23300  0.00090  1.0000
  O   O2        1.0  0.73800  0.26500  0.03240  1.0000
  O   O3        1.0  0.76300  0.76800  0.03260  1.0000
  O   O4        1.0  0.46700  0.99700  0.25000  1.0000
  O   O5        1.0  0.76300  0.76800  0.46700  1.0000
  O   O6        1.0  0.73800  0.26500  0.46800  1.0000
  O   O7        1.0  0.24000  0.23300  0.49900  1.0000
  O   O8        1.0  0.26600  0.73300  0.50100  1.0000
  O   O9        1.0  0.53100  0.00159  0.75000  1.0000
  O   O10       1.0  0.96000  0.50300  0.75000  1.0000
  O   O11       1.0  0.26600  0.73300  0.99900  1.0000
