data_image0
_chemical_formula_structural       Se16Yb12
_chemical_formula_sum              "Se16 Yb12"
_cell_length_a       14.5133
_cell_length_b       12.116
_cell_length_c       4.24181
_cell_angle_alpha    90
_cell_angle_beta     90
_cell_angle_gamma    90

_space_group_name_H-M_alt    "P 1"
_space_group_IT_number       1

loop_
  _space_group_symop_operation_xyz
  'x, y, z'

loop_
  _atom_site_type_symbol
  _atom_site_label
  _atom_site_symmetry_multiplicity
  _atom_site_fract_x
  _atom_site_fract_y
  _atom_site_fract_z
  _atom_site_occupancy
  Se  Se1       1.0  0.50800  0.14400  0.25000  1.0000
  Se  Se2       1.0  0.00805  0.35600  0.25000  1.0000
  Se  Se3       1.0  0.24700  0.52400  0.25000  1.0000
  Se  Se4       1.0  0.53800  0.61100  0.25000  1.0000
  Se  Se5       1.0  0.27700  0.72600  0.25000  1.0000
  Se  Se6       1.0  0.77700  0.77400  0.25000  1.0000
  Se  Se7       1.0  0.03820  0.88900  0.25000  1.0000
  Se  Se8       1.0  0.74700  0.97600  0.25000  1.0000
  Se  Se9       1.0  0.25300  0.02440  0.75000  1.0000
  Se  Se10      1.0  0.96200  0.11100  0.75000  1.0000
  Se  Se11      1.0  0.22300  0.22600  0.75000  1.0000
  Se  Se12      1.0  0.72300  0.27400  0.75000  1.0000
  Se  Se13      1.0  0.46200  0.38900  0.75000  1.0000
  Se  Se14      1.0  0.75300  0.47600  0.75000  1.0000
  Se  Se15      1.0  0.99200  0.64400  0.75000  1.0000
  Se  Se16      1.0  0.49200  0.85600  0.75000  1.0000
  Yb  Yb1       1.0  0.09770  0.11700  0.25000  1.0000
  Yb  Yb2       1.0  0.85900  0.20300  0.25000  1.0000
  Yb  Yb3       1.0  0.35900  0.29700  0.25000  1.0000
  Yb  Yb4       1.0  0.59800  0.38300  0.25000  1.0000
  Yb  Yb5       1.0  0.89300  0.54500  0.25000  1.0000
  Yb  Yb6       1.0  0.39300  0.95500  0.25000  1.0000
  Yb  Yb7       1.0  0.60700  0.04500  0.75000  1.0000
  Yb  Yb8       1.0  0.10700  0.45500  0.75000  1.0000
  Yb  Yb9       1.0  0.40200  0.61700  0.75000  1.0000
  Yb  Yb10      1.0  0.64100  0.70300  0.75000  1.0000
  Yb  Yb11      1.0  0.14100  0.79700  0.75000  1.0000
  Yb  Yb12      1.0  0.90200  0.88300  0.75000  1.0000
