data_image0
_chemical_formula_structural       Ba4ClO18Os6
_chemical_formula_sum              "Ba4 Cl1 O18 Os6"
_cell_length_a       8.12235
_cell_length_b       8.12235
_cell_length_c       8.12235
_cell_angle_alpha    109.471
_cell_angle_beta     109.471
_cell_angle_gamma    109.471

_space_group_name_H-M_alt    "P 1"
_space_group_IT_number       1

loop_
  _space_group_symop_operation_xyz
  'x, y, z'

loop_
  _atom_site_type_symbol
  _atom_site_label
  _atom_site_symmetry_multiplicity
  _atom_site_fract_x
  _atom_site_fract_y
  _atom_site_fract_z
  _atom_site_occupancy
  Ba  Ba1       1.0  0.37000  0.00000  0.00000  1.0000
  Ba  Ba2       1.0  0.00000  0.37000  0.00000  1.0000
  Ba  Ba3       1.0  0.00000  0.00000  0.37000  1.0000
  Ba  Ba4       1.0  0.63000  0.63000  0.63000  1.0000
  Cl  Cl1       1.0  0.00000  0.00000  0.00000  1.0000
  O   O1        1.0  0.33600  0.33600  0.00000  1.0000
  O   O2        1.0  0.66400  0.66400  0.00000  1.0000
  O   O3        1.0  0.69600  0.34400  0.06840  1.0000
  O   O4        1.0  0.62700  0.93200  0.27600  1.0000
  O   O5        1.0  0.37300  0.64800  0.30400  1.0000
  O   O6        1.0  0.33600  0.00000  0.33600  1.0000
  O   O7        1.0  0.00000  0.33600  0.33600  1.0000
  O   O8        1.0  0.06840  0.69600  0.34400  1.0000
  O   O9        1.0  0.72400  0.65600  0.35200  1.0000
  O   O10       1.0  0.64800  0.30400  0.37300  1.0000
  O   O11       1.0  0.93200  0.27600  0.62700  1.0000
  O   O12       1.0  0.30400  0.37300  0.64800  1.0000
  O   O13       1.0  0.35200  0.72400  0.65600  1.0000
  O   O14       1.0  0.66400  0.00000  0.66400  1.0000
  O   O15       1.0  0.00000  0.66400  0.66400  1.0000
  O   O16       1.0  0.34400  0.06840  0.69600  1.0000
  O   O17       1.0  0.65600  0.35200  0.72400  1.0000
  O   O18       1.0  0.27600  0.62700  0.93200  1.0000
  Os  Os1       1.0  0.50000  0.63400  0.13400  1.0000
  Os  Os2       1.0  0.86600  0.50000  0.36600  1.0000
  Os  Os3       1.0  0.63400  0.13400  0.50000  1.0000
  Os  Os4       1.0  0.36600  0.86600  0.50000  1.0000
  Os  Os5       1.0  0.13400  0.50000  0.63400  1.0000
  Os  Os6       1.0  0.50000  0.36600  0.86600  1.0000
