data_image0
_chemical_formula_structural       Cl16Hg3Tl10
_chemical_formula_sum              "Cl16 Hg3 Tl10"
_cell_length_a       8.54053
_cell_length_b       8.54053
_cell_length_c       13.4861
_cell_angle_alpha    108.46
_cell_angle_beta     108.46
_cell_angle_gamma    90

_space_group_name_H-M_alt    "P 1"
_space_group_IT_number       1

loop_
  _space_group_symop_operation_xyz
  'x, y, z'

loop_
  _atom_site_type_symbol
  _atom_site_label
  _atom_site_symmetry_multiplicity
  _atom_site_fract_x
  _atom_site_fract_y
  _atom_site_fract_z
  _atom_site_occupancy
  Cl  Cl1       1.0  0.67100  0.14900  0.00000  1.0000
  Cl  Cl2       1.0  0.14900  0.32900  0.00000  1.0000
  Cl  Cl3       1.0  0.85100  0.67100  0.00000  1.0000
  Cl  Cl4       1.0  0.32900  0.85100  0.00000  1.0000
  Cl  Cl5       1.0  0.09860  0.09860  0.19700  1.0000
  Cl  Cl6       1.0  0.60400  0.60400  0.20800  1.0000
  Cl  Cl7       1.0  0.51500  0.02470  0.37100  1.0000
  Cl  Cl8       1.0  0.85500  0.34600  0.37100  1.0000
  Cl  Cl9       1.0  0.34600  0.51500  0.37100  1.0000
  Cl  Cl10      1.0  0.02470  0.85500  0.37100  1.0000
  Cl  Cl11      1.0  0.97500  0.14500  0.62900  1.0000
  Cl  Cl12      1.0  0.65400  0.48500  0.62900  1.0000
  Cl  Cl13      1.0  0.14500  0.65400  0.62900  1.0000
  Cl  Cl14      1.0  0.48500  0.97500  0.62900  1.0000
  Cl  Cl15      1.0  0.39600  0.39600  0.79200  1.0000
  Cl  Cl16      1.0  0.90100  0.90100  0.80300  1.0000
  Hg  Hg1       1.0  0.00000  0.00000  0.00000  1.0000
  Hg  Hg2       1.0  0.75000  0.25000  0.50000  1.0000
  Hg  Hg3       1.0  0.25000  0.75000  0.50000  1.0000
  Tl  Tl1       1.0  0.45400  0.26000  0.17800  1.0000
  Tl  Tl2       1.0  0.91800  0.45400  0.17800  1.0000
  Tl  Tl3       1.0  0.26000  0.72400  0.17800  1.0000
  Tl  Tl4       1.0  0.72400  0.91800  0.17800  1.0000
  Tl  Tl5       1.0  0.73700  0.73700  0.47400  1.0000
  Tl  Tl6       1.0  0.26300  0.26300  0.52600  1.0000
  Tl  Tl7       1.0  0.27600  0.08160  0.82200  1.0000
  Tl  Tl8       1.0  0.74000  0.27600  0.82200  1.0000
  Tl  Tl9       1.0  0.08160  0.54600  0.82200  1.0000
  Tl  Tl10      1.0  0.54600  0.74000  0.82200  1.0000
