data_image0
_chemical_formula_structural       Co8N4Zr16
_chemical_formula_sum              "Co8 N4 Zr16"
_cell_length_a       8.61172
_cell_length_b       8.61172
_cell_length_c       8.61172
_cell_angle_alpha    120
_cell_angle_beta     90
_cell_angle_gamma    120

_space_group_name_H-M_alt    "P 1"
_space_group_IT_number       1

loop_
  _space_group_symop_operation_xyz
  'x, y, z'

loop_
  _atom_site_type_symbol
  _atom_site_label
  _atom_site_symmetry_multiplicity
  _atom_site_fract_x
  _atom_site_fract_y
  _atom_site_fract_z
  _atom_site_occupancy
  Co  Co1       1.0  0.71400  0.92800  0.14200  1.0000
  Co  Co2       1.0  0.28600  0.07230  0.21400  1.0000
  Co  Co3       1.0  0.28600  0.42800  0.21400  1.0000
  Co  Co4       1.0  0.64200  0.42800  0.21400  1.0000
  Co  Co5       1.0  0.35800  0.57200  0.78600  1.0000
  Co  Co6       1.0  0.71400  0.57200  0.78600  1.0000
  Co  Co7       1.0  0.71400  0.92800  0.78600  1.0000
  Co  Co8       1.0  0.28600  0.07230  0.85800  1.0000
  N   N1        1.0  0.00000  0.50000  0.00000  1.0000
  N   N2        1.0  0.00000  0.00000  0.50000  1.0000
  N   N3        1.0  0.50000  0.00000  0.50000  1.0000
  N   N4        1.0  0.00000  0.50000  0.50000  1.0000
  Zr  Zr1       1.0  0.00000  0.00000  0.00000  1.0000
  Zr  Zr2       1.0  0.50000  0.00000  0.00000  1.0000
  Zr  Zr3       1.0  0.50000  0.50000  0.00000  1.0000
  Zr  Zr4       1.0  0.31000  0.75000  0.19000  1.0000
  Zr  Zr5       1.0  0.94000  0.37900  0.19000  1.0000
  Zr  Zr6       1.0  0.94000  0.75000  0.19000  1.0000
  Zr  Zr7       1.0  0.06030  0.25000  0.44000  1.0000
  Zr  Zr8       1.0  0.69000  0.25000  0.44000  1.0000
  Zr  Zr9       1.0  0.69000  0.87900  0.44000  1.0000
  Zr  Zr10      1.0  0.50000  0.50000  0.50000  1.0000
  Zr  Zr11      1.0  0.31000  0.12100  0.56000  1.0000
  Zr  Zr12      1.0  0.31000  0.75000  0.56000  1.0000
  Zr  Zr13      1.0  0.94000  0.75000  0.56000  1.0000
  Zr  Zr14      1.0  0.06030  0.25000  0.81000  1.0000
  Zr  Zr15      1.0  0.06030  0.62100  0.81000  1.0000
  Zr  Zr16      1.0  0.69000  0.25000  0.81000  1.0000
