data_image0
_chemical_formula_structural       Ni12O4Ti12
_chemical_formula_sum              "Ni12 O4 Ti12"
_cell_length_a       7.87082
_cell_length_b       7.87082
_cell_length_c       7.87082
_cell_angle_alpha    120
_cell_angle_beta     90
_cell_angle_gamma    120

_space_group_name_H-M_alt    "P 1"
_space_group_IT_number       1

loop_
  _space_group_symop_operation_xyz
  'x, y, z'

loop_
  _atom_site_type_symbol
  _atom_site_label
  _atom_site_symmetry_multiplicity
  _atom_site_fract_x
  _atom_site_fract_y
  _atom_site_fract_z
  _atom_site_occupancy
  Ni  Ni1       1.0  0.37500  0.75000  0.12500  1.0000
  Ni  Ni2       1.0  0.58400  0.16900  0.41600  1.0000
  Ni  Ni3       1.0  0.24700  0.83100  0.41600  1.0000
  Ni  Ni4       1.0  0.58400  0.83100  0.41600  1.0000
  Ni  Ni5       1.0  0.16600  0.33100  0.49700  1.0000
  Ni  Ni6       1.0  0.37500  0.25000  0.62500  1.0000
  Ni  Ni7       1.0  0.87500  0.25000  0.62500  1.0000
  Ni  Ni8       1.0  0.37500  0.75000  0.62500  1.0000
  Ni  Ni9       1.0  0.58400  0.16900  0.75300  1.0000
  Ni  Ni10      1.0  0.16600  0.33100  0.83400  1.0000
  Ni  Ni11      1.0  0.16600  0.66900  0.83400  1.0000
  Ni  Ni12      1.0  0.50300  0.66900  0.83400  1.0000
  O   O1        1.0  0.37500  0.25000  0.12500  1.0000
  O   O2        1.0  0.87500  0.25000  0.12500  1.0000
  O   O3        1.0  0.87500  0.75000  0.12500  1.0000
  O   O4        1.0  0.87500  0.75000  0.62500  1.0000
  Ti  Ti1       1.0  0.93800  0.50000  0.06210  1.0000
  Ti  Ti2       1.0  0.56200  0.12400  0.06210  1.0000
  Ti  Ti3       1.0  0.56200  0.50000  0.06210  1.0000
  Ti  Ti4       1.0  0.81200  0.00000  0.18800  1.0000
  Ti  Ti5       1.0  0.18800  0.00000  0.18800  1.0000
  Ti  Ti6       1.0  0.18800  0.37600  0.18800  1.0000
  Ti  Ti7       1.0  0.56200  0.50000  0.43800  1.0000
  Ti  Ti8       1.0  0.93800  0.50000  0.43800  1.0000
  Ti  Ti9       1.0  0.93800  0.87600  0.43800  1.0000
  Ti  Ti10      1.0  0.18800  0.00000  0.81200  1.0000
  Ti  Ti11      1.0  0.81200  0.00000  0.81200  1.0000
  Ti  Ti12      1.0  0.81200  0.62400  0.81200  1.0000
