data_image0
_chemical_formula_structural       Ga4K4S16Sn4
_chemical_formula_sum              "Ga4 K4 S16 Sn4"
_cell_length_a       7.18941
_cell_length_b       8.02291
_cell_length_c       15.3152
_cell_angle_alpha    84.2338
_cell_angle_beta     87.2425
_cell_angle_gamma    64.6475

_space_group_name_H-M_alt    "P 1"
_space_group_IT_number       1

loop_
  _space_group_symop_operation_xyz
  'x, y, z'

loop_
  _atom_site_type_symbol
  _atom_site_label
  _atom_site_symmetry_multiplicity
  _atom_site_fract_x
  _atom_site_fract_y
  _atom_site_fract_z
  _atom_site_occupancy
  Ga  Ga1       1.0  0.00663  0.23500  0.24000  1.0000
  Ga  Ga2       1.0  0.51000  0.25200  0.26500  1.0000
  Ga  Ga3       1.0  0.49000  0.74800  0.73500  1.0000
  Ga  Ga4       1.0  0.99300  0.76500  0.76000  1.0000
  K   K1        1.0  0.06870  0.78600  0.14100  1.0000
  K   K2        1.0  0.34500  0.81500  0.48400  1.0000
  K   K3        1.0  0.65500  0.18500  0.51600  1.0000
  K   K4        1.0  0.93100  0.21400  0.85900  1.0000
  S   S1        1.0  0.00413  0.23600  0.08770  1.0000
  S   S2        1.0  0.57900  0.83500  0.09590  1.0000
  S   S3        1.0  0.46900  0.38000  0.12200  1.0000
  S   S4        1.0  0.85100  0.54200  0.27000  1.0000
  S   S5        1.0  0.33100  0.07850  0.29700  1.0000
  S   S6        1.0  0.84200  0.06570  0.30300  1.0000
  S   S7        1.0  0.39200  0.50500  0.35200  1.0000
  S   S8        1.0  0.89500  0.74700  0.49100  1.0000
  S   S9        1.0  0.10500  0.25300  0.50900  1.0000
  S   S10       1.0  0.60800  0.49500  0.64800  1.0000
  S   S11       1.0  0.15800  0.93400  0.69700  1.0000
  S   S12       1.0  0.66900  0.92100  0.70300  1.0000
  S   S13       1.0  0.14900  0.45800  0.73000  1.0000
  S   S14       1.0  0.53100  0.62000  0.87800  1.0000
  S   S15       1.0  0.42100  0.16500  0.90400  1.0000
  S   S16       1.0  0.99600  0.76400  0.91200  1.0000
  Sn  Sn1       1.0  0.36100  0.16800  0.06350  1.0000
  Sn  Sn2       1.0  0.06770  0.49800  0.39200  1.0000
  Sn  Sn3       1.0  0.93200  0.50200  0.60800  1.0000
  Sn  Sn4       1.0  0.63900  0.83200  0.93600  1.0000
