data_image0
_chemical_formula_structural       Br2CoH12O14
_chemical_formula_sum              "Br2 Co1 H12 O14"
_cell_length_a       7.69167
_cell_length_b       7.70275
_cell_length_c       5.26111
_cell_angle_alpha    90
_cell_angle_beta     89.7123
_cell_angle_gamma    120.048

_space_group_name_H-M_alt    "P 1"
_space_group_IT_number       1

loop_
  _space_group_symop_operation_xyz
  'x, y, z'

loop_
  _atom_site_type_symbol
  _atom_site_label
  _atom_site_symmetry_multiplicity
  _atom_site_fract_x
  _atom_site_fract_y
  _atom_site_fract_z
  _atom_site_occupancy
  Br  Br1       1.0  0.66700  0.33300  0.33200  1.0000
  Br  Br2       1.0  0.33300  0.66700  0.66800  1.0000
  Co  Co1       1.0  0.00000  0.00000  0.00000  1.0000
  H   H1        1.0  0.27400  0.93200  0.22700  1.0000
  H   H2        1.0  0.27400  0.34100  0.22700  1.0000
  H   H3        1.0  0.06730  0.72700  0.22800  1.0000
  H   H4        1.0  0.06730  0.34100  0.22800  1.0000
  H   H5        1.0  0.65800  0.72600  0.22800  1.0000
  H   H6        1.0  0.65800  0.93200  0.22800  1.0000
  H   H7        1.0  0.34200  0.27400  0.77200  1.0000
  H   H8        1.0  0.34200  0.06820  0.77200  1.0000
  H   H9        1.0  0.93300  0.65900  0.77200  1.0000
  H   H10       1.0  0.93300  0.27300  0.77200  1.0000
  H   H11       1.0  0.72600  0.65900  0.77300  1.0000
  H   H12       1.0  0.72600  0.06780  0.77300  1.0000
  O   O1        1.0  0.55100  0.10200  0.22200  1.0000
  O   O2        1.0  0.55100  0.44900  0.22200  1.0000
  O   O3        1.0  0.90000  0.45000  0.22200  1.0000
  O   O4        1.0  0.12700  0.87300  0.22700  1.0000
  O   O5        1.0  0.12700  0.25400  0.22700  1.0000
  O   O6        1.0  0.74500  0.87300  0.22800  1.0000
  O   O7        1.0  0.33400  0.66700  0.35600  1.0000
  O   O8        1.0  0.66600  0.33300  0.64400  1.0000
  O   O9        1.0  0.25500  0.12700  0.77200  1.0000
  O   O10       1.0  0.87300  0.12700  0.77300  1.0000
  O   O11       1.0  0.87300  0.74600  0.77300  1.0000
  O   O12       1.0  0.10000  0.55000  0.77800  1.0000
  O   O13       1.0  0.44900  0.55100  0.77800  1.0000
  O   O14       1.0  0.44900  0.89800  0.77800  1.0000
