data_image0
_chemical_formula_structural       K6La2O16P4
_chemical_formula_sum              "K6 La2 O16 P4"
_cell_length_a       9.60753
_cell_length_b       5.62961
_cell_length_c       7.43089
_cell_angle_alpha    90
_cell_angle_beta     90.92
_cell_angle_gamma    90

_space_group_name_H-M_alt    "P 1"
_space_group_IT_number       1

loop_
  _space_group_symop_operation_xyz
  'x, y, z'

loop_
  _atom_site_type_symbol
  _atom_site_label
  _atom_site_symmetry_multiplicity
  _atom_site_fract_x
  _atom_site_fract_y
  _atom_site_fract_z
  _atom_site_occupancy
  K   K1        1.0  0.58500  0.25000  0.20300  1.0000
  K   K2        1.0  0.09630  0.75000  0.36200  1.0000
  K   K3        1.0  0.30900  0.25000  0.48900  1.0000
  K   K4        1.0  0.69100  0.75000  0.51100  1.0000
  K   K5        1.0  0.90400  0.25000  0.63800  1.0000
  K   K6        1.0  0.41500  0.75000  0.79700  1.0000
  La  La1       1.0  0.79300  0.75000  0.00959  1.0000
  La  La2       1.0  0.20700  0.25000  0.99000  1.0000
  O   O1        1.0  0.06110  0.75000  0.00322  1.0000
  O   O2        1.0  0.34500  0.52500  0.15600  1.0000
  O   O3        1.0  0.34500  0.97500  0.15600  1.0000
  O   O4        1.0  0.57200  0.75000  0.18500  1.0000
  O   O5        1.0  0.84700  0.02450  0.26700  1.0000
  O   O6        1.0  0.84700  0.47600  0.26700  1.0000
  O   O7        1.0  0.07660  0.25000  0.28700  1.0000
  O   O8        1.0  0.40000  0.75000  0.44300  1.0000
  O   O9        1.0  0.60000  0.25000  0.55700  1.0000
  O   O10       1.0  0.92300  0.75000  0.71300  1.0000
  O   O11       1.0  0.15300  0.52400  0.73300  1.0000
  O   O12       1.0  0.15300  0.97600  0.73300  1.0000
  O   O13       1.0  0.42800  0.25000  0.81500  1.0000
  O   O14       1.0  0.65500  0.02550  0.84400  1.0000
  O   O15       1.0  0.65500  0.47500  0.84400  1.0000
  O   O16       1.0  0.93900  0.25000  0.99700  1.0000
  P   P1        1.0  0.92600  0.25000  0.20500  1.0000
  P   P2        1.0  0.41600  0.75000  0.23800  1.0000
  P   P3        1.0  0.58400  0.25000  0.76200  1.0000
  P   P4        1.0  0.07370  0.75000  0.79500  1.0000
