data_image0
_chemical_formula_structural       Ir4Li4O11
_chemical_formula_sum              "Ir4 Li4 O11"
_cell_length_a       5.02526
_cell_length_b       5.16846
_cell_length_c       7.29981
_cell_angle_alpha    90
_cell_angle_beta     90
_cell_angle_gamma    90.0709

_space_group_name_H-M_alt    "P 1"
_space_group_IT_number       1

loop_
  _space_group_symop_operation_xyz
  'x, y, z'

loop_
  _atom_site_type_symbol
  _atom_site_label
  _atom_site_symmetry_multiplicity
  _atom_site_fract_x
  _atom_site_fract_y
  _atom_site_fract_z
  _atom_site_occupancy
  Ir  Ir1       1.0  0.50100  0.99800  0.00041  1.0000
  Ir  Ir2       1.0  0.99700  0.49800  0.00344  1.0000
  Ir  Ir3       1.0  0.99700  0.49800  0.49700  1.0000
  Ir  Ir4       1.0  0.50100  0.99800  0.50000  1.0000
  Li  Li1       1.0  0.99400  0.03920  0.25000  1.0000
  Li  Li2       1.0  0.50400  0.56300  0.25000  1.0000
  Li  Li3       1.0  0.50700  0.45500  0.75000  1.0000
  Li  Li4       1.0  0.99400  0.96000  0.75000  1.0000
  O   O1        1.0  0.82900  0.82200  0.07170  1.0000
  O   O2        1.0  0.67400  0.32200  0.07550  1.0000
  O   O3        1.0  0.35800  0.93200  0.25000  1.0000
  O   O4        1.0  0.67400  0.32200  0.42500  1.0000
  O   O5        1.0  0.82900  0.82200  0.42800  1.0000
  O   O6        1.0  0.16700  0.17200  0.56000  1.0000
  O   O7        1.0  0.33500  0.66500  0.56000  1.0000
  O   O8        1.0  0.63200  0.07890  0.75000  1.0000
  O   O9        1.0  0.87000  0.58400  0.75000  1.0000
  O   O10       1.0  0.33500  0.66500  0.94000  1.0000
  O   O11       1.0  0.16700  0.17200  0.94000  1.0000
