data_image0
_chemical_formula_structural       Al16Au8Gd2Si2
_chemical_formula_sum              "Al16 Au8 Gd2 Si2"
_cell_length_a       6.02175
_cell_length_b       6.02175
_cell_length_c       15.0627
_cell_angle_alpha    101.53
_cell_angle_beta     101.53
_cell_angle_gamma    90

_space_group_name_H-M_alt    "P 1"
_space_group_IT_number       1

loop_
  _space_group_symop_operation_xyz
  'x, y, z'

loop_
  _atom_site_type_symbol
  _atom_site_label
  _atom_site_symmetry_multiplicity
  _atom_site_fract_x
  _atom_site_fract_y
  _atom_site_fract_z
  _atom_site_occupancy
  Al  Al1       1.0  0.30200  0.30200  0.10500  1.0000
  Al  Al2       1.0  0.80300  0.30200  0.10500  1.0000
  Al  Al3       1.0  0.30200  0.80300  0.10500  1.0000
  Al  Al4       1.0  0.80300  0.80300  0.10500  1.0000
  Al  Al5       1.0  0.40600  0.40600  0.31500  1.0000
  Al  Al6       1.0  0.90900  0.40600  0.31500  1.0000
  Al  Al7       1.0  0.40600  0.90900  0.31500  1.0000
  Al  Al8       1.0  0.90900  0.90900  0.31500  1.0000
  Al  Al9       1.0  0.09090  0.09090  0.68500  1.0000
  Al  Al10      1.0  0.59400  0.09090  0.68500  1.0000
  Al  Al11      1.0  0.09090  0.59400  0.68500  1.0000
  Al  Al12      1.0  0.59400  0.59400  0.68500  1.0000
  Al  Al13      1.0  0.19700  0.19700  0.89500  1.0000
  Al  Al14      1.0  0.69800  0.19700  0.89500  1.0000
  Al  Al15      1.0  0.19700  0.69800  0.89500  1.0000
  Al  Al16      1.0  0.69800  0.69800  0.89500  1.0000
  Au  Au1       1.0  0.00000  0.00000  0.00000  1.0000
  Au  Au2       1.0  0.50000  0.50000  0.00000  1.0000
  Au  Au3       1.0  0.60500  0.10500  0.21100  1.0000
  Au  Au4       1.0  0.10500  0.60500  0.21100  1.0000
  Au  Au5       1.0  0.70800  0.70800  0.41500  1.0000
  Au  Au6       1.0  0.29200  0.29200  0.58500  1.0000
  Au  Au7       1.0  0.89500  0.39500  0.78900  1.0000
  Au  Au8       1.0  0.39500  0.89500  0.78900  1.0000
  Gd  Gd1       1.0  0.75000  0.25000  0.50000  1.0000
  Gd  Gd2       1.0  0.25000  0.75000  0.50000  1.0000
  Si  Si1       1.0  0.20800  0.20800  0.41600  1.0000
  Si  Si2       1.0  0.79200  0.79200  0.58400  1.0000
