data_image0
_chemical_formula_structural       Cu4Nb2Nd2O16Sr4
_chemical_formula_sum              "Cu4 Nb2 Nd2 O16 Sr4"
_cell_length_a       5.48488
_cell_length_b       5.48488
_cell_length_c       12.3264
_cell_angle_alpha    102.855
_cell_angle_beta     102.855
_cell_angle_gamma    90

_space_group_name_H-M_alt    "P 1"
_space_group_IT_number       1

loop_
  _space_group_symop_operation_xyz
  'x, y, z'

loop_
  _atom_site_type_symbol
  _atom_site_label
  _atom_site_symmetry_multiplicity
  _atom_site_fract_x
  _atom_site_fract_y
  _atom_site_fract_z
  _atom_site_occupancy
  Cu  Cu1       1.0  0.17800  0.17800  0.35600  1.0000
  Cu  Cu2       1.0  0.67800  0.67800  0.35600  1.0000
  Cu  Cu3       1.0  0.32200  0.32200  0.64400  1.0000
  Cu  Cu4       1.0  0.82200  0.82200  0.64400  1.0000
  Nb  Nb1       1.0  0.00000  0.00000  0.00000  1.0000
  Nb  Nb2       1.0  0.50000  0.50000  0.00000  1.0000
  Nd  Nd1       1.0  0.75000  0.25000  0.50000  1.0000
  Nd  Nd2       1.0  0.25000  0.75000  0.50000  1.0000
  O   O1        1.0  0.67800  0.17800  0.00000  1.0000
  O   O2        1.0  0.17800  0.32200  0.00000  1.0000
  O   O3        1.0  0.82200  0.67800  0.00000  1.0000
  O   O4        1.0  0.32200  0.82200  0.00000  1.0000
  O   O5        1.0  0.08430  0.08430  0.16900  1.0000
  O   O6        1.0  0.58400  0.58400  0.16900  1.0000
  O   O7        1.0  0.44000  0.42800  0.36900  1.0000
  O   O8        1.0  0.94000  0.44000  0.36900  1.0000
  O   O9        1.0  0.42800  0.92800  0.36900  1.0000
  O   O10       1.0  0.92800  0.94000  0.36900  1.0000
  O   O11       1.0  0.07180  0.05970  0.63100  1.0000
  O   O12       1.0  0.57200  0.07180  0.63100  1.0000
  O   O13       1.0  0.05970  0.56000  0.63100  1.0000
  O   O14       1.0  0.56000  0.57200  0.63100  1.0000
  O   O15       1.0  0.41600  0.41600  0.83100  1.0000
  O   O16       1.0  0.91600  0.91600  0.83100  1.0000
  Sr  Sr1       1.0  0.60000  0.09960  0.19900  1.0000
  Sr  Sr2       1.0  0.09960  0.60000  0.19900  1.0000
  Sr  Sr3       1.0  0.90000  0.40000  0.80100  1.0000
  Sr  Sr4       1.0  0.40000  0.90000  0.80100  1.0000
