data_image0
_chemical_formula_structural       Li4Mn4Nb4O16
_chemical_formula_sum              "Li4 Mn4 Nb4 O16"
_cell_length_a       6.19896
_cell_length_b       6.19896
_cell_length_c       8.49427
_cell_angle_alpha    90
_cell_angle_beta     90
_cell_angle_gamma    90

_space_group_name_H-M_alt    "P 1"
_space_group_IT_number       1

loop_
  _space_group_symop_operation_xyz
  'x, y, z'

loop_
  _atom_site_type_symbol
  _atom_site_label
  _atom_site_symmetry_multiplicity
  _atom_site_fract_x
  _atom_site_fract_y
  _atom_site_fract_z
  _atom_site_occupancy
  Li  Li1       1.0  0.00000  0.22500  0.00000  1.0000
  Li  Li2       1.0  0.22500  0.00000  0.25000  1.0000
  Li  Li3       1.0  0.00000  0.77500  0.50000  1.0000
  Li  Li4       1.0  0.77500  0.00000  0.75000  1.0000
  Mn  Mn1       1.0  0.74600  0.74600  0.12500  1.0000
  Mn  Mn2       1.0  0.74600  0.25400  0.37500  1.0000
  Mn  Mn3       1.0  0.25400  0.25400  0.62500  1.0000
  Mn  Mn4       1.0  0.25400  0.74600  0.87500  1.0000
  Nb  Nb1       1.0  0.50000  0.21900  0.00000  1.0000
  Nb  Nb2       1.0  0.21900  0.50000  0.25000  1.0000
  Nb  Nb3       1.0  0.50000  0.78100  0.50000  1.0000
  Nb  Nb4       1.0  0.78100  0.50000  0.75000  1.0000
  O   O1        1.0  0.73800  0.02630  0.00126  1.0000
  O   O2        1.0  0.26700  0.48100  0.01640  1.0000
  O   O3        1.0  0.48100  0.26700  0.23400  1.0000
  O   O4        1.0  0.02630  0.73800  0.24900  1.0000
  O   O5        1.0  0.02630  0.26200  0.25100  1.0000
  O   O6        1.0  0.48100  0.73300  0.26600  1.0000
  O   O7        1.0  0.26700  0.51900  0.48400  1.0000
  O   O8        1.0  0.73800  0.97400  0.49900  1.0000
  O   O9        1.0  0.26200  0.97400  0.50100  1.0000
  O   O10       1.0  0.73300  0.51900  0.51600  1.0000
  O   O11       1.0  0.51900  0.73300  0.73400  1.0000
  O   O12       1.0  0.97400  0.26200  0.74900  1.0000
  O   O13       1.0  0.97400  0.73800  0.75100  1.0000
  O   O14       1.0  0.51900  0.26700  0.76600  1.0000
  O   O15       1.0  0.73300  0.48100  0.98400  1.0000
  O   O16       1.0  0.26200  0.02630  0.99900  1.0000
