data_image0
_chemical_formula_structural       Cu8Hf4S12
_chemical_formula_sum              "Cu8 Hf4 S12"
_cell_length_a       10.6685
_cell_length_b       6.25936
_cell_length_c       6.49462
_cell_angle_alpha    90
_cell_angle_beta     92.5979
_cell_angle_gamma    90

_space_group_name_H-M_alt    "P 1"
_space_group_IT_number       1

loop_
  _space_group_symop_operation_xyz
  'x, y, z'

loop_
  _atom_site_type_symbol
  _atom_site_label
  _atom_site_symmetry_multiplicity
  _atom_site_fract_x
  _atom_site_fract_y
  _atom_site_fract_z
  _atom_site_occupancy
  Cu  Cu1       1.0  0.53300  0.29900  0.02260  1.0000
  Cu  Cu2       1.0  0.20800  0.13400  0.04220  1.0000
  Cu  Cu3       1.0  0.29200  0.63400  0.45800  1.0000
  Cu  Cu4       1.0  0.96700  0.79900  0.47700  1.0000
  Cu  Cu5       1.0  0.03320  0.20100  0.52300  1.0000
  Cu  Cu6       1.0  0.70800  0.36600  0.54200  1.0000
  Cu  Cu7       1.0  0.79200  0.86600  0.95800  1.0000
  Cu  Cu8       1.0  0.46700  0.70100  0.97700  1.0000
  Hf  Hf1       1.0  0.83300  0.41800  0.02550  1.0000
  Hf  Hf2       1.0  0.66700  0.91800  0.47500  1.0000
  Hf  Hf3       1.0  0.33300  0.08180  0.52600  1.0000
  Hf  Hf4       1.0  0.16700  0.58200  0.97500  1.0000
  S   S1        1.0  0.97700  0.72900  0.13500  1.0000
  S   S2        1.0  0.65400  0.67800  0.15700  1.0000
  S   S3        1.0  0.31200  0.83800  0.16000  1.0000
  S   S4        1.0  0.18800  0.33800  0.34000  1.0000
  S   S5        1.0  0.84600  0.17800  0.34300  1.0000
  S   S6        1.0  0.52300  0.22900  0.36500  1.0000
  S   S7        1.0  0.47700  0.77100  0.63500  1.0000
  S   S8        1.0  0.15400  0.82200  0.65700  1.0000
  S   S9        1.0  0.81200  0.66200  0.66000  1.0000
  S   S10       1.0  0.68800  0.16200  0.84000  1.0000
  S   S11       1.0  0.34600  0.32200  0.84300  1.0000
  S   S12       1.0  0.02260  0.27100  0.86500  1.0000
