data_image0
_chemical_formula_structural       Nd4O11V4
_chemical_formula_sum              "Nd4 O11 V4"
_cell_length_a       5.44527
_cell_length_b       5.67588
_cell_length_c       7.72737
_cell_angle_alpha    90
_cell_angle_beta     90
_cell_angle_gamma    90.6549

_space_group_name_H-M_alt    "P 1"
_space_group_IT_number       1

loop_
  _space_group_symop_operation_xyz
  'x, y, z'

loop_
  _atom_site_type_symbol
  _atom_site_label
  _atom_site_symmetry_multiplicity
  _atom_site_fract_x
  _atom_site_fract_y
  _atom_site_fract_z
  _atom_site_occupancy
  Nd  Nd1       1.0  0.98800  0.05550  0.25000  1.0000
  Nd  Nd2       1.0  0.51900  0.55700  0.25000  1.0000
  Nd  Nd3       1.0  0.48500  0.44600  0.75000  1.0000
  Nd  Nd4       1.0  0.01240  0.94000  0.75000  1.0000
  O   O1        1.0  0.70100  0.29500  0.04890  1.0000
  O   O2        1.0  0.80100  0.79100  0.05050  1.0000
  O   O3        1.0  0.40700  0.97500  0.25000  1.0000
  O   O4        1.0  0.80100  0.79100  0.45000  1.0000
  O   O5        1.0  0.70100  0.29500  0.45100  1.0000
  O   O6        1.0  0.30100  0.70100  0.54200  1.0000
  O   O7        1.0  0.19600  0.20800  0.54300  1.0000
  O   O8        1.0  0.59000  0.02690  0.75000  1.0000
  O   O9        1.0  0.90300  0.53100  0.75000  1.0000
  O   O10       1.0  0.19600  0.20800  0.95700  1.0000
  O   O11       1.0  0.30100  0.70100  0.95800  1.0000
  V   V1        1.0  0.50000  0.00068  0.00113  1.0000
  V   V2        1.0  0.00000  0.50100  0.00882  1.0000
  V   V3        1.0  0.00000  0.50100  0.49100  1.0000
  V   V4        1.0  0.50000  0.00068  0.49900  1.0000
