data_image0
_chemical_formula_structural       Be15Cu8Ta6
_chemical_formula_sum              "Be15 Cu8 Ta6"
_cell_length_a       7.63204
_cell_length_b       7.63204
_cell_length_c       7.63204
_cell_angle_alpha    120
_cell_angle_beta     90
_cell_angle_gamma    120

_space_group_name_H-M_alt    "P 1"
_space_group_IT_number       1

loop_
  _space_group_symop_operation_xyz
  'x, y, z'

loop_
  _atom_site_type_symbol
  _atom_site_label
  _atom_site_symmetry_multiplicity
  _atom_site_fract_x
  _atom_site_fract_y
  _atom_site_fract_z
  _atom_site_occupancy
  Be  Be1       1.0  0.50000  0.00000  0.00000  1.0000
  Be  Be2       1.0  0.00000  0.50000  0.00000  1.0000
  Be  Be3       1.0  0.50000  0.50000  0.00000  1.0000
  Be  Be4       1.0  0.51900  0.34600  0.17300  1.0000
  Be  Be5       1.0  0.82700  0.34600  0.17300  1.0000
  Be  Be6       1.0  0.82700  0.65400  0.17300  1.0000
  Be  Be7       1.0  0.82700  0.65400  0.48100  1.0000
  Be  Be8       1.0  0.50000  0.00000  0.50000  1.0000
  Be  Be9       1.0  0.00000  0.00000  0.50000  1.0000
  Be  Be10      1.0  0.00000  0.50000  0.50000  1.0000
  Be  Be11      1.0  0.50000  0.50000  0.50000  1.0000
  Be  Be12      1.0  0.17300  0.34600  0.51900  1.0000
  Be  Be13      1.0  0.17300  0.34600  0.82700  1.0000
  Be  Be14      1.0  0.17300  0.65400  0.82700  1.0000
  Be  Be15      1.0  0.48100  0.65400  0.82700  1.0000
  Cu  Cu1       1.0  0.37700  0.75400  0.13100  1.0000
  Cu  Cu2       1.0  0.62300  0.24600  0.37700  1.0000
  Cu  Cu3       1.0  0.13100  0.75400  0.37700  1.0000
  Cu  Cu4       1.0  0.62300  0.75400  0.37700  1.0000
  Cu  Cu5       1.0  0.37700  0.24600  0.62300  1.0000
  Cu  Cu6       1.0  0.86900  0.24600  0.62300  1.0000
  Cu  Cu7       1.0  0.37700  0.75400  0.62300  1.0000
  Cu  Cu8       1.0  0.62300  0.24600  0.86900  1.0000
  Ta  Ta1       1.0  0.19200  0.00000  0.19200  1.0000
  Ta  Ta2       1.0  0.19200  0.38400  0.19200  1.0000
  Ta  Ta3       1.0  0.80800  0.00000  0.19200  1.0000
  Ta  Ta4       1.0  0.19200  0.00000  0.80800  1.0000
  Ta  Ta5       1.0  0.80800  0.00000  0.80800  1.0000
  Ta  Ta6       1.0  0.80800  0.61600  0.80800  1.0000
