data_image0
_chemical_formula_structural       Co18Ga8Nd2
_chemical_formula_sum              "Co18 Ga8 Nd2"
_cell_length_a       7.96985
_cell_length_b       7.96985
_cell_length_c       8.1263
_cell_angle_alpha    119.365
_cell_angle_beta     119.365
_cell_angle_gamma    90

_space_group_name_H-M_alt    "P 1"
_space_group_IT_number       1

loop_
  _space_group_symop_operation_xyz
  'x, y, z'

loop_
  _atom_site_type_symbol
  _atom_site_label
  _atom_site_symmetry_multiplicity
  _atom_site_fract_x
  _atom_site_fract_y
  _atom_site_fract_z
  _atom_site_occupancy
  Co  Co1       1.0  0.50000  0.00000  0.00000  1.0000
  Co  Co2       1.0  0.19800  0.06190  0.00000  1.0000
  Co  Co3       1.0  0.93800  0.19800  0.00000  1.0000
  Co  Co4       1.0  0.43800  0.30200  0.00000  1.0000
  Co  Co5       1.0  0.69800  0.43800  0.00000  1.0000
  Co  Co6       1.0  0.00000  0.50000  0.00000  1.0000
  Co  Co7       1.0  0.30200  0.56200  0.00000  1.0000
  Co  Co8       1.0  0.56200  0.69800  0.00000  1.0000
  Co  Co9       1.0  0.06190  0.80200  0.00000  1.0000
  Co  Co10      1.0  0.80200  0.93800  0.00000  1.0000
  Co  Co11      1.0  0.78900  0.06020  0.34900  1.0000
  Co  Co12      1.0  0.56000  0.28900  0.34900  1.0000
  Co  Co13      1.0  0.06020  0.56000  0.34900  1.0000
  Co  Co14      1.0  0.28900  0.78900  0.34900  1.0000
  Co  Co15      1.0  0.71100  0.21100  0.65100  1.0000
  Co  Co16      1.0  0.94000  0.44000  0.65100  1.0000
  Co  Co17      1.0  0.44000  0.71100  0.65100  1.0000
  Co  Co18      1.0  0.21100  0.94000  0.65100  1.0000
  Ga  Ga1       1.0  0.80500  0.30500  0.25200  1.0000
  Ga  Ga2       1.0  0.30500  0.44700  0.25200  1.0000
  Ga  Ga3       1.0  0.94700  0.80500  0.25200  1.0000
  Ga  Ga4       1.0  0.44700  0.94700  0.25200  1.0000
  Ga  Ga5       1.0  0.55300  0.05320  0.74800  1.0000
  Ga  Ga6       1.0  0.05320  0.19500  0.74800  1.0000
  Ga  Ga7       1.0  0.69500  0.55300  0.74800  1.0000
  Ga  Ga8       1.0  0.19500  0.69500  0.74800  1.0000
  Nd  Nd1       1.0  0.25000  0.25000  0.50000  1.0000
  Nd  Nd2       1.0  0.75000  0.75000  0.50000  1.0000
