data_image0
_chemical_formula_structural       La4O11V4
_chemical_formula_sum              "La4 O11 V4"
_cell_length_a       5.5389
_cell_length_b       5.61936
_cell_length_c       7.94747
_cell_angle_alpha    90.01
_cell_angle_beta     89.906
_cell_angle_gamma    91.6589

_space_group_name_H-M_alt    "P 1"
_space_group_IT_number       1

loop_
  _space_group_symop_operation_xyz
  'x, y, z'

loop_
  _atom_site_type_symbol
  _atom_site_label
  _atom_site_symmetry_multiplicity
  _atom_site_fract_x
  _atom_site_fract_y
  _atom_site_fract_z
  _atom_site_occupancy
  La  La1       1.0  0.50700  0.55600  0.24800  1.0000
  La  La2       1.0  0.00751  0.03260  0.25500  1.0000
  La  La3       1.0  0.47800  0.46300  0.74400  1.0000
  La  La4       1.0  0.00973  0.95200  0.75600  1.0000
  O   O1        1.0  0.80100  0.78300  0.04950  1.0000
  O   O2        1.0  0.08230  0.47500  0.24600  1.0000
  O   O3        1.0  0.42600  0.98500  0.25600  1.0000
  O   O4        1.0  0.70400  0.29600  0.44800  1.0000
  O   O5        1.0  0.79600  0.78600  0.45500  1.0000
  O   O6        1.0  0.29000  0.70900  0.53700  1.0000
  O   O7        1.0  0.19900  0.21200  0.54700  1.0000
  O   O8        1.0  0.58900  0.02790  0.74300  1.0000
  O   O9        1.0  0.90600  0.51400  0.75600  1.0000
  O   O10       1.0  0.30100  0.70100  0.95400  1.0000
  O   O11       1.0  0.19500  0.20900  0.96000  1.0000
  V   V1        1.0  0.99800  0.49400  0.00000  1.0000
  V   V2        1.0  0.99400  0.49700  0.50000  1.0000
  V   V3        1.0  0.50300  0.00500  0.50200  1.0000
  V   V4        1.0  0.51100  0.01130  0.00000  1.0000
