data_image0
_chemical_formula_structural       Ce2Co18Ga8
_chemical_formula_sum              "Ce2 Co18 Ga8"
_cell_length_a       8.00104
_cell_length_b       8.00104
_cell_length_c       8.15795
_cell_angle_alpha    119.366
_cell_angle_beta     119.366
_cell_angle_gamma    90

_space_group_name_H-M_alt    "P 1"
_space_group_IT_number       1

loop_
  _space_group_symop_operation_xyz
  'x, y, z'

loop_
  _atom_site_type_symbol
  _atom_site_label
  _atom_site_symmetry_multiplicity
  _atom_site_fract_x
  _atom_site_fract_y
  _atom_site_fract_z
  _atom_site_occupancy
  Ce  Ce1       1.0  0.25000  0.25000  0.50000  1.0000
  Ce  Ce2       1.0  0.75000  0.75000  0.50000  1.0000
  Co  Co1       1.0  0.50000  0.00000  0.00000  1.0000
  Co  Co2       1.0  0.19900  0.06110  0.00000  1.0000
  Co  Co3       1.0  0.93900  0.19900  0.00000  1.0000
  Co  Co4       1.0  0.43900  0.30100  0.00000  1.0000
  Co  Co5       1.0  0.69900  0.43900  0.00000  1.0000
  Co  Co6       1.0  0.00000  0.50000  0.00000  1.0000
  Co  Co7       1.0  0.30100  0.56100  0.00000  1.0000
  Co  Co8       1.0  0.56100  0.69900  0.00000  1.0000
  Co  Co9       1.0  0.06110  0.80100  0.00000  1.0000
  Co  Co10      1.0  0.80100  0.93900  0.00000  1.0000
  Co  Co11      1.0  0.78700  0.06160  0.34900  1.0000
  Co  Co12      1.0  0.56200  0.28700  0.34900  1.0000
  Co  Co13      1.0  0.06160  0.56200  0.34900  1.0000
  Co  Co14      1.0  0.28700  0.78700  0.34900  1.0000
  Co  Co15      1.0  0.71300  0.21300  0.65100  1.0000
  Co  Co16      1.0  0.93800  0.43800  0.65100  1.0000
  Co  Co17      1.0  0.43800  0.71300  0.65100  1.0000
  Co  Co18      1.0  0.21300  0.93800  0.65100  1.0000
  Ga  Ga1       1.0  0.80600  0.30600  0.25100  1.0000
  Ga  Ga2       1.0  0.30600  0.44500  0.25100  1.0000
  Ga  Ga3       1.0  0.94500  0.80600  0.25100  1.0000
  Ga  Ga4       1.0  0.44500  0.94500  0.25100  1.0000
  Ga  Ga5       1.0  0.55500  0.05460  0.74900  1.0000
  Ga  Ga6       1.0  0.05460  0.19400  0.74900  1.0000
  Ga  Ga7       1.0  0.69400  0.55500  0.74900  1.0000
  Ga  Ga8       1.0  0.19400  0.69400  0.74900  1.0000
