data_image0
_chemical_formula_structural       Cl14N4Sb2Se6
_chemical_formula_sum              "Cl14 N4 Sb2 Se6"
_cell_length_a       7.17782
_cell_length_b       7.20856
_cell_length_c       15.5065
_cell_angle_alpha    89.5924
_cell_angle_beta     85.7664
_cell_angle_gamma    67.9225

_space_group_name_H-M_alt    "P 1"
_space_group_IT_number       1

loop_
  _space_group_symop_operation_xyz
  'x, y, z'

loop_
  _atom_site_type_symbol
  _atom_site_label
  _atom_site_symmetry_multiplicity
  _atom_site_fract_x
  _atom_site_fract_y
  _atom_site_fract_z
  _atom_site_occupancy
  Cl  Cl1       1.0  0.73100  0.33100  0.00528  1.0000
  Cl  Cl2       1.0  0.23600  0.16300  0.01170  1.0000
  Cl  Cl3       1.0  0.96900  0.98800  0.15600  1.0000
  Cl  Cl4       1.0  0.42600  0.43100  0.22100  1.0000
  Cl  Cl5       1.0  0.81300  0.19900  0.37600  1.0000
  Cl  Cl6       1.0  0.25500  0.23600  0.42600  1.0000
  Cl  Cl7       1.0  0.19400  0.78700  0.44500  1.0000
  Cl  Cl8       1.0  0.82000  0.46300  0.55500  1.0000
  Cl  Cl9       1.0  0.76600  0.01140  0.57400  1.0000
  Cl  Cl10      1.0  0.20100  0.05480  0.62600  1.0000
  Cl  Cl11      1.0  0.65300  0.63500  0.78900  1.0000
  Cl  Cl12      1.0  0.03380  0.02060  0.84300  1.0000
  Cl  Cl13      1.0  0.76200  0.84600  0.98700  1.0000
  Cl  Cl14      1.0  0.26700  0.67800  0.99200  1.0000
  N   N1        1.0  0.49300  0.84600  0.25600  1.0000
  N   N2        1.0  0.89000  0.62000  0.29200  1.0000
  N   N3        1.0  0.15200  0.54200  0.70800  1.0000
  N   N4        1.0  0.44300  0.30500  0.81500  1.0000
  Sb  Sb1       1.0  0.99900  0.00353  0.00000  1.0000
  Sb  Sb2       1.0  0.01190  0.12300  0.49900  1.0000
  Se  Se1       1.0  0.53900  0.67500  0.17100  1.0000
  Se  Se2       1.0  0.90600  0.50100  0.19200  1.0000
  Se  Se3       1.0  0.67000  0.80600  0.33700  1.0000
  Se  Se4       1.0  0.35800  0.52300  0.63600  1.0000
  Se  Se5       1.0  0.61300  0.35200  0.74000  1.0000
  Se  Se6       1.0  0.17600  0.43700  0.81000  1.0000
