data_image0
_chemical_formula_structural       Cs2K4La2O16V4
_chemical_formula_sum              "Cs2 K4 La2 O16 V4"
_cell_length_a       10.0167
_cell_length_b       5.97978
_cell_length_c       7.78409
_cell_angle_alpha    90
_cell_angle_beta     91.0364
_cell_angle_gamma    90

_space_group_name_H-M_alt    "P 1"
_space_group_IT_number       1

loop_
  _space_group_symop_operation_xyz
  'x, y, z'

loop_
  _atom_site_type_symbol
  _atom_site_label
  _atom_site_symmetry_multiplicity
  _atom_site_fract_x
  _atom_site_fract_y
  _atom_site_fract_z
  _atom_site_occupancy
  Cs  Cs1       1.0  0.90800  0.25000  0.12100  1.0000
  Cs  Cs2       1.0  0.09230  0.75000  0.87900  1.0000
  K   K1        1.0  0.69000  0.75000  0.00345  1.0000
  K   K2        1.0  0.41900  0.75000  0.30500  1.0000
  K   K3        1.0  0.58100  0.25000  0.69500  1.0000
  K   K4        1.0  0.31000  0.25000  0.99700  1.0000
  La  La1       1.0  0.21000  0.25000  0.49400  1.0000
  La  La2       1.0  0.79000  0.75000  0.50600  1.0000
  O   O1        1.0  0.58900  0.25000  0.04160  1.0000
  O   O2        1.0  0.91900  0.75000  0.21900  1.0000
  O   O3        1.0  0.16800  0.51300  0.25500  1.0000
  O   O4        1.0  0.16800  0.98700  0.25500  1.0000
  O   O5        1.0  0.41800  0.25000  0.32500  1.0000
  O   O6        1.0  0.66200  0.00997  0.34100  1.0000
  O   O7        1.0  0.66200  0.49000  0.34100  1.0000
  O   O8        1.0  0.95200  0.25000  0.47400  1.0000
  O   O9        1.0  0.04780  0.75000  0.52600  1.0000
  O   O10       1.0  0.33800  0.51000  0.65900  1.0000
  O   O11       1.0  0.33800  0.99000  0.65900  1.0000
  O   O12       1.0  0.58200  0.75000  0.67500  1.0000
  O   O13       1.0  0.83200  0.01270  0.74500  1.0000
  O   O14       1.0  0.83200  0.48700  0.74500  1.0000
  O   O15       1.0  0.08140  0.25000  0.78100  1.0000
  O   O16       1.0  0.41100  0.75000  0.95800  1.0000
  V   V1        1.0  0.58300  0.25000  0.26100  1.0000
  V   V2        1.0  0.07820  0.75000  0.31100  1.0000
  V   V3        1.0  0.92200  0.25000  0.68900  1.0000
  V   V4        1.0  0.41700  0.75000  0.73900  1.0000
