data_image0
_chemical_formula_structural       Cu4O11Pa4
_chemical_formula_sum              "Cu4 O11 Pa4"
_cell_length_a       5.28946
_cell_length_b       6.21121
_cell_length_c       7.26108
_cell_angle_alpha    90
_cell_angle_beta     90
_cell_angle_gamma    91.148

_space_group_name_H-M_alt    "P 1"
_space_group_IT_number       1

loop_
  _space_group_symop_operation_xyz
  'x, y, z'

loop_
  _atom_site_type_symbol
  _atom_site_label
  _atom_site_symmetry_multiplicity
  _atom_site_fract_x
  _atom_site_fract_y
  _atom_site_fract_z
  _atom_site_occupancy
  Cu  Cu1       1.0  0.99500  0.49600  0.00716  1.0000
  Cu  Cu2       1.0  0.99500  0.49600  0.49300  1.0000
  Cu  Cu3       1.0  0.50100  0.00922  0.50200  1.0000
  Cu  Cu4       1.0  0.50100  0.00922  0.99800  1.0000
  O   O1        1.0  0.83400  0.83400  0.06120  1.0000
  O   O2        1.0  0.68300  0.34200  0.06160  1.0000
  O   O3        1.0  0.34800  0.94600  0.25000  1.0000
  O   O4        1.0  0.68300  0.34200  0.43800  1.0000
  O   O5        1.0  0.83400  0.83400  0.43900  1.0000
  O   O6        1.0  0.31000  0.63700  0.55600  1.0000
  O   O7        1.0  0.17100  0.16200  0.57000  1.0000
  O   O8        1.0  0.67400  0.07550  0.75000  1.0000
  O   O9        1.0  0.81500  0.58500  0.75000  1.0000
  O   O10       1.0  0.17100  0.16200  0.93000  1.0000
  O   O11       1.0  0.31000  0.63700  0.94400  1.0000
  Pa  Pa1       1.0  0.97000  0.10400  0.25000  1.0000
  Pa  Pa2       1.0  0.54200  0.62500  0.25000  1.0000
  Pa  Pa3       1.0  0.46700  0.38600  0.75000  1.0000
  Pa  Pa4       1.0  0.02120  0.89200  0.75000  1.0000
