data_image0
_chemical_formula_structural       Cr4Nd4O11
_chemical_formula_sum              "Cr4 Nd4 O11"
_cell_length_a       5.43401
_cell_length_b       5.57775
_cell_length_c       7.75992
_cell_angle_alpha    90.1584
_cell_angle_beta     89.6798
_cell_angle_gamma    90.4613

_space_group_name_H-M_alt    "P 1"
_space_group_IT_number       1

loop_
  _space_group_symop_operation_xyz
  'x, y, z'

loop_
  _atom_site_type_symbol
  _atom_site_label
  _atom_site_symmetry_multiplicity
  _atom_site_fract_x
  _atom_site_fract_y
  _atom_site_fract_z
  _atom_site_occupancy
  Cr  Cr1       1.0  0.99500  0.49400  0.00051  1.0000
  Cr  Cr2       1.0  0.99500  0.49700  0.50000  1.0000
  Cr  Cr3       1.0  0.50300  0.00322  0.50100  1.0000
  Cr  Cr4       1.0  0.50700  0.00457  0.99900  1.0000
  Nd  Nd1       1.0  0.50700  0.56000  0.24700  1.0000
  Nd  Nd2       1.0  0.99900  0.04390  0.25500  1.0000
  Nd  Nd3       1.0  0.47900  0.45100  0.74400  1.0000
  Nd  Nd4       1.0  0.01460  0.94300  0.75500  1.0000
  O   O1        1.0  0.79600  0.79400  0.04990  1.0000
  O   O2        1.0  0.08490  0.47200  0.25100  1.0000
  O   O3        1.0  0.42000  0.98200  0.25200  1.0000
  O   O4        1.0  0.70200  0.29500  0.44400  1.0000
  O   O5        1.0  0.79300  0.79200  0.45400  1.0000
  O   O6        1.0  0.29300  0.70700  0.54300  1.0000
  O   O7        1.0  0.20200  0.20400  0.54800  1.0000
  O   O8        1.0  0.59600  0.03390  0.74900  1.0000
  O   O9        1.0  0.90300  0.52000  0.75000  1.0000
  O   O10       1.0  0.20600  0.20600  0.95500  1.0000
  O   O11       1.0  0.30000  0.70200  0.95600  1.0000
