data_image0
_chemical_formula_structural       Ag14Nb2S12
_chemical_formula_sum              "Ag14 Nb2 S12"
_cell_length_a       7.78504
_cell_length_b       7.34529
_cell_length_c       10.8981
_cell_angle_alpha    89.9999
_cell_angle_beta     88.8302
_cell_angle_gamma    90.0001

_space_group_name_H-M_alt    "P 1"
_space_group_IT_number       1

loop_
  _space_group_symop_operation_xyz
  'x, y, z'

loop_
  _atom_site_type_symbol
  _atom_site_label
  _atom_site_symmetry_multiplicity
  _atom_site_fract_x
  _atom_site_fract_y
  _atom_site_fract_z
  _atom_site_occupancy
  Ag  Ag1       1.0  0.32000  0.00908  0.18300  1.0000
  Ag  Ag2       1.0  0.72300  0.41400  0.20500  1.0000
  Ag  Ag3       1.0  0.38900  0.59500  0.22000  1.0000
  Ag  Ag4       1.0  0.02680  0.22400  0.28800  1.0000
  Ag  Ag5       1.0  0.70600  0.12800  0.42400  1.0000
  Ag  Ag6       1.0  0.27000  0.41600  0.45900  1.0000
  Ag  Ag7       1.0  0.86000  0.51200  0.46400  1.0000
  Ag  Ag8       1.0  0.82000  0.99100  0.68300  1.0000
  Ag  Ag9       1.0  0.22300  0.58600  0.70500  1.0000
  Ag  Ag10      1.0  0.88900  0.40500  0.72000  1.0000
  Ag  Ag11      1.0  0.52700  0.77600  0.78800  1.0000
  Ag  Ag12      1.0  0.20600  0.87200  0.92400  1.0000
  Ag  Ag13      1.0  0.77000  0.58400  0.95900  1.0000
  Ag  Ag14      1.0  0.36000  0.48800  0.96400  1.0000
  Nb  Nb1       1.0  0.00703  0.23900  0.00345  1.0000
  Nb  Nb2       1.0  0.50700  0.76100  0.50300  1.0000
  S   S1        1.0  0.50100  0.77400  0.02340  1.0000
  S   S2        1.0  0.00469  0.97600  0.12300  1.0000
  S   S3        1.0  0.01590  0.50300  0.12800  1.0000
  S   S4        1.0  0.47100  0.25800  0.29000  1.0000
  S   S5        1.0  0.73300  0.77000  0.36000  1.0000
  S   S6        1.0  0.25300  0.77700  0.39900  1.0000
  S   S7        1.0  0.00130  0.22600  0.52300  1.0000
  S   S8        1.0  0.50500  0.02440  0.62300  1.0000
  S   S9        1.0  0.51600  0.49700  0.62800  1.0000
  S   S10       1.0  0.97100  0.74200  0.79000  1.0000
  S   S11       1.0  0.23300  0.23000  0.86000  1.0000
  S   S12       1.0  0.75300  0.22300  0.89900  1.0000
