data_image0
_chemical_formula_structural       Ga4Ge4K4S16
_chemical_formula_sum              "Ga4 Ge4 K4 S16"
_cell_length_a       6.83688
_cell_length_b       16.4788
_cell_length_c       7.21089
_cell_angle_alpha    90
_cell_angle_beta     110.931
_cell_angle_gamma    90

_space_group_name_H-M_alt    "P 1"
_space_group_IT_number       1

loop_
  _space_group_symop_operation_xyz
  'x, y, z'

loop_
  _atom_site_type_symbol
  _atom_site_label
  _atom_site_symmetry_multiplicity
  _atom_site_fract_x
  _atom_site_fract_y
  _atom_site_fract_z
  _atom_site_occupancy
  Ga  Ga1       1.0  0.58200  0.92000  0.47100  1.0000
  Ga  Ga2       1.0  0.08160  0.58000  0.47100  1.0000
  Ga  Ga3       1.0  0.41800  0.07970  0.52900  1.0000
  Ga  Ga4       1.0  0.91800  0.42000  0.52900  1.0000
  Ge  Ge1       1.0  0.35300  0.72400  0.29300  1.0000
  Ge  Ge2       1.0  0.85300  0.77600  0.29300  1.0000
  Ge  Ge3       1.0  0.64700  0.27600  0.70700  1.0000
  Ge  Ge4       1.0  0.14700  0.22400  0.70700  1.0000
  K   K1        1.0  0.27100  0.40600  0.16900  1.0000
  K   K2        1.0  0.77100  0.09440  0.16900  1.0000
  K   K3        1.0  0.72900  0.59400  0.83100  1.0000
  K   K4        1.0  0.22900  0.90600  0.83100  1.0000
  S   S1        1.0  0.52600  0.74300  0.08080  1.0000
  S   S2        1.0  0.02620  0.75700  0.08080  1.0000
  S   S3        1.0  0.84700  0.49700  0.24600  1.0000
  S   S4        1.0  0.34700  0.00346  0.24600  1.0000
  S   S5        1.0  0.87400  0.90600  0.38200  1.0000
  S   S6        1.0  0.37400  0.59400  0.38200  1.0000
  S   S7        1.0  0.52800  0.20000  0.43900  1.0000
  S   S8        1.0  0.02800  0.30000  0.43900  1.0000
  S   S9        1.0  0.47200  0.80000  0.56100  1.0000
  S   S10       1.0  0.97200  0.70000  0.56100  1.0000
  S   S11       1.0  0.62600  0.40600  0.61800  1.0000
  S   S12       1.0  0.12600  0.09440  0.61800  1.0000
  S   S13       1.0  0.65300  0.99700  0.75400  1.0000
  S   S14       1.0  0.15300  0.50300  0.75400  1.0000
  S   S15       1.0  0.97400  0.24300  0.91900  1.0000
  S   S16       1.0  0.47400  0.25700  0.91900  1.0000
