data_image0
_chemical_formula_structural       La4O11Rh4
_chemical_formula_sum              "La4 O11 Rh4"
_cell_length_a       5.44592
_cell_length_b       5.84413
_cell_length_c       7.74894
_cell_angle_alpha    90
_cell_angle_beta     90
_cell_angle_gamma    90.2702

_space_group_name_H-M_alt    "P 1"
_space_group_IT_number       1

loop_
  _space_group_symop_operation_xyz
  'x, y, z'

loop_
  _atom_site_type_symbol
  _atom_site_label
  _atom_site_symmetry_multiplicity
  _atom_site_fract_x
  _atom_site_fract_y
  _atom_site_fract_z
  _atom_site_occupancy
  La  La1       1.0  0.97100  0.07330  0.25000  1.0000
  La  La2       1.0  0.51100  0.57100  0.25000  1.0000
  La  La3       1.0  0.48700  0.43200  0.75000  1.0000
  La  La4       1.0  0.02360  0.92600  0.75000  1.0000
  O   O1        1.0  0.68500  0.30600  0.05480  1.0000
  O   O2        1.0  0.80900  0.79900  0.05910  1.0000
  O   O3        1.0  0.38500  0.97300  0.25000  1.0000
  O   O4        1.0  0.80900  0.79900  0.44100  1.0000
  O   O5        1.0  0.68500  0.30600  0.44500  1.0000
  O   O6        1.0  0.18900  0.19800  0.54300  1.0000
  O   O7        1.0  0.31200  0.69700  0.54500  1.0000
  O   O8        1.0  0.60900  0.02920  0.75000  1.0000
  O   O9        1.0  0.91400  0.52300  0.75000  1.0000
  O   O10       1.0  0.31200  0.69700  0.95500  1.0000
  O   O11       1.0  0.18900  0.19800  0.95700  1.0000
  Rh  Rh1       1.0  0.50000  0.00000  0.00239  1.0000
  Rh  Rh2       1.0  0.00333  0.50100  0.02010  1.0000
  Rh  Rh3       1.0  0.00333  0.50100  0.48000  1.0000
  Rh  Rh4       1.0  0.50000  0.00000  0.49800  1.0000
