data_image0
_chemical_formula_structural       Cu2O14Sr9Zn4
_chemical_formula_sum              "Cu2 O14 Sr9 Zn4"
_cell_length_a       3.60691
_cell_length_b       11.2469
_cell_length_c       11.2631
_cell_angle_alpha    98.4008
_cell_angle_beta     90
_cell_angle_gamma    99.2273

_space_group_name_H-M_alt    "P 1"
_space_group_IT_number       1

loop_
  _space_group_symop_operation_xyz
  'x, y, z'

loop_
  _atom_site_type_symbol
  _atom_site_label
  _atom_site_symmetry_multiplicity
  _atom_site_fract_x
  _atom_site_fract_y
  _atom_site_fract_z
  _atom_site_occupancy
  Cu  Cu1       1.0  0.10600  0.21300  0.37600  1.0000
  Cu  Cu2       1.0  0.89400  0.78700  0.62400  1.0000
  O   O1        1.0  0.19700  0.39500  0.07050  1.0000
  O   O2        1.0  0.58100  0.16100  0.09480  1.0000
  O   O3        1.0  0.91200  0.82500  0.13600  1.0000
  O   O4        1.0  0.79700  0.59300  0.26900  1.0000
  O   O5        1.0  0.02480  0.04950  0.35000  1.0000
  O   O6        1.0  0.40600  0.81200  0.36100  1.0000
  O   O7        1.0  0.19000  0.38100  0.40100  1.0000
  O   O8        1.0  0.81000  0.61900  0.59900  1.0000
  O   O9        1.0  0.59400  0.18800  0.63900  1.0000
  O   O10       1.0  0.97500  0.95000  0.65000  1.0000
  O   O11       1.0  0.20300  0.40700  0.73100  1.0000
  O   O12       1.0  0.08770  0.17500  0.86400  1.0000
  O   O13       1.0  0.41900  0.83900  0.90500  1.0000
  O   O14       1.0  0.80300  0.60500  0.93000  1.0000
  Sr  Sr1       1.0  0.31300  0.62500  0.10200  1.0000
  Sr  Sr2       1.0  0.49000  0.98100  0.19200  1.0000
  Sr  Sr3       1.0  0.68600  0.37300  0.22600  1.0000
  Sr  Sr4       1.0  0.30600  0.61200  0.43100  1.0000
  Sr  Sr5       1.0  0.50000  0.00000  0.50000  1.0000
  Sr  Sr6       1.0  0.69400  0.38800  0.56900  1.0000
  Sr  Sr7       1.0  0.31400  0.62700  0.77400  1.0000
  Sr  Sr8       1.0  0.51000  0.01910  0.80800  1.0000
  Sr  Sr9       1.0  0.68700  0.37500  0.89800  1.0000
  Zn  Zn1       1.0  0.10200  0.20500  0.04000  1.0000
  Zn  Zn2       1.0  0.89000  0.77900  0.29800  1.0000
  Zn  Zn3       1.0  0.11000  0.22100  0.70200  1.0000
  Zn  Zn4       1.0  0.89800  0.79500  0.96000  1.0000
