data_image0
_chemical_formula_structural       As4Mo2O18Rb4
_chemical_formula_sum              "As4 Mo2 O18 Rb4"
_cell_length_a       7.34685
_cell_length_b       7.34778
_cell_length_c       9.08697
_cell_angle_alpha    75.2765
_cell_angle_beta     70.5038
_cell_angle_gamma    84.8235

_space_group_name_H-M_alt    "P 1"
_space_group_IT_number       1

loop_
  _space_group_symop_operation_xyz
  'x, y, z'

loop_
  _atom_site_type_symbol
  _atom_site_label
  _atom_site_symmetry_multiplicity
  _atom_site_fract_x
  _atom_site_fract_y
  _atom_site_fract_z
  _atom_site_occupancy
  As  As1       1.0  0.64500  0.69200  0.09040  1.0000
  As  As2       1.0  0.80300  0.67600  0.36700  1.0000
  As  As3       1.0  0.19700  0.32400  0.63300  1.0000
  As  As4       1.0  0.35500  0.30900  0.91000  1.0000
  Mo  Mo1       1.0  0.22900  0.43000  0.25400  1.0000
  Mo  Mo2       1.0  0.77100  0.57000  0.74600  1.0000
  O   O1        1.0  0.74300  0.90400  0.02310  1.0000
  O   O2        1.0  0.21800  0.45400  0.03150  1.0000
  O   O3        1.0  0.40300  0.68300  0.13100  1.0000
  O   O4        1.0  0.43300  0.28700  0.22800  1.0000
  O   O5        1.0  0.03870  0.67400  0.24600  1.0000
  O   O6        1.0  0.67300  0.56400  0.28000  1.0000
  O   O7        1.0  0.04250  0.26500  0.34900  1.0000
  O   O8        1.0  0.71200  0.88500  0.39300  1.0000
  O   O9        1.0  0.23300  0.49600  0.45400  1.0000
  O   O10       1.0  0.76700  0.50400  0.54600  1.0000
  O   O11       1.0  0.28800  0.11500  0.60700  1.0000
  O   O12       1.0  0.95800  0.73500  0.65100  1.0000
  O   O13       1.0  0.32700  0.43600  0.72000  1.0000
  O   O14       1.0  0.96100  0.32600  0.75400  1.0000
  O   O15       1.0  0.56700  0.71300  0.77200  1.0000
  O   O16       1.0  0.59700  0.31700  0.86900  1.0000
  O   O17       1.0  0.78200  0.54600  0.96800  1.0000
  O   O18       1.0  0.25700  0.09580  0.97700  1.0000
  Rb  Rb1       1.0  0.84400  0.18600  0.12600  1.0000
  Rb  Rb2       1.0  0.28200  0.91100  0.37100  1.0000
  Rb  Rb3       1.0  0.71800  0.08920  0.62900  1.0000
  Rb  Rb4       1.0  0.15600  0.81400  0.87400  1.0000
