data_image0
_chemical_formula_structural       F20Hf4Rb4
_chemical_formula_sum              "F20 Hf4 Rb4"
_cell_length_a       7.50765
_cell_length_b       7.77183
_cell_length_c       7.7768
_cell_angle_alpha    90.0001
_cell_angle_beta     121.167
_cell_angle_gamma    89.9998

_space_group_name_H-M_alt    "P 1"
_space_group_IT_number       1

loop_
  _space_group_symop_operation_xyz
  'x, y, z'

loop_
  _atom_site_type_symbol
  _atom_site_label
  _atom_site_symmetry_multiplicity
  _atom_site_fract_x
  _atom_site_fract_y
  _atom_site_fract_z
  _atom_site_occupancy
  F   F1        1.0  0.50100  0.70700  0.06430  1.0000
  F   F2        1.0  0.20000  0.21200  0.06710  1.0000
  F   F3        1.0  0.68300  0.00063  0.09090  1.0000
  F   F4        1.0  0.20200  0.71200  0.13300  1.0000
  F   F5        1.0  0.50000  0.43500  0.20700  1.0000
  F   F6        1.0  0.50000  0.93500  0.29300  1.0000
  F   F7        1.0  0.79800  0.21200  0.36700  1.0000
  F   F8        1.0  0.31700  0.50100  0.40900  1.0000
  F   F9        1.0  0.80000  0.71200  0.43300  1.0000
  F   F10       1.0  0.49900  0.20700  0.43600  1.0000
  F   F11       1.0  0.50100  0.79300  0.56400  1.0000
  F   F12       1.0  0.20000  0.28800  0.56700  1.0000
  F   F13       1.0  0.68300  0.49900  0.59100  1.0000
  F   F14       1.0  0.20200  0.78800  0.63300  1.0000
  F   F15       1.0  0.50000  0.06530  0.70700  1.0000
  F   F16       1.0  0.50000  0.56500  0.79300  1.0000
  F   F17       1.0  0.79800  0.28800  0.86700  1.0000
  F   F18       1.0  0.31700  0.99900  0.90900  1.0000
  F   F19       1.0  0.80000  0.78800  0.93300  1.0000
  F   F20       1.0  0.49900  0.29300  0.93600  1.0000
  Hf  Hf1       1.0  0.50000  0.16200  0.16300  1.0000
  Hf  Hf2       1.0  0.50000  0.66200  0.33700  1.0000
  Hf  Hf3       1.0  0.50000  0.33800  0.66300  1.0000
  Hf  Hf4       1.0  0.50000  0.83800  0.83700  1.0000
  Rb  Rb1       1.0  0.90700  0.50000  0.20300  1.0000
  Rb  Rb2       1.0  0.09340  0.00000  0.29700  1.0000
  Rb  Rb3       1.0  0.90700  0.00019  0.70300  1.0000
  Rb  Rb4       1.0  0.09340  0.50000  0.79700  1.0000
