data_image0
_chemical_formula_structural       Ir2K2O5
_chemical_formula_sum              "Ir2 K2 O5"
_cell_length_a       5.8669
_cell_length_b       4.99902
_cell_length_c       6.32066
_cell_angle_alpha    69.4931
_cell_angle_beta     66.4112
_cell_angle_gamma    54.2512

_space_group_name_H-M_alt    "P 1"
_space_group_IT_number       1

loop_
  _space_group_symop_operation_xyz
  'x, y, z'

loop_
  _atom_site_type_symbol
  _atom_site_label
  _atom_site_symmetry_multiplicity
  _atom_site_fract_x
  _atom_site_fract_y
  _atom_site_fract_z
  _atom_site_occupancy
  Ir  Ir1       1.0  0.81300  0.85800  0.49700  1.0000
  Ir  Ir2       1.0  0.17400  0.13300  0.50300  1.0000
  K   K1        1.0  0.67400  0.58700  0.10100  1.0000
  K   K2        1.0  0.32200  0.41400  0.93300  1.0000
  O   O1        1.0  0.11600  0.98700  0.29000  1.0000
  O   O2        1.0  0.55400  0.10700  0.29300  1.0000
  O   O3        1.0  0.06940  0.45700  0.67600  1.0000
  O   O4        1.0  0.46200  0.84100  0.69600  1.0000
  O   O5        1.0  0.84900  0.05580  0.69900  1.0000
