data_image0
_chemical_formula_structural       Cu4Li6O12Sb2
_chemical_formula_sum              "Cu4 Li6 O12 Sb2"
_cell_length_a       5.13332
_cell_length_b       5.13332
_cell_length_c       9.71977
_cell_angle_alpha    92.6716
_cell_angle_beta     92.6716
_cell_angle_gamma    115.422

_space_group_name_H-M_alt    "P 1"
_space_group_IT_number       1

loop_
  _space_group_symop_operation_xyz
  'x, y, z'

loop_
  _atom_site_type_symbol
  _atom_site_label
  _atom_site_symmetry_multiplicity
  _atom_site_fract_x
  _atom_site_fract_y
  _atom_site_fract_z
  _atom_site_occupancy
  Cu  Cu1       1.0  0.92200  0.07800  0.25000  1.0000
  Cu  Cu2       1.0  0.58800  0.41200  0.25000  1.0000
  Cu  Cu3       1.0  0.41200  0.58800  0.75000  1.0000
  Cu  Cu4       1.0  0.07800  0.92200  0.75000  1.0000
  Li  Li1       1.0  0.50000  0.00000  0.00000  1.0000
  Li  Li2       1.0  0.83500  0.68400  0.00357  1.0000
  Li  Li3       1.0  0.31600  0.16500  0.49600  1.0000
  Li  Li4       1.0  0.00000  0.50000  0.50000  1.0000
  Li  Li5       1.0  0.68400  0.83500  0.50400  1.0000
  Li  Li6       1.0  0.16500  0.31600  0.99600  1.0000
  O   O1        1.0  0.18700  0.00498  0.12400  1.0000
  O   O2        1.0  0.52000  0.68200  0.12500  1.0000
  O   O3        1.0  0.91200  0.40300  0.14600  1.0000
  O   O4        1.0  0.59700  0.08780  0.35400  1.0000
  O   O5        1.0  0.31800  0.48000  0.37500  1.0000
  O   O6        1.0  0.99500  0.81300  0.37600  1.0000
  O   O7        1.0  0.00498  0.18700  0.62400  1.0000
  O   O8        1.0  0.68200  0.52000  0.62500  1.0000
  O   O9        1.0  0.40300  0.91200  0.64600  1.0000
  O   O10       1.0  0.08780  0.59700  0.85400  1.0000
  O   O11       1.0  0.48000  0.31800  0.87500  1.0000
  O   O12       1.0  0.81300  0.99500  0.87600  1.0000
  Sb  Sb1       1.0  0.25500  0.74500  0.25000  1.0000
  Sb  Sb2       1.0  0.74500  0.25500  0.75000  1.0000
