data_image0
_chemical_formula_structural       Ce3Pd20Si6
_chemical_formula_sum              "Ce3 Pd20 Si6"
_cell_length_a       8.88967
_cell_length_b       8.88967
_cell_length_c       8.88967
_cell_angle_alpha    120
_cell_angle_beta     90
_cell_angle_gamma    120

_space_group_name_H-M_alt    "P 1"
_space_group_IT_number       1

loop_
  _space_group_symop_operation_xyz
  'x, y, z'

loop_
  _atom_site_type_symbol
  _atom_site_label
  _atom_site_symmetry_multiplicity
  _atom_site_fract_x
  _atom_site_fract_y
  _atom_site_fract_z
  _atom_site_occupancy
  Ce  Ce1       1.0  0.00000  0.00000  0.00000  1.0000
  Ce  Ce2       1.0  0.75000  0.50000  0.25000  1.0000
  Ce  Ce3       1.0  0.25000  0.50000  0.75000  1.0000
  Pd  Pd1       1.0  0.37100  0.24700  0.12400  1.0000
  Pd  Pd2       1.0  0.87600  0.24700  0.12400  1.0000
  Pd  Pd3       1.0  0.87600  0.75300  0.12400  1.0000
  Pd  Pd4       1.0  0.15300  0.65300  0.15300  1.0000
  Pd  Pd5       1.0  0.50000  0.65300  0.15300  1.0000
  Pd  Pd6       1.0  0.50000  0.00000  0.15300  1.0000
  Pd  Pd7       1.0  0.12400  0.24700  0.37100  1.0000
  Pd  Pd8       1.0  0.50000  0.34700  0.50000  1.0000
  Pd  Pd9       1.0  0.15300  0.65300  0.50000  1.0000
  Pd  Pd10      1.0  0.50000  0.65300  0.50000  1.0000
  Pd  Pd11      1.0  0.15300  0.00000  0.50000  1.0000
  Pd  Pd12      1.0  0.84700  0.34700  0.50000  1.0000
  Pd  Pd13      1.0  0.84700  0.00000  0.50000  1.0000
  Pd  Pd14      1.0  0.87600  0.75300  0.62900  1.0000
  Pd  Pd15      1.0  0.50000  0.34700  0.84700  1.0000
  Pd  Pd16      1.0  0.84700  0.34700  0.84700  1.0000
  Pd  Pd17      1.0  0.50000  0.00000  0.84700  1.0000
  Pd  Pd18      1.0  0.12400  0.24700  0.87600  1.0000
  Pd  Pd19      1.0  0.12400  0.75300  0.87600  1.0000
  Pd  Pd20      1.0  0.62900  0.75300  0.87600  1.0000
  Si  Si1       1.0  0.25100  0.50300  0.25100  1.0000
  Si  Si2       1.0  0.25100  0.00000  0.25100  1.0000
  Si  Si3       1.0  0.74900  0.00000  0.25100  1.0000
  Si  Si4       1.0  0.25100  0.00000  0.74900  1.0000
  Si  Si5       1.0  0.74900  0.00000  0.74900  1.0000
  Si  Si6       1.0  0.74900  0.49700  0.74900  1.0000
