data_image0
_chemical_formula_structural       Nb8PtSe20
_chemical_formula_sum              "Nb8 Pt1 Se20"
_cell_length_a       3.46317
_cell_length_b       10.4872
_cell_length_c       19.5942
_cell_angle_alpha    103.748
_cell_angle_beta     95.07
_cell_angle_gamma    99.5039

_space_group_name_H-M_alt    "P 1"
_space_group_IT_number       1

loop_
  _space_group_symop_operation_xyz
  'x, y, z'

loop_
  _atom_site_type_symbol
  _atom_site_label
  _atom_site_symmetry_multiplicity
  _atom_site_fract_x
  _atom_site_fract_y
  _atom_site_fract_z
  _atom_site_occupancy
  Nb  Nb1       1.0  0.16800  0.24600  0.09080  1.0000
  Nb  Nb2       1.0  0.85800  0.52700  0.18900  1.0000
  Nb  Nb3       1.0  0.54700  0.81400  0.28100  1.0000
  Nb  Nb4       1.0  0.29100  0.13900  0.44300  1.0000
  Nb  Nb5       1.0  0.70900  0.86100  0.55700  1.0000
  Nb  Nb6       1.0  0.45300  0.18600  0.71900  1.0000
  Nb  Nb7       1.0  0.14200  0.47300  0.81100  1.0000
  Nb  Nb8       1.0  0.83200  0.75400  0.90900  1.0000
  Pt  Pt1       1.0  0.50000  0.00000  0.00000  1.0000
  Se  Se1       1.0  0.39000  0.76900  0.01190  1.0000
  Se  Se2       1.0  0.29100  0.49600  0.08640  1.0000
  Se  Se3       1.0  0.61000  0.08870  0.13100  1.0000
  Se  Se4       1.0  0.97400  0.77200  0.17600  1.0000
  Se  Se5       1.0  0.29800  0.36800  0.22700  1.0000
  Se  Se6       1.0  0.15900  0.01620  0.30300  1.0000
  Se  Se7       1.0  0.99200  0.66000  0.32500  1.0000
  Se  Se8       1.0  0.83500  0.28200  0.38900  1.0000
  Se  Se9       1.0  0.68200  0.93600  0.42800  1.0000
  Se  Se10      1.0  0.08160  0.67900  0.48500  1.0000
  Se  Se11      1.0  0.91800  0.32100  0.51500  1.0000
  Se  Se12      1.0  0.31800  0.06410  0.57200  1.0000
  Se  Se13      1.0  0.16500  0.71800  0.61100  1.0000
  Se  Se14      1.0  0.00783  0.34000  0.67500  1.0000
  Se  Se15      1.0  0.84100  0.98400  0.69700  1.0000
  Se  Se16      1.0  0.70200  0.63200  0.77300  1.0000
  Se  Se17      1.0  0.02590  0.22800  0.82400  1.0000
  Se  Se18      1.0  0.39000  0.91100  0.86900  1.0000
  Se  Se19      1.0  0.70900  0.50400  0.91400  1.0000
  Se  Se20      1.0  0.61000  0.23100  0.98800  1.0000
