data_image0
_chemical_formula_structural       Al3B6Co20
_chemical_formula_sum              "Al3 B6 Co20"
_cell_length_a       7.39139
_cell_length_b       7.39139
_cell_length_c       7.39139
_cell_angle_alpha    120
_cell_angle_beta     90
_cell_angle_gamma    120

_space_group_name_H-M_alt    "P 1"
_space_group_IT_number       1

loop_
  _space_group_symop_operation_xyz
  'x, y, z'

loop_
  _atom_site_type_symbol
  _atom_site_label
  _atom_site_symmetry_multiplicity
  _atom_site_fract_x
  _atom_site_fract_y
  _atom_site_fract_z
  _atom_site_occupancy
  Al  Al1       1.0  0.00000  0.00000  0.00000  1.0000
  Al  Al2       1.0  0.75000  0.50000  0.25000  1.0000
  Al  Al3       1.0  0.25000  0.50000  0.75000  1.0000
  B   B1        1.0  0.72300  0.00000  0.27700  1.0000
  B   B2        1.0  0.27700  0.00000  0.27700  1.0000
  B   B3        1.0  0.27700  0.55300  0.27700  1.0000
  B   B4        1.0  0.27700  0.00000  0.72300  1.0000
  B   B5        1.0  0.72300  0.00000  0.72300  1.0000
  B   B6        1.0  0.72300  0.44700  0.72300  1.0000
  Co  Co1       1.0  0.34000  0.00000  0.00000  1.0000
  Co  Co2       1.0  0.66000  0.00000  0.00000  1.0000
  Co  Co3       1.0  0.00000  0.34000  0.00000  1.0000
  Co  Co4       1.0  0.34000  0.34000  0.00000  1.0000
  Co  Co5       1.0  0.00000  0.66000  0.00000  1.0000
  Co  Co6       1.0  0.66000  0.66000  0.00000  1.0000
  Co  Co7       1.0  0.38200  0.76500  0.14700  1.0000
  Co  Co8       1.0  0.00000  0.00000  0.34000  1.0000
  Co  Co9       1.0  0.00000  0.34000  0.34000  1.0000
  Co  Co10      1.0  0.34000  0.34000  0.34000  1.0000
  Co  Co11      1.0  0.61800  0.23500  0.38200  1.0000
  Co  Co12      1.0  0.14700  0.76500  0.38200  1.0000
  Co  Co13      1.0  0.61800  0.76500  0.38200  1.0000
  Co  Co14      1.0  0.38200  0.23500  0.61800  1.0000
  Co  Co15      1.0  0.85300  0.23500  0.61800  1.0000
  Co  Co16      1.0  0.38200  0.76500  0.61800  1.0000
  Co  Co17      1.0  0.00000  1.00000  0.66000  1.0000
  Co  Co18      1.0  0.00000  0.66000  0.66000  1.0000
  Co  Co19      1.0  0.66000  0.66000  0.66000  1.0000
  Co  Co20      1.0  0.61800  0.23500  0.85300  1.0000
