data_image0
_chemical_formula_structural       Ge4Mg4Mn4O16
_chemical_formula_sum              "Ge4 Mg4 Mn4 O16"
_cell_length_a       4.96773
_cell_length_b       10.6109
_cell_length_c       6.15138
_cell_angle_alpha    90
_cell_angle_beta     90
_cell_angle_gamma    90

_space_group_name_H-M_alt    "P 1"
_space_group_IT_number       1

loop_
  _space_group_symop_operation_xyz
  'x, y, z'

loop_
  _atom_site_type_symbol
  _atom_site_label
  _atom_site_symmetry_multiplicity
  _atom_site_fract_x
  _atom_site_fract_y
  _atom_site_fract_z
  _atom_site_occupancy
  Ge  Ge1       1.0  0.43400  0.09060  0.25000  1.0000
  Ge  Ge2       1.0  0.06610  0.59100  0.25000  1.0000
  Ge  Ge3       1.0  0.93400  0.40900  0.75000  1.0000
  Ge  Ge4       1.0  0.56600  0.90900  0.75000  1.0000
  Mg  Mg1       1.0  0.00000  0.00000  0.00000  1.0000
  Mg  Mg2       1.0  0.50000  0.50000  0.00000  1.0000
  Mg  Mg3       1.0  0.00000  0.00000  0.50000  1.0000
  Mg  Mg4       1.0  0.50000  0.50000  0.50000  1.0000
  Mn  Mn1       1.0  0.99800  0.27700  0.25000  1.0000
  Mn  Mn2       1.0  0.50200  0.77700  0.25000  1.0000
  Mn  Mn3       1.0  0.49800  0.22300  0.75000  1.0000
  Mn  Mn4       1.0  0.00236  0.72300  0.75000  1.0000
  O   O1        1.0  0.26700  0.15900  0.02230  1.0000
  O   O2        1.0  0.23300  0.65900  0.02230  1.0000
  O   O3        1.0  0.78500  0.08570  0.25000  1.0000
  O   O4        1.0  0.24400  0.44200  0.25000  1.0000
  O   O5        1.0  0.71500  0.58600  0.25000  1.0000
  O   O6        1.0  0.25600  0.94200  0.25000  1.0000
  O   O7        1.0  0.26700  0.15900  0.47800  1.0000
  O   O8        1.0  0.23300  0.65900  0.47800  1.0000
  O   O9        1.0  0.76700  0.34100  0.52200  1.0000
  O   O10       1.0  0.73300  0.84100  0.52200  1.0000
  O   O11       1.0  0.74400  0.05800  0.75000  1.0000
  O   O12       1.0  0.28500  0.41400  0.75000  1.0000
  O   O13       1.0  0.75600  0.55800  0.75000  1.0000
  O   O14       1.0  0.21500  0.91400  0.75000  1.0000
  O   O15       1.0  0.76700  0.34100  0.97800  1.0000
  O   O16       1.0  0.73300  0.84100  0.97800  1.0000
