data_image0
_chemical_formula_structural       Li4O11Os4
_chemical_formula_sum              "Li4 O11 Os4"
_cell_length_a       5.04806
_cell_length_b       5.23899
_cell_length_c       7.23493
_cell_angle_alpha    90
_cell_angle_beta     90
_cell_angle_gamma    90.0718

_space_group_name_H-M_alt    "P 1"
_space_group_IT_number       1

loop_
  _space_group_symop_operation_xyz
  'x, y, z'

loop_
  _atom_site_type_symbol
  _atom_site_label
  _atom_site_symmetry_multiplicity
  _atom_site_fract_x
  _atom_site_fract_y
  _atom_site_fract_z
  _atom_site_occupancy
  Li  Li1       1.0  0.98700  0.03520  0.25000  1.0000
  Li  Li2       1.0  0.51000  0.55800  0.25000  1.0000
  Li  Li3       1.0  0.50000  0.46100  0.75000  1.0000
  Li  Li4       1.0  0.00375  0.94700  0.75000  1.0000
  O   O1        1.0  0.68200  0.30700  0.06850  1.0000
  O   O2        1.0  0.82200  0.81400  0.07060  1.0000
  O   O3        1.0  0.36100  0.95400  0.25000  1.0000
  O   O4        1.0  0.82200  0.81400  0.42900  1.0000
  O   O5        1.0  0.68200  0.30700  0.43100  1.0000
  O   O6        1.0  0.18200  0.19100  0.54700  1.0000
  O   O7        1.0  0.32500  0.67300  0.55500  1.0000
  O   O8        1.0  0.63300  0.05020  0.75000  1.0000
  O   O9        1.0  0.86800  0.57200  0.75000  1.0000
  O   O10       1.0  0.32500  0.67300  0.94500  1.0000
  O   O11       1.0  0.18200  0.19100  0.95300  1.0000
  Os  Os1       1.0  0.99300  0.49700  0.00882  1.0000
  Os  Os2       1.0  0.99300  0.49700  0.49100  1.0000
  Os  Os3       1.0  0.49600  0.99500  0.50000  1.0000
  Os  Os4       1.0  0.49600  0.99500  0.00000  1.0000
