data_image0
_chemical_formula_structural       La6P17Pd6
_chemical_formula_sum              "La6 P17 Pd6"
_cell_length_a       9.06165
_cell_length_b       9.06165
_cell_length_c       9.06165
_cell_angle_alpha    109.471
_cell_angle_beta     109.471
_cell_angle_gamma    109.471

_space_group_name_H-M_alt    "P 1"
_space_group_IT_number       1

loop_
  _space_group_symop_operation_xyz
  'x, y, z'

loop_
  _atom_site_type_symbol
  _atom_site_label
  _atom_site_symmetry_multiplicity
  _atom_site_fract_x
  _atom_site_fract_y
  _atom_site_fract_z
  _atom_site_occupancy
  La  La1       1.0  0.28600  0.28600  0.00000  1.0000
  La  La2       1.0  0.71400  0.71400  0.00000  1.0000
  La  La3       1.0  0.28600  0.00000  0.28600  1.0000
  La  La4       1.0  0.00000  0.28600  0.28600  1.0000
  La  La5       1.0  0.71400  0.00000  0.71400  1.0000
  La  La6       1.0  0.00000  0.71400  0.71400  1.0000
  P   P1        1.0  0.00000  0.00000  0.00000  1.0000
  P   P2        1.0  0.56700  0.00000  0.00000  1.0000
  P   P3        1.0  0.78200  0.36200  0.00000  1.0000
  P   P4        1.0  0.00000  0.56700  0.00000  1.0000
  P   P5        1.0  0.36200  0.78200  0.00000  1.0000
  P   P6        1.0  0.58000  0.21800  0.21800  1.0000
  P   P7        1.0  0.21800  0.58000  0.21800  1.0000
  P   P8        1.0  0.78200  0.00000  0.36200  1.0000
  P   P9        1.0  0.00000  0.78200  0.36200  1.0000
  P   P10       1.0  0.63800  0.63800  0.42000  1.0000
  P   P11       1.0  0.43300  0.43300  0.43300  1.0000
  P   P12       1.0  0.00000  0.00000  0.56700  1.0000
  P   P13       1.0  0.21800  0.21800  0.58000  1.0000
  P   P14       1.0  0.63800  0.42000  0.63800  1.0000
  P   P15       1.0  0.42000  0.63800  0.63800  1.0000
  P   P16       1.0  0.36200  0.00000  0.78200  1.0000
  P   P17       1.0  0.00000  0.36200  0.78200  1.0000
  Pd  Pd1       1.0  0.75000  0.50000  0.25000  1.0000
  Pd  Pd2       1.0  0.50000  0.75000  0.25000  1.0000
  Pd  Pd3       1.0  0.75000  0.25000  0.50000  1.0000
  Pd  Pd4       1.0  0.25000  0.75000  0.50000  1.0000
  Pd  Pd5       1.0  0.50000  0.25000  0.75000  1.0000
  Pd  Pd6       1.0  0.25000  0.50000  0.75000  1.0000
