data_image0
_chemical_formula_structural       Li23Sr6
_chemical_formula_sum              "Li23 Sr6"
_cell_length_a       10.1763
_cell_length_b       10.1763
_cell_length_c       10.1763
_cell_angle_alpha    120
_cell_angle_beta     90
_cell_angle_gamma    120

_space_group_name_H-M_alt    "P 1"
_space_group_IT_number       1

loop_
  _space_group_symop_operation_xyz
  'x, y, z'

loop_
  _atom_site_type_symbol
  _atom_site_label
  _atom_site_symmetry_multiplicity
  _atom_site_fract_x
  _atom_site_fract_y
  _atom_site_fract_z
  _atom_site_occupancy
  Li  Li1       1.0  0.50000  0.00000  0.00000  1.0000
  Li  Li2       1.0  0.00000  0.50000  0.00000  1.0000
  Li  Li3       1.0  0.50000  0.50000  0.00000  1.0000
  Li  Li4       1.0  0.37900  0.75800  0.13700  1.0000
  Li  Li5       1.0  0.82200  0.64500  0.17800  1.0000
  Li  Li6       1.0  0.53300  0.35500  0.17800  1.0000
  Li  Li7       1.0  0.82200  0.35500  0.17800  1.0000
  Li  Li8       1.0  0.13700  0.75800  0.37900  1.0000
  Li  Li9       1.0  0.62100  0.75800  0.37900  1.0000
  Li  Li10      1.0  0.62100  0.24200  0.37900  1.0000
  Li  Li11      1.0  0.82200  0.64500  0.46700  1.0000
  Li  Li12      1.0  0.50000  0.00000  0.50000  1.0000
  Li  Li13      1.0  0.00000  0.00000  0.50000  1.0000
  Li  Li14      1.0  0.00000  0.50000  0.50000  1.0000
  Li  Li15      1.0  0.50000  0.50000  0.50000  1.0000
  Li  Li16      1.0  0.17800  0.35500  0.53300  1.0000
  Li  Li17      1.0  0.37900  0.75800  0.62100  1.0000
  Li  Li18      1.0  0.37900  0.24200  0.62100  1.0000
  Li  Li19      1.0  0.86300  0.24200  0.62100  1.0000
  Li  Li20      1.0  0.17800  0.64500  0.82200  1.0000
  Li  Li21      1.0  0.46700  0.64500  0.82200  1.0000
  Li  Li22      1.0  0.17800  0.35500  0.82200  1.0000
  Li  Li23      1.0  0.62100  0.24200  0.86300  1.0000
  Sr  Sr1       1.0  0.79400  0.00000  0.20600  1.0000
  Sr  Sr2       1.0  0.20600  0.41100  0.20600  1.0000
  Sr  Sr3       1.0  0.20600  0.00000  0.20600  1.0000
  Sr  Sr4       1.0  0.79400  0.00000  0.79400  1.0000
  Sr  Sr5       1.0  0.20600  0.00000  0.79400  1.0000
  Sr  Sr6       1.0  0.79400  0.58900  0.79400  1.0000
