data_image0
_chemical_formula_structural       Ce4In16Pd8
_chemical_formula_sum              "Ce4 In16 Pd8"
_cell_length_a       4.63411
_cell_length_b       7.2367
_cell_length_c       18.8415
_cell_angle_alpha    90
_cell_angle_beta     90
_cell_angle_gamma    90

_space_group_name_H-M_alt    "P 1"
_space_group_IT_number       1

loop_
  _space_group_symop_operation_xyz
  'x, y, z'

loop_
  _atom_site_type_symbol
  _atom_site_label
  _atom_site_symmetry_multiplicity
  _atom_site_fract_x
  _atom_site_fract_y
  _atom_site_fract_z
  _atom_site_occupancy
  Ce  Ce1       1.0  0.75000  0.02670  0.14000  1.0000
  Ce  Ce2       1.0  0.25000  0.52700  0.36000  1.0000
  Ce  Ce3       1.0  0.75000  0.47300  0.64000  1.0000
  Ce  Ce4       1.0  0.25000  0.97300  0.86000  1.0000
  In  In1       1.0  0.25000  0.84600  0.03460  1.0000
  In  In2       1.0  0.75000  0.49900  0.07160  1.0000
  In  In3       1.0  0.25000  0.33200  0.18400  1.0000
  In  In4       1.0  0.25000  0.74200  0.19400  1.0000
  In  In5       1.0  0.75000  0.24200  0.30600  1.0000
  In  In6       1.0  0.75000  0.83200  0.31600  1.0000
  In  In7       1.0  0.25000  0.99900  0.42800  1.0000
  In  In8       1.0  0.75000  0.34600  0.46500  1.0000
  In  In9       1.0  0.25000  0.65400  0.53500  1.0000
  In  In10      1.0  0.75000  0.00091  0.57200  1.0000
  In  In11      1.0  0.25000  0.16800  0.68400  1.0000
  In  In12      1.0  0.25000  0.75800  0.69400  1.0000
  In  In13      1.0  0.75000  0.25800  0.80600  1.0000
  In  In14      1.0  0.75000  0.66800  0.81600  1.0000
  In  In15      1.0  0.25000  0.50100  0.92800  1.0000
  In  In16      1.0  0.75000  0.15400  0.96500  1.0000
  Pd  Pd1       1.0  0.25000  0.24900  0.03890  1.0000
  Pd  Pd2       1.0  0.75000  0.54200  0.21700  1.0000
  Pd  Pd3       1.0  0.25000  0.04250  0.28300  1.0000
  Pd  Pd4       1.0  0.75000  0.74900  0.46100  1.0000
  Pd  Pd5       1.0  0.25000  0.25100  0.53900  1.0000
  Pd  Pd6       1.0  0.75000  0.95800  0.71700  1.0000
  Pd  Pd7       1.0  0.25000  0.45800  0.78300  1.0000
  Pd  Pd8       1.0  0.75000  0.75100  0.96100  1.0000
