data_image0
_chemical_formula_structural       Na4O11Ta4
_chemical_formula_sum              "Na4 O11 Ta4"
_cell_length_a       5.47256
_cell_length_b       5.53901
_cell_length_c       7.73571
_cell_angle_alpha    90
_cell_angle_beta     90
_cell_angle_gamma    90.0644

_space_group_name_H-M_alt    "P 1"
_space_group_IT_number       1

loop_
  _space_group_symop_operation_xyz
  'x, y, z'

loop_
  _atom_site_type_symbol
  _atom_site_label
  _atom_site_symmetry_multiplicity
  _atom_site_fract_x
  _atom_site_fract_y
  _atom_site_fract_z
  _atom_site_occupancy
  Na  Na1       1.0  0.99900  0.02330  0.25000  1.0000
  Na  Na2       1.0  0.50200  0.52600  0.25000  1.0000
  Na  Na3       1.0  0.49100  0.47500  0.75000  1.0000
  Na  Na4       1.0  0.00662  0.97700  0.75000  1.0000
  O   O1        1.0  0.78900  0.78700  0.03970  1.0000
  O   O2        1.0  0.71600  0.28600  0.04200  1.0000
  O   O3        1.0  0.42500  0.98400  0.25000  1.0000
  O   O4        1.0  0.71600  0.28600  0.45800  1.0000
  O   O5        1.0  0.78900  0.78700  0.46000  1.0000
  O   O6        1.0  0.21100  0.21700  0.52600  1.0000
  O   O7        1.0  0.28700  0.70900  0.52700  1.0000
  O   O8        1.0  0.56200  0.01410  0.75000  1.0000
  O   O9        1.0  0.92100  0.51700  0.75000  1.0000
  O   O10       1.0  0.28700  0.70900  0.97300  1.0000
  O   O11       1.0  0.21100  0.21700  0.97400  1.0000
  Ta  Ta1       1.0  0.00056  0.50000  0.00092  1.0000
  Ta  Ta2       1.0  0.50600  0.00000  0.00355  1.0000
  Ta  Ta3       1.0  0.50600  0.00000  0.49600  1.0000
  Ta  Ta4       1.0  0.00056  0.50000  0.49900  1.0000
