data_image0
_chemical_formula_structural       Cs4Gd4S16Si4
_chemical_formula_sum              "Cs4 Gd4 S16 Si4"
_cell_length_a       6.41029
_cell_length_b       6.73286
_cell_length_c       17.902
_cell_angle_alpha    90
_cell_angle_beta     90
_cell_angle_gamma    90

_space_group_name_H-M_alt    "P 1"
_space_group_IT_number       1

loop_
  _space_group_symop_operation_xyz
  'x, y, z'

loop_
  _atom_site_type_symbol
  _atom_site_label
  _atom_site_symmetry_multiplicity
  _atom_site_fract_x
  _atom_site_fract_y
  _atom_site_fract_z
  _atom_site_occupancy
  Cs  Cs1       1.0  0.99900  0.00761  0.03250  1.0000
  Cs  Cs2       1.0  0.00089  0.50800  0.46800  1.0000
  Cs  Cs3       1.0  0.50100  0.99200  0.53200  1.0000
  Cs  Cs4       1.0  0.49900  0.49200  0.96800  1.0000
  Gd  Gd1       1.0  0.29200  0.47900  0.22900  1.0000
  Gd  Gd2       1.0  0.70800  0.97900  0.27100  1.0000
  Gd  Gd3       1.0  0.20800  0.52100  0.72900  1.0000
  Gd  Gd4       1.0  0.79200  0.02090  0.77100  1.0000
  S   S1        1.0  0.05300  0.51200  0.09670  1.0000
  S   S2        1.0  0.56700  0.74700  0.14700  1.0000
  S   S3        1.0  0.60600  0.25200  0.15600  1.0000
  S   S4        1.0  0.11000  0.07350  0.22100  1.0000
  S   S5        1.0  0.89000  0.57400  0.27900  1.0000
  S   S6        1.0  0.39400  0.75200  0.34400  1.0000
  S   S7        1.0  0.43300  0.24700  0.35300  1.0000
  S   S8        1.0  0.94700  0.01220  0.40300  1.0000
  S   S9        1.0  0.44700  0.48800  0.59700  1.0000
  S   S10       1.0  0.93300  0.25300  0.64700  1.0000
  S   S11       1.0  0.89400  0.74800  0.65600  1.0000
  S   S12       1.0  0.39000  0.92600  0.72100  1.0000
  S   S13       1.0  0.61000  0.42600  0.77900  1.0000
  S   S14       1.0  0.10600  0.24800  0.84400  1.0000
  S   S15       1.0  0.06740  0.75300  0.85300  1.0000
  S   S16       1.0  0.55300  0.98800  0.90300  1.0000
  Si  Si1       1.0  0.79000  0.51700  0.16800  1.0000
  Si  Si2       1.0  0.21000  0.01670  0.33200  1.0000
  Si  Si3       1.0  0.71000  0.48300  0.66800  1.0000
  Si  Si4       1.0  0.29000  0.98300  0.83200  1.0000
