data_image0
_chemical_formula_structural       Al2Cs18O8
_chemical_formula_sum              "Al2 Cs18 O8"
_cell_length_a       12.428
_cell_length_b       12.3703
_cell_length_c       12.3703
_cell_angle_alpha    104.616
_cell_angle_beta     120.155
_cell_angle_gamma    59.8455

_space_group_name_H-M_alt    "P 1"
_space_group_IT_number       1

loop_
  _space_group_symop_operation_xyz
  'x, y, z'

loop_
  _atom_site_type_symbol
  _atom_site_label
  _atom_site_symmetry_multiplicity
  _atom_site_fract_x
  _atom_site_fract_y
  _atom_site_fract_z
  _atom_site_occupancy
  Al  Al1       1.0  0.25000  0.50000  0.50000  1.0000
  Al  Al2       1.0  0.75000  0.50000  0.50000  1.0000
  Cs  Cs1       1.0  0.00000  0.00000  0.00000  1.0000
  Cs  Cs2       1.0  0.50000  0.00000  0.00000  1.0000
  Cs  Cs3       1.0  0.33200  0.50000  0.16500  1.0000
  Cs  Cs4       1.0  0.25000  0.26800  0.26800  1.0000
  Cs  Cs5       1.0  0.75000  0.26800  0.26800  1.0000
  Cs  Cs6       1.0  0.01800  0.73200  0.26800  1.0000
  Cs  Cs7       1.0  0.51800  0.73200  0.26800  1.0000
  Cs  Cs8       1.0  0.91600  0.50000  0.33200  1.0000
  Cs  Cs9       1.0  0.83200  0.83500  0.50000  1.0000
  Cs  Cs10      1.0  0.41600  0.66800  0.50000  1.0000
  Cs  Cs11      1.0  0.16800  0.16500  0.50000  1.0000
  Cs  Cs12      1.0  0.58400  0.33200  0.50000  1.0000
  Cs  Cs13      1.0  0.08420  0.50000  0.66800  1.0000
  Cs  Cs14      1.0  0.48200  0.26800  0.73200  1.0000
  Cs  Cs15      1.0  0.98200  0.26800  0.73200  1.0000
  Cs  Cs16      1.0  0.25000  0.73200  0.73200  1.0000
  Cs  Cs17      1.0  0.75000  0.73200  0.73200  1.0000
  Cs  Cs18      1.0  0.66800  0.50000  0.83500  1.0000
  O   O1        1.0  0.26700  0.50000  0.36200  1.0000
  O   O2        1.0  0.59500  0.50000  0.36200  1.0000
  O   O3        1.0  0.09510  0.63800  0.50000  1.0000
  O   O4        1.0  0.76700  0.63800  0.50000  1.0000
  O   O5        1.0  0.23300  0.36200  0.50000  1.0000
  O   O6        1.0  0.90500  0.36200  0.50000  1.0000
  O   O7        1.0  0.40500  0.50000  0.63800  1.0000
  O   O8        1.0  0.73300  0.50000  0.63800  1.0000
