data_image0
_chemical_formula_structural       Cr4O11Pm4
_chemical_formula_sum              "Cr4 O11 Pm4"
_cell_length_a       5.39276
_cell_length_b       5.58424
_cell_length_c       7.71982
_cell_angle_alpha    90.1665
_cell_angle_beta     89.6744
_cell_angle_gamma    90.4472

_space_group_name_H-M_alt    "P 1"
_space_group_IT_number       1

loop_
  _space_group_symop_operation_xyz
  'x, y, z'

loop_
  _atom_site_type_symbol
  _atom_site_label
  _atom_site_symmetry_multiplicity
  _atom_site_fract_x
  _atom_site_fract_y
  _atom_site_fract_z
  _atom_site_occupancy
  Cr  Cr1       1.0  0.99500  0.49400  0.00059  1.0000
  Cr  Cr2       1.0  0.99400  0.49700  0.50000  1.0000
  Cr  Cr3       1.0  0.50300  0.00312  0.50100  1.0000
  Cr  Cr4       1.0  0.50700  0.00465  0.99900  1.0000
  O   O1        1.0  0.80100  0.79700  0.05190  1.0000
  O   O2        1.0  0.09010  0.46900  0.25100  1.0000
  O   O3        1.0  0.41500  0.97800  0.25200  1.0000
  O   O4        1.0  0.69900  0.29700  0.44100  1.0000
  O   O5        1.0  0.79600  0.79400  0.45200  1.0000
  O   O6        1.0  0.29600  0.70500  0.54600  1.0000
  O   O7        1.0  0.19800  0.20200  0.55000  1.0000
  O   O8        1.0  0.60200  0.03770  0.74900  1.0000
  O   O9        1.0  0.89800  0.52400  0.75000  1.0000
  O   O10       1.0  0.20200  0.20300  0.95300  1.0000
  O   O11       1.0  0.30500  0.69800  0.95400  1.0000
  Pm  Pm1       1.0  0.50900  0.56500  0.24700  1.0000
  Pm  Pm2       1.0  0.99800  0.04840  0.25500  1.0000
  Pm  Pm3       1.0  0.47700  0.44700  0.74400  1.0000
  Pm  Pm4       1.0  0.01600  0.93900  0.75500  1.0000
