data_image0
_chemical_formula_structural       O11Pr4Sc4
_chemical_formula_sum              "O11 Pr4 Sc4"
_cell_length_a       5.61038
_cell_length_b       5.79042
_cell_length_c       8.01746
_cell_angle_alpha    90
_cell_angle_beta     90
_cell_angle_gamma    89.8959

_space_group_name_H-M_alt    "P 1"
_space_group_IT_number       1

loop_
  _space_group_symop_operation_xyz
  'x, y, z'

loop_
  _atom_site_type_symbol
  _atom_site_label
  _atom_site_symmetry_multiplicity
  _atom_site_fract_x
  _atom_site_fract_y
  _atom_site_fract_z
  _atom_site_occupancy
  O   O1        1.0  0.79800  0.79900  0.05130  1.0000
  O   O2        1.0  0.70100  0.29900  0.05360  1.0000
  O   O3        1.0  0.39900  0.96400  0.25000  1.0000
  O   O4        1.0  0.70100  0.29900  0.44600  1.0000
  O   O5        1.0  0.79800  0.79900  0.44900  1.0000
  O   O6        1.0  0.19800  0.20300  0.55200  1.0000
  O   O7        1.0  0.29800  0.70100  0.55400  1.0000
  O   O8        1.0  0.60200  0.03950  0.75000  1.0000
  O   O9        1.0  0.89400  0.53900  0.75000  1.0000
  O   O10       1.0  0.29800  0.70100  0.94600  1.0000
  O   O11       1.0  0.19800  0.20300  0.94800  1.0000
  Pr  Pr1       1.0  0.99000  0.04330  0.25000  1.0000
  Pr  Pr2       1.0  0.52400  0.55300  0.25000  1.0000
  Pr  Pr3       1.0  0.48500  0.44900  0.75000  1.0000
  Pr  Pr4       1.0  0.01190  0.94700  0.75000  1.0000
  Sc  Sc1       1.0  0.50000  0.00098  0.00057  1.0000
  Sc  Sc2       1.0  0.50000  0.00098  0.49900  1.0000
  Sc  Sc3       1.0  0.99800  0.49900  0.50100  1.0000
  Sc  Sc4       1.0  0.99800  0.49900  0.99900  1.0000
