data_image0
_chemical_formula_structural       Cr4O11Sm4
_chemical_formula_sum              "Cr4 O11 Sm4"
_cell_length_a       5.36663
_cell_length_b       5.58984
_cell_length_c       7.69421
_cell_angle_alpha    90.1798
_cell_angle_beta     89.665
_cell_angle_gamma    90.4505

_space_group_name_H-M_alt    "P 1"
_space_group_IT_number       1

loop_
  _space_group_symop_operation_xyz
  'x, y, z'

loop_
  _atom_site_type_symbol
  _atom_site_label
  _atom_site_symmetry_multiplicity
  _atom_site_fract_x
  _atom_site_fract_y
  _atom_site_fract_z
  _atom_site_occupancy
  Cr  Cr1       1.0  0.99400  0.49400  0.00063  1.0000
  Cr  Cr2       1.0  0.99400  0.49700  0.49900  1.0000
  Cr  Cr3       1.0  0.50300  0.00309  0.50100  1.0000
  Cr  Cr4       1.0  0.50800  0.00488  0.99900  1.0000
  O   O1        1.0  0.80300  0.79900  0.05320  1.0000
  O   O2        1.0  0.09350  0.46600  0.25100  1.0000
  O   O3        1.0  0.41200  0.97600  0.25200  1.0000
  O   O4        1.0  0.69700  0.29900  0.43900  1.0000
  O   O5        1.0  0.79800  0.79600  0.45000  1.0000
  O   O6        1.0  0.29800  0.70400  0.54700  1.0000
  O   O7        1.0  0.19600  0.20000  0.55200  1.0000
  O   O8        1.0  0.60500  0.04040  0.74900  1.0000
  O   O9        1.0  0.89400  0.52700  0.75000  1.0000
  O   O10       1.0  0.20000  0.20100  0.95200  1.0000
  O   O11       1.0  0.30800  0.69600  0.95300  1.0000
  Sm  Sm1       1.0  0.51000  0.56800  0.24600  1.0000
  Sm  Sm2       1.0  0.99700  0.05130  0.25500  1.0000
  Sm  Sm3       1.0  0.47500  0.44400  0.74400  1.0000
  Sm  Sm4       1.0  0.01700  0.93600  0.75500  1.0000
