data_image0
_chemical_formula_structural       O11Sc4Sm4
_chemical_formula_sum              "O11 Sc4 Sm4"
_cell_length_a       5.5218
_cell_length_b       5.75604
_cell_length_c       7.95001
_cell_angle_alpha    90.2061
_cell_angle_beta     89.9597
_cell_angle_gamma    90.3952

_space_group_name_H-M_alt    "P 1"
_space_group_IT_number       1

loop_
  _space_group_symop_operation_xyz
  'x, y, z'

loop_
  _atom_site_type_symbol
  _atom_site_label
  _atom_site_symmetry_multiplicity
  _atom_site_fract_x
  _atom_site_fract_y
  _atom_site_fract_z
  _atom_site_occupancy
  O   O1        1.0  0.80400  0.80000  0.06160  1.0000
  O   O2        1.0  0.39000  0.95700  0.24800  1.0000
  O   O3        1.0  0.11500  0.45500  0.24900  1.0000
  O   O4        1.0  0.69300  0.30300  0.43500  1.0000
  O   O5        1.0  0.80200  0.80100  0.44100  1.0000
  O   O6        1.0  0.19200  0.19600  0.56000  1.0000
  O   O7        1.0  0.30000  0.70100  0.56200  1.0000
  O   O8        1.0  0.61700  0.04830  0.75000  1.0000
  O   O9        1.0  0.88300  0.54400  0.75100  1.0000
  O   O10       1.0  0.30600  0.69700  0.93900  1.0000
  O   O11       1.0  0.19900  0.19800  0.94000  1.0000
  Sc  Sc1       1.0  0.49900  1.00000  0.49900  1.0000
  Sc  Sc2       1.0  0.99900  0.49900  0.50000  1.0000
  Sc  Sc3       1.0  0.50000  0.99900  0.99900  1.0000
  Sc  Sc4       1.0  0.00512  0.49900  1.00000  1.0000
  Sm  Sm1       1.0  0.51900  0.56100  0.24800  1.0000
  Sm  Sm2       1.0  0.98800  0.05400  0.25500  1.0000
  Sm  Sm3       1.0  0.48200  0.44200  0.74800  1.0000
  Sm  Sm4       1.0  0.01410  0.94100  0.75200  1.0000
