data_image0
_chemical_formula_structural       Fe4O11Pr4
_chemical_formula_sum              "Fe4 O11 Pr4"
_cell_length_a       5.48162
_cell_length_b       5.66425
_cell_length_c       7.77748
_cell_angle_alpha    90
_cell_angle_beta     90
_cell_angle_gamma    89.8628

_space_group_name_H-M_alt    "P 1"
_space_group_IT_number       1

loop_
  _space_group_symop_operation_xyz
  'x, y, z'

loop_
  _atom_site_type_symbol
  _atom_site_label
  _atom_site_symmetry_multiplicity
  _atom_site_fract_x
  _atom_site_fract_y
  _atom_site_fract_z
  _atom_site_occupancy
  Fe  Fe1       1.0  0.50200  0.00059  0.00219  1.0000
  Fe  Fe2       1.0  0.50200  0.00059  0.49800  1.0000
  Fe  Fe3       1.0  0.99400  0.50000  0.50500  1.0000
  Fe  Fe4       1.0  0.99400  0.50000  0.99500  1.0000
  O   O1        1.0  0.80000  0.78800  0.05840  1.0000
  O   O2        1.0  0.71800  0.29900  0.05930  1.0000
  O   O3        1.0  0.40500  0.98000  0.25000  1.0000
  O   O4        1.0  0.71800  0.29900  0.44100  1.0000
  O   O5        1.0  0.80000  0.78800  0.44200  1.0000
  O   O6        1.0  0.29500  0.69400  0.53800  1.0000
  O   O7        1.0  0.20200  0.20600  0.54100  1.0000
  O   O8        1.0  0.59100  0.02300  0.75000  1.0000
  O   O9        1.0  0.90400  0.53000  0.75000  1.0000
  O   O10       1.0  0.20200  0.20600  0.95900  1.0000
  O   O11       1.0  0.29500  0.69400  0.96200  1.0000
  Pr  Pr1       1.0  0.98300  0.05640  0.25000  1.0000
  Pr  Pr2       1.0  0.51000  0.56400  0.25000  1.0000
  Pr  Pr3       1.0  0.48200  0.44400  0.75000  1.0000
  Pr  Pr4       1.0  0.01720  0.94800  0.75000  1.0000
