data_image0
_chemical_formula_structural       Ni16Sc6Si7
_chemical_formula_sum              "Ni16 Sc6 Si7"
_cell_length_a       8.06986
_cell_length_b       8.06986
_cell_length_c       8.06986
_cell_angle_alpha    120
_cell_angle_beta     90
_cell_angle_gamma    120

_space_group_name_H-M_alt    "P 1"
_space_group_IT_number       1

loop_
  _space_group_symop_operation_xyz
  'x, y, z'

loop_
  _atom_site_type_symbol
  _atom_site_label
  _atom_site_symmetry_multiplicity
  _atom_site_fract_x
  _atom_site_fract_y
  _atom_site_fract_z
  _atom_site_occupancy
  Ni  Ni1       1.0  0.38100  0.76200  0.14300  1.0000
  Ni  Ni2       1.0  0.50600  0.33700  0.16900  1.0000
  Ni  Ni3       1.0  0.83100  0.33700  0.16900  1.0000
  Ni  Ni4       1.0  0.83100  0.66300  0.16900  1.0000
  Ni  Ni5       1.0  0.61900  0.23800  0.38100  1.0000
  Ni  Ni6       1.0  0.14300  0.76200  0.38100  1.0000
  Ni  Ni7       1.0  0.61900  0.76200  0.38100  1.0000
  Ni  Ni8       1.0  0.83100  0.66300  0.49400  1.0000
  Ni  Ni9       1.0  0.16900  0.33700  0.50600  1.0000
  Ni  Ni10      1.0  0.85700  0.23800  0.61900  1.0000
  Ni  Ni11      1.0  0.38100  0.23800  0.61900  1.0000
  Ni  Ni12      1.0  0.38100  0.76200  0.61900  1.0000
  Ni  Ni13      1.0  0.16900  0.33700  0.83100  1.0000
  Ni  Ni14      1.0  0.16900  0.66300  0.83100  1.0000
  Ni  Ni15      1.0  0.49400  0.66300  0.83100  1.0000
  Ni  Ni16      1.0  0.61900  0.23800  0.85700  1.0000
  Sc  Sc1       1.0  0.79300  0.00000  0.20700  1.0000
  Sc  Sc2       1.0  0.20700  0.00000  0.20700  1.0000
  Sc  Sc3       1.0  0.20700  0.41400  0.20700  1.0000
  Sc  Sc4       1.0  0.20700  0.00000  0.79300  1.0000
  Sc  Sc5       1.0  0.79300  0.58600  0.79300  1.0000
  Sc  Sc6       1.0  0.79300  0.00000  0.79300  1.0000
  Si  Si1       1.0  0.50000  0.00000  0.00000  1.0000
  Si  Si2       1.0  0.00000  0.50000  0.00000  1.0000
  Si  Si3       1.0  0.50000  0.50000  0.00000  1.0000
  Si  Si4       1.0  0.50000  0.00000  0.50000  1.0000
  Si  Si5       1.0  0.00000  0.00000  0.50000  1.0000
  Si  Si6       1.0  0.00000  0.50000  0.50000  1.0000
  Si  Si7       1.0  0.50000  0.50000  0.50000  1.0000
