data_image0
_chemical_formula_structural       Co16Hf6Si7
_chemical_formula_sum              "Co16 Hf6 Si7"
_cell_length_a       7.99808
_cell_length_b       7.99808
_cell_length_c       7.99808
_cell_angle_alpha    120
_cell_angle_beta     90
_cell_angle_gamma    120

_space_group_name_H-M_alt    "P 1"
_space_group_IT_number       1

loop_
  _space_group_symop_operation_xyz
  'x, y, z'

loop_
  _atom_site_type_symbol
  _atom_site_label
  _atom_site_symmetry_multiplicity
  _atom_site_fract_x
  _atom_site_fract_y
  _atom_site_fract_z
  _atom_site_occupancy
  Co  Co1       1.0  0.38000  0.76100  0.14100  1.0000
  Co  Co2       1.0  0.51000  0.34000  0.17000  1.0000
  Co  Co3       1.0  0.83000  0.34000  0.17000  1.0000
  Co  Co4       1.0  0.83000  0.66000  0.17000  1.0000
  Co  Co5       1.0  0.62000  0.23900  0.38000  1.0000
  Co  Co6       1.0  0.14100  0.76100  0.38000  1.0000
  Co  Co7       1.0  0.62000  0.76100  0.38000  1.0000
  Co  Co8       1.0  0.83000  0.66000  0.49000  1.0000
  Co  Co9       1.0  0.17000  0.34000  0.51000  1.0000
  Co  Co10      1.0  0.38000  0.23900  0.62000  1.0000
  Co  Co11      1.0  0.85900  0.23900  0.62000  1.0000
  Co  Co12      1.0  0.38000  0.76100  0.62000  1.0000
  Co  Co13      1.0  0.17000  0.34000  0.83000  1.0000
  Co  Co14      1.0  0.17000  0.66000  0.83000  1.0000
  Co  Co15      1.0  0.49000  0.66000  0.83000  1.0000
  Co  Co16      1.0  0.62000  0.23900  0.85900  1.0000
  Hf  Hf1       1.0  0.20400  0.00000  0.20400  1.0000
  Hf  Hf2       1.0  0.20400  0.40900  0.20400  1.0000
  Hf  Hf3       1.0  0.79600  0.00000  0.20400  1.0000
  Hf  Hf4       1.0  0.79600  1.00000  0.79600  1.0000
  Hf  Hf5       1.0  0.20400  1.00000  0.79600  1.0000
  Hf  Hf6       1.0  0.79600  0.59100  0.79600  1.0000
  Si  Si1       1.0  0.50000  0.00000  0.00000  1.0000
  Si  Si2       1.0  0.00000  0.50000  0.00000  1.0000
  Si  Si3       1.0  0.50000  0.50000  0.00000  1.0000
  Si  Si4       1.0  0.00000  0.00000  0.50000  1.0000
  Si  Si5       1.0  0.50000  0.00000  0.50000  1.0000
  Si  Si6       1.0  0.00000  0.50000  0.50000  1.0000
  Si  Si7       1.0  0.50000  0.50000  0.50000  1.0000
