data_image0
_chemical_formula_structural       La4O19Os6
_chemical_formula_sum              "La4 O19 Os6"
_cell_length_a       7.8298
_cell_length_b       7.8298
_cell_length_c       7.8298
_cell_angle_alpha    109.471
_cell_angle_beta     109.471
_cell_angle_gamma    109.471

_space_group_name_H-M_alt    "P 1"
_space_group_IT_number       1

loop_
  _space_group_symop_operation_xyz
  'x, y, z'

loop_
  _atom_site_type_symbol
  _atom_site_label
  _atom_site_symmetry_multiplicity
  _atom_site_fract_x
  _atom_site_fract_y
  _atom_site_fract_z
  _atom_site_occupancy
  La  La1       1.0  0.31700  0.00000  0.00000  1.0000
  La  La2       1.0  0.00000  0.31700  0.00000  1.0000
  La  La3       1.0  0.00000  0.00000  0.31700  1.0000
  La  La4       1.0  0.68300  0.68300  0.68300  1.0000
  O   O1        1.0  0.00000  0.00000  0.00000  1.0000
  O   O2        1.0  0.32200  0.32200  0.00000  1.0000
  O   O3        1.0  0.67800  0.67800  0.00000  1.0000
  O   O4        1.0  0.32200  0.69800  0.05820  1.0000
  O   O5        1.0  0.94200  0.63900  0.26400  1.0000
  O   O6        1.0  0.62400  0.36100  0.30200  1.0000
  O   O7        1.0  0.69800  0.05820  0.32200  1.0000
  O   O8        1.0  0.32200  0.00000  0.32200  1.0000
  O   O9        1.0  0.00000  0.32200  0.32200  1.0000
  O   O10       1.0  0.30200  0.62400  0.36100  1.0000
  O   O11       1.0  0.67800  0.73600  0.37600  1.0000
  O   O12       1.0  0.36100  0.30200  0.62400  1.0000
  O   O13       1.0  0.26400  0.94200  0.63900  1.0000
  O   O14       1.0  0.67800  0.00000  0.67800  1.0000
  O   O15       1.0  0.00000  0.67800  0.67800  1.0000
  O   O16       1.0  0.73600  0.37600  0.67800  1.0000
  O   O17       1.0  0.05820  0.32200  0.69800  1.0000
  O   O18       1.0  0.37600  0.67800  0.73600  1.0000
  O   O19       1.0  0.63900  0.26400  0.94200  1.0000
  Os  Os1       1.0  0.63700  0.50000  0.13700  1.0000
  Os  Os2       1.0  0.50000  0.86300  0.36300  1.0000
  Os  Os3       1.0  0.86300  0.36300  0.50000  1.0000
  Os  Os4       1.0  0.13700  0.63700  0.50000  1.0000
  Os  Os5       1.0  0.50000  0.13700  0.63700  1.0000
  Os  Os6       1.0  0.36300  0.50000  0.86300  1.0000
