data_image0
_chemical_formula_structural       Ni4O11Pr4
_chemical_formula_sum              "Ni4 O11 Pr4"
_cell_length_a       5.43291
_cell_length_b       5.4587
_cell_length_c       7.64638
_cell_angle_alpha    90
_cell_angle_beta     90
_cell_angle_gamma    89.9186

_space_group_name_H-M_alt    "P 1"
_space_group_IT_number       1

loop_
  _space_group_symop_operation_xyz
  'x, y, z'

loop_
  _atom_site_type_symbol
  _atom_site_label
  _atom_site_symmetry_multiplicity
  _atom_site_fract_x
  _atom_site_fract_y
  _atom_site_fract_z
  _atom_site_occupancy
  Ni  Ni1       1.0  0.50600  0.00018  0.00288  1.0000
  Ni  Ni2       1.0  0.50600  0.00018  0.49700  1.0000
  Ni  Ni3       1.0  0.99600  0.49800  0.51000  1.0000
  Ni  Ni4       1.0  0.99600  0.49800  0.99000  1.0000
  O   O1        1.0  0.73900  0.28700  0.05500  1.0000
  O   O2        1.0  0.79300  0.76500  0.05670  1.0000
  O   O3        1.0  0.42400  0.98900  0.25000  1.0000
  O   O4        1.0  0.79300  0.76500  0.44300  1.0000
  O   O5        1.0  0.73900  0.28700  0.44500  1.0000
  O   O6        1.0  0.27400  0.70700  0.52900  1.0000
  O   O7        1.0  0.21100  0.22700  0.53000  1.0000
  O   O8        1.0  0.57600  0.01680  0.75000  1.0000
  O   O9        1.0  0.90200  0.52800  0.75000  1.0000
  O   O10       1.0  0.21100  0.22700  0.97000  1.0000
  O   O11       1.0  0.27400  0.70700  0.97100  1.0000
  Pr  Pr1       1.0  0.99300  0.03490  0.25000  1.0000
  Pr  Pr2       1.0  0.51100  0.54400  0.25000  1.0000
  Pr  Pr3       1.0  0.48200  0.46100  0.75000  1.0000
  Pr  Pr4       1.0  0.00750  0.96300  0.75000  1.0000
