data_image0
_chemical_formula_structural       Co16Ge7Hf6
_chemical_formula_sum              "Co16 Ge7 Hf6"
_cell_length_a       8.14329
_cell_length_b       8.14329
_cell_length_c       8.14329
_cell_angle_alpha    120
_cell_angle_beta     90
_cell_angle_gamma    120

_space_group_name_H-M_alt    "P 1"
_space_group_IT_number       1

loop_
  _space_group_symop_operation_xyz
  'x, y, z'

loop_
  _atom_site_type_symbol
  _atom_site_label
  _atom_site_symmetry_multiplicity
  _atom_site_fract_x
  _atom_site_fract_y
  _atom_site_fract_z
  _atom_site_occupancy
  Co  Co1       1.0  0.38000  0.75900  0.13900  1.0000
  Co  Co2       1.0  0.50800  0.33900  0.16900  1.0000
  Co  Co3       1.0  0.83100  0.33900  0.16900  1.0000
  Co  Co4       1.0  0.83100  0.66100  0.16900  1.0000
  Co  Co5       1.0  0.62000  0.24100  0.38000  1.0000
  Co  Co6       1.0  0.13900  0.75900  0.38000  1.0000
  Co  Co7       1.0  0.62000  0.75900  0.38000  1.0000
  Co  Co8       1.0  0.83100  0.66100  0.49200  1.0000
  Co  Co9       1.0  0.16900  0.33900  0.50800  1.0000
  Co  Co10      1.0  0.38000  0.24100  0.62000  1.0000
  Co  Co11      1.0  0.86100  0.24100  0.62000  1.0000
  Co  Co12      1.0  0.38000  0.75900  0.62000  1.0000
  Co  Co13      1.0  0.16900  0.33900  0.83100  1.0000
  Co  Co14      1.0  0.16900  0.66100  0.83100  1.0000
  Co  Co15      1.0  0.49200  0.66100  0.83100  1.0000
  Co  Co16      1.0  0.62000  0.24100  0.86100  1.0000
  Ge  Ge1       1.0  0.50000  0.00000  0.00000  1.0000
  Ge  Ge2       1.0  0.00000  0.50000  0.00000  1.0000
  Ge  Ge3       1.0  0.50000  0.50000  0.00000  1.0000
  Ge  Ge4       1.0  0.00000  0.00000  0.50000  1.0000
  Ge  Ge5       1.0  0.50000  0.00000  0.50000  1.0000
  Ge  Ge6       1.0  0.00000  0.50000  0.50000  1.0000
  Ge  Ge7       1.0  0.50000  0.50000  0.50000  1.0000
  Hf  Hf1       1.0  0.20400  0.00000  0.20400  1.0000
  Hf  Hf2       1.0  0.20400  0.40800  0.20400  1.0000
  Hf  Hf3       1.0  0.79600  0.00000  0.20400  1.0000
  Hf  Hf4       1.0  0.20400  1.00000  0.79600  1.0000
  Hf  Hf5       1.0  0.79600  1.00000  0.79600  1.0000
  Hf  Hf6       1.0  0.79600  0.59200  0.79600  1.0000
