data_image0
_chemical_formula_structural       Fe16Si7Ta6
_chemical_formula_sum              "Fe16 Si7 Ta6"
_cell_length_a       7.90082
_cell_length_b       7.90082
_cell_length_c       7.90082
_cell_angle_alpha    120
_cell_angle_beta     90
_cell_angle_gamma    120

_space_group_name_H-M_alt    "P 1"
_space_group_IT_number       1

loop_
  _space_group_symop_operation_xyz
  'x, y, z'

loop_
  _atom_site_type_symbol
  _atom_site_label
  _atom_site_symmetry_multiplicity
  _atom_site_fract_x
  _atom_site_fract_y
  _atom_site_fract_z
  _atom_site_occupancy
  Fe  Fe1       1.0  0.38000  0.76000  0.14100  1.0000
  Fe  Fe2       1.0  0.52000  0.34700  0.17300  1.0000
  Fe  Fe3       1.0  0.82700  0.34700  0.17300  1.0000
  Fe  Fe4       1.0  0.82700  0.65300  0.17300  1.0000
  Fe  Fe5       1.0  0.62000  0.24000  0.38000  1.0000
  Fe  Fe6       1.0  0.14100  0.76000  0.38000  1.0000
  Fe  Fe7       1.0  0.62000  0.76000  0.38000  1.0000
  Fe  Fe8       1.0  0.82700  0.65300  0.48000  1.0000
  Fe  Fe9       1.0  0.17300  0.34700  0.52000  1.0000
  Fe  Fe10      1.0  0.85900  0.24000  0.62000  1.0000
  Fe  Fe11      1.0  0.38000  0.24000  0.62000  1.0000
  Fe  Fe12      1.0  0.38000  0.76000  0.62000  1.0000
  Fe  Fe13      1.0  0.17300  0.34700  0.82700  1.0000
  Fe  Fe14      1.0  0.17300  0.65300  0.82700  1.0000
  Fe  Fe15      1.0  0.48000  0.65300  0.82700  1.0000
  Fe  Fe16      1.0  0.62000  0.24000  0.85900  1.0000
  Si  Si1       1.0  0.50000  0.00000  0.00000  1.0000
  Si  Si2       1.0  0.00000  0.50000  0.00000  1.0000
  Si  Si3       1.0  0.50000  0.50000  0.00000  1.0000
  Si  Si4       1.0  0.00000  0.00000  0.50000  1.0000
  Si  Si5       1.0  0.50000  0.00000  0.50000  1.0000
  Si  Si6       1.0  0.00000  0.50000  0.50000  1.0000
  Si  Si7       1.0  0.50000  0.50000  0.50000  1.0000
  Ta  Ta1       1.0  0.79700  0.00000  0.20300  1.0000
  Ta  Ta2       1.0  0.20300  0.00000  0.20300  1.0000
  Ta  Ta3       1.0  0.20300  0.40700  0.20300  1.0000
  Ta  Ta4       1.0  0.20300  1.00000  0.79700  1.0000
  Ta  Ta5       1.0  0.79700  1.00000  0.79700  1.0000
  Ta  Ta6       1.0  0.79700  0.59300  0.79700  1.0000
