data_image0
_chemical_formula_structural       Mn4O11Pm4
_chemical_formula_sum              "Mn4 O11 Pm4"
_cell_length_a       5.43986
_cell_length_b       5.7291
_cell_length_c       7.77142
_cell_angle_alpha    90
_cell_angle_beta     90
_cell_angle_gamma    89.6696

_space_group_name_H-M_alt    "P 1"
_space_group_IT_number       1

loop_
  _space_group_symop_operation_xyz
  'x, y, z'

loop_
  _atom_site_type_symbol
  _atom_site_label
  _atom_site_symmetry_multiplicity
  _atom_site_fract_x
  _atom_site_fract_y
  _atom_site_fract_z
  _atom_site_occupancy
  Mn  Mn1       1.0  0.50200  0.00000  0.00137  1.0000
  Mn  Mn2       1.0  0.50200  0.00000  0.49900  1.0000
  Mn  Mn3       1.0  0.99600  0.49700  0.50800  1.0000
  Mn  Mn4       1.0  0.99600  0.49700  0.99200  1.0000
  O   O1        1.0  0.72100  0.30700  0.06620  1.0000
  O   O2        1.0  0.81500  0.78100  0.06770  1.0000
  O   O3        1.0  0.38900  0.96800  0.25000  1.0000
  O   O4        1.0  0.81500  0.78100  0.43200  1.0000
  O   O5        1.0  0.72100  0.30700  0.43400  1.0000
  O   O6        1.0  0.29400  0.68200  0.54300  1.0000
  O   O7        1.0  0.18800  0.21000  0.54500  1.0000
  O   O8        1.0  0.60700  0.04080  0.75000  1.0000
  O   O9        1.0  0.87400  0.55400  0.75000  1.0000
  O   O10       1.0  0.18800  0.21000  0.95500  1.0000
  O   O11       1.0  0.29400  0.68200  0.95700  1.0000
  Pm  Pm1       1.0  0.97900  0.05560  0.25000  1.0000
  Pm  Pm2       1.0  0.53000  0.57400  0.25000  1.0000
  Pm  Pm3       1.0  0.47800  0.43700  0.75000  1.0000
  Pm  Pm4       1.0  0.01470  0.94100  0.75000  1.0000
