data_image0
_chemical_formula_structural       O11Pr4V4
_chemical_formula_sum              "O11 Pr4 V4"
_cell_length_a       5.48223
_cell_length_b       5.67507
_cell_length_c       7.7741
_cell_angle_alpha    90
_cell_angle_beta     90
_cell_angle_gamma    90.6915

_space_group_name_H-M_alt    "P 1"
_space_group_IT_number       1

loop_
  _space_group_symop_operation_xyz
  'x, y, z'

loop_
  _atom_site_type_symbol
  _atom_site_label
  _atom_site_symmetry_multiplicity
  _atom_site_fract_x
  _atom_site_fract_y
  _atom_site_fract_z
  _atom_site_occupancy
  O   O1        1.0  0.70500  0.29300  0.04630  1.0000
  O   O2        1.0  0.79800  0.78900  0.04820  1.0000
  O   O3        1.0  0.41300  0.97800  0.25000  1.0000
  O   O4        1.0  0.79800  0.78900  0.45200  1.0000
  O   O5        1.0  0.70500  0.29300  0.45400  1.0000
  O   O6        1.0  0.29700  0.70400  0.54000  1.0000
  O   O7        1.0  0.20000  0.21100  0.54100  1.0000
  O   O8        1.0  0.58400  0.02390  0.75000  1.0000
  O   O9        1.0  0.90800  0.52800  0.75000  1.0000
  O   O10       1.0  0.20000  0.21100  0.95900  1.0000
  O   O11       1.0  0.29700  0.70400  0.96000  1.0000
  Pr  Pr1       1.0  0.98900  0.05010  0.25000  1.0000
  Pr  Pr2       1.0  0.51800  0.55200  0.25000  1.0000
  Pr  Pr3       1.0  0.48600  0.45000  0.75000  1.0000
  Pr  Pr4       1.0  0.01030  0.94500  0.75000  1.0000
  V   V1        1.0  0.50000  0.00060  0.00124  1.0000
  V   V2        1.0  0.00000  0.50100  0.00832  1.0000
  V   V3        1.0  0.00000  0.50100  0.49200  1.0000
  V   V4        1.0  0.50000  0.00060  0.49900  1.0000
