data_image0
_chemical_formula_structural       Nd4O19Os6
_chemical_formula_sum              "Nd4 O19 Os6"
_cell_length_a       7.76482
_cell_length_b       7.76482
_cell_length_c       7.76482
_cell_angle_alpha    109.471
_cell_angle_beta     109.471
_cell_angle_gamma    109.471

_space_group_name_H-M_alt    "P 1"
_space_group_IT_number       1

loop_
  _space_group_symop_operation_xyz
  'x, y, z'

loop_
  _atom_site_type_symbol
  _atom_site_label
  _atom_site_symmetry_multiplicity
  _atom_site_fract_x
  _atom_site_fract_y
  _atom_site_fract_z
  _atom_site_occupancy
  Nd  Nd1       1.0  0.31300  0.00000  0.00000  1.0000
  Nd  Nd2       1.0  0.00000  0.31300  0.00000  1.0000
  Nd  Nd3       1.0  0.00000  0.00000  0.31300  1.0000
  Nd  Nd4       1.0  0.68700  0.68700  0.68700  1.0000
  O   O1        1.0  0.00000  0.00000  0.00000  1.0000
  O   O2        1.0  0.32000  0.32000  0.00000  1.0000
  O   O3        1.0  0.68000  0.68000  0.00000  1.0000
  O   O4        1.0  0.31700  0.69700  0.05580  1.0000
  O   O5        1.0  0.94400  0.64200  0.26100  1.0000
  O   O6        1.0  0.62000  0.35800  0.30300  1.0000
  O   O7        1.0  0.69700  0.05580  0.31700  1.0000
  O   O8        1.0  0.32000  0.00000  0.32000  1.0000
  O   O9        1.0  0.00000  0.32000  0.32000  1.0000
  O   O10       1.0  0.30300  0.62000  0.35800  1.0000
  O   O11       1.0  0.68300  0.73900  0.38000  1.0000
  O   O12       1.0  0.35800  0.30300  0.62000  1.0000
  O   O13       1.0  0.26100  0.94400  0.64200  1.0000
  O   O14       1.0  0.68000  0.00000  0.68000  1.0000
  O   O15       1.0  0.00000  0.68000  0.68000  1.0000
  O   O16       1.0  0.73900  0.38000  0.68300  1.0000
  O   O17       1.0  0.05580  0.31700  0.69700  1.0000
  O   O18       1.0  0.38000  0.68300  0.73900  1.0000
  O   O19       1.0  0.64200  0.26100  0.94400  1.0000
  Os  Os1       1.0  0.63800  0.50000  0.13800  1.0000
  Os  Os2       1.0  0.50000  0.86200  0.36200  1.0000
  Os  Os3       1.0  0.86200  0.36200  0.50000  1.0000
  Os  Os4       1.0  0.13800  0.63800  0.50000  1.0000
  Os  Os5       1.0  0.50000  0.13800  0.63800  1.0000
  Os  Os6       1.0  0.36200  0.50000  0.86200  1.0000
