data_image0
_chemical_formula_structural       O11Rb4U4
_chemical_formula_sum              "O11 Rb4 U4"
_cell_length_a       6.21413
_cell_length_b       6.21467
_cell_length_c       8.8289
_cell_angle_alpha    90
_cell_angle_beta     90
_cell_angle_gamma    89.9999

_space_group_name_H-M_alt    "P 1"
_space_group_IT_number       1

loop_
  _space_group_symop_operation_xyz
  'x, y, z'

loop_
  _atom_site_type_symbol
  _atom_site_label
  _atom_site_symmetry_multiplicity
  _atom_site_fract_x
  _atom_site_fract_y
  _atom_site_fract_z
  _atom_site_occupancy
  O   O1        1.0  0.25300  0.75000  0.01100  1.0000
  O   O2        1.0  0.25000  0.24700  0.01110  1.0000
  O   O3        1.0  0.75000  0.75300  0.01270  1.0000
  O   O4        1.0  0.74700  0.25000  0.01280  1.0000
  O   O5        1.0  0.49800  0.00000  0.25000  1.0000
  O   O6        1.0  0.74700  0.25000  0.48700  1.0000
  O   O7        1.0  0.75000  0.75300  0.48700  1.0000
  O   O8        1.0  0.25000  0.24700  0.48900  1.0000
  O   O9        1.0  0.25300  0.75000  0.48900  1.0000
  O   O10       1.0  0.50200  0.00014  0.75000  1.0000
  O   O11       1.0  0.99800  0.50000  0.75000  1.0000
  Rb  Rb1       1.0  0.00000  0.00000  0.25000  1.0000
  Rb  Rb2       1.0  0.50000  0.50000  0.25000  1.0000
  Rb  Rb3       1.0  0.00000  0.00000  0.75000  1.0000
  Rb  Rb4       1.0  0.50000  0.50000  0.75000  1.0000
  U   U1        1.0  0.50000  0.00000  0.00277  1.0000
  U   U2        1.0  0.50000  0.00000  0.49700  1.0000
  U   U3        1.0  0.00000  0.50000  0.50900  1.0000
  U   U4        1.0  0.00000  0.50000  0.99100  1.0000
