data_image0
_chemical_formula_structural       Au7Cd16Na6
_chemical_formula_sum              "Au7 Cd16 Na6"
_cell_length_a       9.68569
_cell_length_b       9.68569
_cell_length_c       9.68569
_cell_angle_alpha    120
_cell_angle_beta     90
_cell_angle_gamma    120

_space_group_name_H-M_alt    "P 1"
_space_group_IT_number       1

loop_
  _space_group_symop_operation_xyz
  'x, y, z'

loop_
  _atom_site_type_symbol
  _atom_site_label
  _atom_site_symmetry_multiplicity
  _atom_site_fract_x
  _atom_site_fract_y
  _atom_site_fract_z
  _atom_site_occupancy
  Au  Au1       1.0  0.50000  0.00000  0.00000  1.0000
  Au  Au2       1.0  0.00000  0.50000  0.00000  1.0000
  Au  Au3       1.0  0.50000  0.50000  0.00000  1.0000
  Au  Au4       1.0  0.50000  0.00000  0.50000  1.0000
  Au  Au5       1.0  0.00000  0.00000  0.50000  1.0000
  Au  Au6       1.0  0.00000  0.50000  0.50000  1.0000
  Au  Au7       1.0  0.50000  0.50000  0.50000  1.0000
  Cd  Cd1       1.0  0.38100  0.76200  0.14300  1.0000
  Cd  Cd2       1.0  0.48600  0.32400  0.16200  1.0000
  Cd  Cd3       1.0  0.83800  0.32400  0.16200  1.0000
  Cd  Cd4       1.0  0.83800  0.67600  0.16200  1.0000
  Cd  Cd5       1.0  0.61900  0.23800  0.38100  1.0000
  Cd  Cd6       1.0  0.14300  0.76200  0.38100  1.0000
  Cd  Cd7       1.0  0.61900  0.76200  0.38100  1.0000
  Cd  Cd8       1.0  0.16200  0.32400  0.48600  1.0000
  Cd  Cd9       1.0  0.83800  0.67600  0.51400  1.0000
  Cd  Cd10      1.0  0.38100  0.23800  0.61900  1.0000
  Cd  Cd11      1.0  0.38100  0.76200  0.61900  1.0000
  Cd  Cd12      1.0  0.85700  0.23800  0.61900  1.0000
  Cd  Cd13      1.0  0.16200  0.32400  0.83800  1.0000
  Cd  Cd14      1.0  0.16200  0.67600  0.83800  1.0000
  Cd  Cd15      1.0  0.51400  0.67600  0.83800  1.0000
  Cd  Cd16      1.0  0.61900  0.23800  0.85700  1.0000
  Na  Na1       1.0  0.79200  0.00000  0.20800  1.0000
  Na  Na2       1.0  0.20800  0.00000  0.20800  1.0000
  Na  Na3       1.0  0.20800  0.41700  0.20800  1.0000
  Na  Na4       1.0  0.20800  0.00000  0.79200  1.0000
  Na  Na5       1.0  0.79200  0.00000  0.79200  1.0000
  Na  Na6       1.0  0.79200  0.58300  0.79200  1.0000
