data_image0
_chemical_formula_structural       Fe16Hf6Si7
_chemical_formula_sum              "Fe16 Hf6 Si7"
_cell_length_a       8.034
_cell_length_b       8.034
_cell_length_c       8.034
_cell_angle_alpha    120
_cell_angle_beta     90
_cell_angle_gamma    120

_space_group_name_H-M_alt    "P 1"
_space_group_IT_number       1

loop_
  _space_group_symop_operation_xyz
  'x, y, z'

loop_
  _atom_site_type_symbol
  _atom_site_label
  _atom_site_symmetry_multiplicity
  _atom_site_fract_x
  _atom_site_fract_y
  _atom_site_fract_z
  _atom_site_occupancy
  Fe  Fe1       1.0  0.37900  0.75800  0.13700  1.0000
  Fe  Fe2       1.0  0.52700  0.35100  0.17600  1.0000
  Fe  Fe3       1.0  0.82400  0.35100  0.17600  1.0000
  Fe  Fe4       1.0  0.82400  0.64900  0.17600  1.0000
  Fe  Fe5       1.0  0.62100  0.24200  0.37900  1.0000
  Fe  Fe6       1.0  0.13700  0.75800  0.37900  1.0000
  Fe  Fe7       1.0  0.62100  0.75800  0.37900  1.0000
  Fe  Fe8       1.0  0.82400  0.64900  0.47300  1.0000
  Fe  Fe9       1.0  0.17600  0.35100  0.52700  1.0000
  Fe  Fe10      1.0  0.37900  0.24200  0.62100  1.0000
  Fe  Fe11      1.0  0.37900  0.75800  0.62100  1.0000
  Fe  Fe12      1.0  0.86300  0.24200  0.62100  1.0000
  Fe  Fe13      1.0  0.17600  0.35100  0.82400  1.0000
  Fe  Fe14      1.0  0.17600  0.64900  0.82400  1.0000
  Fe  Fe15      1.0  0.47300  0.64900  0.82400  1.0000
  Fe  Fe16      1.0  0.62100  0.24200  0.86300  1.0000
  Hf  Hf1       1.0  0.20400  0.00000  0.20400  1.0000
  Hf  Hf2       1.0  0.20400  0.40900  0.20400  1.0000
  Hf  Hf3       1.0  0.79600  0.00000  0.20400  1.0000
  Hf  Hf4       1.0  0.20400  1.00000  0.79600  1.0000
  Hf  Hf5       1.0  0.79600  1.00000  0.79600  1.0000
  Hf  Hf6       1.0  0.79600  0.59100  0.79600  1.0000
  Si  Si1       1.0  0.50000  0.00000  0.00000  1.0000
  Si  Si2       1.0  0.00000  0.50000  0.00000  1.0000
  Si  Si3       1.0  0.50000  0.50000  0.00000  1.0000
  Si  Si4       1.0  0.00000  0.00000  0.50000  1.0000
  Si  Si5       1.0  0.50000  0.00000  0.50000  1.0000
  Si  Si6       1.0  0.00000  0.50000  0.50000  1.0000
  Si  Si7       1.0  0.50000  0.50000  0.50000  1.0000
