data_image0
_chemical_formula_structural       Fe4O11Sm4
_chemical_formula_sum              "Fe4 O11 Sm4"
_cell_length_a       5.38289
_cell_length_b       5.65731
_cell_length_c       7.68218
_cell_angle_alpha    90
_cell_angle_beta     90
_cell_angle_gamma    89.8322

_space_group_name_H-M_alt    "P 1"
_space_group_IT_number       1

loop_
  _space_group_symop_operation_xyz
  'x, y, z'

loop_
  _atom_site_type_symbol
  _atom_site_label
  _atom_site_symmetry_multiplicity
  _atom_site_fract_x
  _atom_site_fract_y
  _atom_site_fract_z
  _atom_site_occupancy
  Fe  Fe1       1.0  0.50200  0.00105  0.00174  1.0000
  Fe  Fe2       1.0  0.50200  0.00105  0.49800  1.0000
  Fe  Fe3       1.0  0.99300  0.50000  0.50500  1.0000
  Fe  Fe4       1.0  0.99300  0.50000  0.99500  1.0000
  O   O1        1.0  0.80800  0.79500  0.06370  1.0000
  O   O2        1.0  0.71000  0.30600  0.06380  1.0000
  O   O3        1.0  0.39200  0.97400  0.25000  1.0000
  O   O4        1.0  0.71000  0.30600  0.43600  1.0000
  O   O5        1.0  0.80800  0.79500  0.43600  1.0000
  O   O6        1.0  0.30300  0.68600  0.54200  1.0000
  O   O7        1.0  0.19300  0.19900  0.54700  1.0000
  O   O8        1.0  0.60400  0.03060  0.75000  1.0000
  O   O9        1.0  0.89000  0.54000  0.75000  1.0000
  O   O10       1.0  0.19300  0.19900  0.95300  1.0000
  O   O11       1.0  0.30300  0.68600  0.95800  1.0000
  Sm  Sm1       1.0  0.97800  0.06490  0.25000  1.0000
  Sm  Sm2       1.0  0.51700  0.57600  0.25000  1.0000
  Sm  Sm3       1.0  0.47900  0.43300  0.75000  1.0000
  Sm  Sm4       1.0  0.02080  0.93800  0.75000  1.0000
