data_image0
_chemical_formula_structural       Ce3Ge6Pd20
_chemical_formula_sum              "Ce3 Ge6 Pd20"
_cell_length_a       8.95924
_cell_length_b       8.95924
_cell_length_c       8.95924
_cell_angle_alpha    120
_cell_angle_beta     90
_cell_angle_gamma    120

_space_group_name_H-M_alt    "P 1"
_space_group_IT_number       1

loop_
  _space_group_symop_operation_xyz
  'x, y, z'

loop_
  _atom_site_type_symbol
  _atom_site_label
  _atom_site_symmetry_multiplicity
  _atom_site_fract_x
  _atom_site_fract_y
  _atom_site_fract_z
  _atom_site_occupancy
  Ce  Ce1       1.0  0.00000  0.00000  0.00000  1.0000
  Ce  Ce2       1.0  0.75000  0.50000  0.25000  1.0000
  Ce  Ce3       1.0  0.25000  0.50000  0.75000  1.0000
  Ge  Ge1       1.0  0.73300  0.00000  0.26700  1.0000
  Ge  Ge2       1.0  0.26700  0.00000  0.26700  1.0000
  Ge  Ge3       1.0  0.26700  0.53400  0.26700  1.0000
  Ge  Ge4       1.0  0.26700  0.00000  0.73300  1.0000
  Ge  Ge5       1.0  0.73300  0.00000  0.73300  1.0000
  Ge  Ge6       1.0  0.73300  0.46600  0.73300  1.0000
  Pd  Pd1       1.0  0.34900  0.00000  0.00000  1.0000
  Pd  Pd2       1.0  0.65100  0.00000  0.00000  1.0000
  Pd  Pd3       1.0  0.00000  0.34900  0.00000  1.0000
  Pd  Pd4       1.0  0.34900  0.34900  0.00000  1.0000
  Pd  Pd5       1.0  0.00000  0.65100  0.00000  1.0000
  Pd  Pd6       1.0  0.65100  0.65100  0.00000  1.0000
  Pd  Pd7       1.0  0.38500  0.76900  0.15400  1.0000
  Pd  Pd8       1.0  0.00000  0.00000  0.34900  1.0000
  Pd  Pd9       1.0  0.00000  0.34900  0.34900  1.0000
  Pd  Pd10      1.0  0.34900  0.34900  0.34900  1.0000
  Pd  Pd11      1.0  0.61500  0.23100  0.38500  1.0000
  Pd  Pd12      1.0  0.15400  0.76900  0.38500  1.0000
  Pd  Pd13      1.0  0.61500  0.76900  0.38500  1.0000
  Pd  Pd14      1.0  0.38500  0.23100  0.61500  1.0000
  Pd  Pd15      1.0  0.84600  0.23100  0.61500  1.0000
  Pd  Pd16      1.0  0.38500  0.76900  0.61500  1.0000
  Pd  Pd17      1.0  0.00000  1.00000  0.65100  1.0000
  Pd  Pd18      1.0  0.00000  0.65100  0.65100  1.0000
  Pd  Pd19      1.0  0.65100  0.65100  0.65100  1.0000
  Pd  Pd20      1.0  0.61500  0.23100  0.84600  1.0000
