data_image0
_chemical_formula_structural       Hf5Re24
_chemical_formula_sum              "Hf5 Re24"
_cell_length_a       8.43605
_cell_length_b       8.43605
_cell_length_c       8.43605
_cell_angle_alpha    109.471
_cell_angle_beta     109.471
_cell_angle_gamma    109.471

_space_group_name_H-M_alt    "P 1"
_space_group_IT_number       1

loop_
  _space_group_symop_operation_xyz
  'x, y, z'

loop_
  _atom_site_type_symbol
  _atom_site_label
  _atom_site_symmetry_multiplicity
  _atom_site_fract_x
  _atom_site_fract_y
  _atom_site_fract_z
  _atom_site_occupancy
  Hf  Hf1       1.0  0.00000  0.00000  0.00000  1.0000
  Hf  Hf2       1.0  0.37100  0.00000  0.00000  1.0000
  Hf  Hf3       1.0  0.00000  0.37100  0.00000  1.0000
  Hf  Hf4       1.0  0.00000  0.00000  0.37100  1.0000
  Hf  Hf5       1.0  0.62900  0.62900  0.62900  1.0000
  Re  Re1       1.0  0.60400  0.32300  0.00000  1.0000
  Re  Re2       1.0  0.32300  0.60400  0.00000  1.0000
  Re  Re3       1.0  0.80600  0.62400  0.00000  1.0000
  Re  Re4       1.0  0.62400  0.80600  0.00000  1.0000
  Re  Re5       1.0  0.37600  0.37600  0.18200  1.0000
  Re  Re6       1.0  0.81800  0.19400  0.19400  1.0000
  Re  Re7       1.0  0.19400  0.81800  0.19400  1.0000
  Re  Re8       1.0  0.67700  0.67700  0.28100  1.0000
  Re  Re9       1.0  0.60400  0.00000  0.32300  1.0000
  Re  Re10      1.0  0.00000  0.60400  0.32300  1.0000
  Re  Re11      1.0  0.37600  0.18200  0.37600  1.0000
  Re  Re12      1.0  0.18200  0.37600  0.37600  1.0000
  Re  Re13      1.0  0.71900  0.39600  0.39600  1.0000
  Re  Re14      1.0  0.39600  0.71900  0.39600  1.0000
  Re  Re15      1.0  0.32300  0.00000  0.60400  1.0000
  Re  Re16      1.0  0.00000  0.32300  0.60400  1.0000
  Re  Re17      1.0  0.80600  0.00000  0.62400  1.0000
  Re  Re18      1.0  0.00000  0.80600  0.62400  1.0000
  Re  Re19      1.0  0.67700  0.28100  0.67700  1.0000
  Re  Re20      1.0  0.28100  0.67700  0.67700  1.0000
  Re  Re21      1.0  0.39600  0.39600  0.71900  1.0000
  Re  Re22      1.0  0.62400  0.00000  0.80600  1.0000
  Re  Re23      1.0  0.00000  0.62400  0.80600  1.0000
  Re  Re24      1.0  0.19400  0.19400  0.81800  1.0000
