data_image0
_chemical_formula_structural       I4O20Tl2U3
_chemical_formula_sum              "I4 O20 Tl2 U3"
_cell_length_a       7.0759
_cell_length_b       7.77395
_cell_length_c       8.90629
_cell_angle_alpha    92.423
_cell_angle_beta     105.395
_cell_angle_gamma    92.0016

_space_group_name_H-M_alt    "P 1"
_space_group_IT_number       1

loop_
  _space_group_symop_operation_xyz
  'x, y, z'

loop_
  _atom_site_type_symbol
  _atom_site_label
  _atom_site_symmetry_multiplicity
  _atom_site_fract_x
  _atom_site_fract_y
  _atom_site_fract_z
  _atom_site_occupancy
  I   I1        1.0  0.12800  0.80200  0.39000  1.0000
  I   I2        1.0  0.29300  0.35100  0.42700  1.0000
  I   I3        1.0  0.70700  0.64900  0.57300  1.0000
  I   I4        1.0  0.87200  0.19800  0.61000  1.0000
  O   O1        1.0  0.69200  0.02130  0.01660  1.0000
  O   O2        1.0  0.06060  0.22200  0.07350  1.0000
  O   O3        1.0  0.53600  0.70000  0.12500  1.0000
  O   O4        1.0  0.23200  0.91700  0.24500  1.0000
  O   O5        1.0  0.57200  0.14300  0.27800  1.0000
  O   O6        1.0  0.09700  0.59500  0.28100  1.0000
  O   O7        1.0  0.89800  0.90200  0.29700  1.0000
  O   O8        1.0  0.64600  0.47100  0.42400  1.0000
  O   O9        1.0  0.04100  0.28600  0.43400  1.0000
  O   O10       1.0  0.57700  0.81900  0.45400  1.0000
  O   O11       1.0  0.42300  0.18100  0.54600  1.0000
  O   O12       1.0  0.95900  0.71400  0.56600  1.0000
  O   O13       1.0  0.35400  0.52900  0.57600  1.0000
  O   O14       1.0  0.10200  0.09760  0.70300  1.0000
  O   O15       1.0  0.90300  0.40500  0.71900  1.0000
  O   O16       1.0  0.42800  0.85700  0.72200  1.0000
  O   O17       1.0  0.76800  0.08280  0.75500  1.0000
  O   O18       1.0  0.46400  0.30000  0.87500  1.0000
  O   O19       1.0  0.93900  0.77800  0.92600  1.0000
  O   O20       1.0  0.30800  0.97900  0.98300  1.0000
  Tl  Tl1       1.0  0.75500  0.41100  0.15000  1.0000
  Tl  Tl2       1.0  0.24500  0.58900  0.85000  1.0000
  U   U1        1.0  0.00000  0.00000  0.00000  1.0000
  U   U2        1.0  0.55300  0.92200  0.20000  1.0000
  U   U3        1.0  0.44700  0.07810  0.80000  1.0000
