data_image0
_chemical_formula_structural       Al2MgSi2
_chemical_formula_sum              "Al2 Mg1 Si2"
_cell_length_a       4.07493
_cell_length_b       4.07509
_cell_length_c       6.68256
_cell_angle_alpha    90
_cell_angle_beta     89.9978
_cell_angle_gamma    120.001

_space_group_name_H-M_alt    "P 1"
_space_group_IT_number       1

loop_
  _space_group_symop_operation_xyz
  'x, y, z'

loop_
  _atom_site_type_symbol
  _atom_site_label
  _atom_site_symmetry_multiplicity
  _atom_site_fract_x
  _atom_site_fract_y
  _atom_site_fract_z
  _atom_site_occupancy
  Al  Al1       1.0  0.66700  0.33300  0.36800  1.0000
  Al  Al2       1.0  0.33300  0.66700  0.63200  1.0000
  Mg  Mg1       1.0  0.00000  0.00000  0.00000  1.0000
  Si  Si1       1.0  0.33300  0.66700  0.24300  1.0000
  Si  Si2       1.0  0.66700  0.33300  0.75700  1.0000
