data_image0
_chemical_formula_structural       La4O19Ru6
_chemical_formula_sum              "La4 O19 Ru6"
_cell_length_a       7.76363
_cell_length_b       7.76363
_cell_length_c       7.76363
_cell_angle_alpha    109.471
_cell_angle_beta     109.471
_cell_angle_gamma    109.471

_space_group_name_H-M_alt    "P 1"
_space_group_IT_number       1

loop_
  _space_group_symop_operation_xyz
  'x, y, z'

loop_
  _atom_site_type_symbol
  _atom_site_label
  _atom_site_symmetry_multiplicity
  _atom_site_fract_x
  _atom_site_fract_y
  _atom_site_fract_z
  _atom_site_occupancy
  La  La1       1.0  0.32300  0.00000  0.00000  1.0000
  La  La2       1.0  0.00000  0.32300  0.00000  1.0000
  La  La3       1.0  0.00000  0.00000  0.32300  1.0000
  La  La4       1.0  0.67700  0.67700  0.67700  1.0000
  O   O1        1.0  0.00000  0.00000  0.00000  1.0000
  O   O2        1.0  0.32400  0.32400  0.00000  1.0000
  O   O3        1.0  0.67600  0.67600  0.00000  1.0000
  O   O4        1.0  0.31200  0.68900  0.05640  1.0000
  O   O5        1.0  0.94400  0.63300  0.25500  1.0000
  O   O6        1.0  0.62200  0.36700  0.31100  1.0000
  O   O7        1.0  0.68900  0.05640  0.31200  1.0000
  O   O8        1.0  0.32400  0.00000  0.32400  1.0000
  O   O9        1.0  0.00000  0.32400  0.32400  1.0000
  O   O10       1.0  0.31100  0.62200  0.36700  1.0000
  O   O11       1.0  0.68800  0.74500  0.37800  1.0000
  O   O12       1.0  0.36700  0.31100  0.62200  1.0000
  O   O13       1.0  0.25500  0.94400  0.63300  1.0000
  O   O14       1.0  0.67600  0.00000  0.67600  1.0000
  O   O15       1.0  0.00000  0.67600  0.67600  1.0000
  O   O16       1.0  0.74500  0.37800  0.68800  1.0000
  O   O17       1.0  0.05640  0.31200  0.68900  1.0000
  O   O18       1.0  0.37800  0.68800  0.74500  1.0000
  O   O19       1.0  0.63300  0.25500  0.94400  1.0000
  Ru  Ru1       1.0  0.63700  0.50000  0.13700  1.0000
  Ru  Ru2       1.0  0.50000  0.86300  0.36300  1.0000
  Ru  Ru3       1.0  0.86300  0.36300  0.50000  1.0000
  Ru  Ru4       1.0  0.13700  0.63700  0.50000  1.0000
  Ru  Ru5       1.0  0.50000  0.13700  0.63700  1.0000
  Ru  Ru6       1.0  0.36300  0.50000  0.86300  1.0000
