data_image0
_chemical_formula_structural       O11Pr4Ti4
_chemical_formula_sum              "O11 Pr4 Ti4"
_cell_length_a       5.50205
_cell_length_b       5.64667
_cell_length_c       7.79496
_cell_angle_alpha    90
_cell_angle_beta     90
_cell_angle_gamma    90.0839

_space_group_name_H-M_alt    "P 1"
_space_group_IT_number       1

loop_
  _space_group_symop_operation_xyz
  'x, y, z'

loop_
  _atom_site_type_symbol
  _atom_site_label
  _atom_site_symmetry_multiplicity
  _atom_site_fract_x
  _atom_site_fract_y
  _atom_site_fract_z
  _atom_site_occupancy
  O   O1        1.0  0.79200  0.79300  0.03820  1.0000
  O   O2        1.0  0.70600  0.29100  0.04140  1.0000
  O   O3        1.0  0.41900  0.98000  0.25000  1.0000
  O   O4        1.0  0.70600  0.29100  0.45900  1.0000
  O   O5        1.0  0.79200  0.79300  0.46200  1.0000
  O   O6        1.0  0.20300  0.20800  0.53600  1.0000
  O   O7        1.0  0.29400  0.70600  0.53900  1.0000
  O   O8        1.0  0.57900  0.02370  0.75000  1.0000
  O   O9        1.0  0.91700  0.52400  0.75000  1.0000
  O   O10       1.0  0.29400  0.70600  0.96100  1.0000
  O   O11       1.0  0.20300  0.20800  0.96400  1.0000
  Pr  Pr1       1.0  0.99500  0.04310  0.25000  1.0000
  Pr  Pr2       1.0  0.51200  0.55100  0.25000  1.0000
  Pr  Pr3       1.0  0.49300  0.45300  0.75000  1.0000
  Pr  Pr4       1.0  0.00735  0.94600  0.75000  1.0000
  Ti  Ti1       1.0  0.50100  0.00194  0.00123  1.0000
  Ti  Ti2       1.0  0.99900  0.50100  0.01160  1.0000
  Ti  Ti3       1.0  0.99900  0.50100  0.48800  1.0000
  Ti  Ti4       1.0  0.50100  0.00194  0.49900  1.0000
