data_image0
_chemical_formula_structural       Co10Ge3O16
_chemical_formula_sum              "Co10 Ge3 O16"
_cell_length_a       5.95433
_cell_length_b       5.95433
_cell_length_c       10.2163
_cell_angle_alpha    73.0574
_cell_angle_beta     106.943
_cell_angle_gamma    120

_space_group_name_H-M_alt    "P 1"
_space_group_IT_number       1

loop_
  _space_group_symop_operation_xyz
  'x, y, z'

loop_
  _atom_site_type_symbol
  _atom_site_label
  _atom_site_symmetry_multiplicity
  _atom_site_fract_x
  _atom_site_fract_y
  _atom_site_fract_z
  _atom_site_occupancy
  Co  Co1       1.0  0.50000  0.00000  0.00000  1.0000
  Co  Co2       1.0  0.50000  0.50000  0.00000  1.0000
  Co  Co3       1.0  0.00000  0.50000  0.00000  1.0000
  Co  Co4       1.0  0.24900  0.24200  0.25700  1.0000
  Co  Co5       1.0  0.24900  0.75100  0.25700  1.0000
  Co  Co6       1.0  0.75800  0.75100  0.25700  1.0000
  Co  Co7       1.0  0.50000  0.50000  0.50000  1.0000
  Co  Co8       1.0  0.75100  0.24900  0.74300  1.0000
  Co  Co9       1.0  0.24200  0.24900  0.74300  1.0000
  Co  Co10      1.0  0.75100  0.75800  0.74300  1.0000
  Ge  Ge1       1.0  0.00000  0.00000  0.00000  1.0000
  Ge  Ge2       1.0  0.81100  0.18900  0.43200  1.0000
  Ge  Ge3       1.0  0.18900  0.81100  0.56800  1.0000
  O   O1        1.0  0.88700  0.11300  0.11500  1.0000
  O   O2        1.0  0.34000  0.11300  0.11500  1.0000
  O   O3        1.0  0.88700  0.66000  0.11500  1.0000
  O   O4        1.0  0.37700  0.62300  0.13000  1.0000
  O   O5        1.0  0.12300  0.37300  0.37700  1.0000
  O   O6        1.0  0.62700  0.37300  0.37700  1.0000
  O   O7        1.0  0.62700  0.87700  0.37700  1.0000
  O   O8        1.0  0.12700  0.87300  0.38000  1.0000
  O   O9        1.0  0.87300  0.12700  0.62000  1.0000
  O   O10       1.0  0.37300  0.12300  0.62300  1.0000
  O   O11       1.0  0.37300  0.62700  0.62300  1.0000
  O   O12       1.0  0.87700  0.62700  0.62300  1.0000
  O   O13       1.0  0.62300  0.37700  0.87000  1.0000
  O   O14       1.0  0.11300  0.34000  0.88500  1.0000
  O   O15       1.0  0.66000  0.88700  0.88500  1.0000
  O   O16       1.0  0.11300  0.88700  0.88500  1.0000
