data_image0
_chemical_formula_structural       Hf4O11Pu4
_chemical_formula_sum              "Hf4 O11 Pu4"
_cell_length_a       5.72743
_cell_length_b       5.78388
_cell_length_c       8.15563
_cell_angle_alpha    90
_cell_angle_beta     90
_cell_angle_gamma    90.0107

_space_group_name_H-M_alt    "P 1"
_space_group_IT_number       1

loop_
  _space_group_symop_operation_xyz
  'x, y, z'

loop_
  _atom_site_type_symbol
  _atom_site_label
  _atom_site_symmetry_multiplicity
  _atom_site_fract_x
  _atom_site_fract_y
  _atom_site_fract_z
  _atom_site_occupancy
  Hf  Hf1       1.0  0.00000  0.50000  0.00475  1.0000
  Hf  Hf2       1.0  0.00000  0.50000  0.49500  1.0000
  Hf  Hf3       1.0  0.49900  0.00073  0.50000  1.0000
  Hf  Hf4       1.0  0.49900  0.00073  0.00000  1.0000
  O   O1        1.0  0.79000  0.79100  0.03210  1.0000
  O   O2        1.0  0.70700  0.29200  0.03360  1.0000
  O   O3        1.0  0.43600  0.98400  0.25000  1.0000
  O   O4        1.0  0.70700  0.29200  0.46600  1.0000
  O   O5        1.0  0.79000  0.79100  0.46800  1.0000
  O   O6        1.0  0.20600  0.21000  0.53100  1.0000
  O   O7        1.0  0.29000  0.70800  0.53300  1.0000
  O   O8        1.0  0.56500  0.01500  0.75000  1.0000
  O   O9        1.0  0.93500  0.51400  0.75000  1.0000
  O   O10       1.0  0.29000  0.70800  0.96700  1.0000
  O   O11       1.0  0.20600  0.21000  0.96900  1.0000
  Pu  Pu1       1.0  0.99900  0.03230  0.25000  1.0000
  Pu  Pu2       1.0  0.50900  0.53600  0.25000  1.0000
  Pu  Pu3       1.0  0.49600  0.46500  0.75000  1.0000
  Pu  Pu4       1.0  0.00351  0.96200  0.75000  1.0000
