data_image0
_chemical_formula_structural       Ge7Ni16Sc6
_chemical_formula_sum              "Ge7 Ni16 Sc6"
_cell_length_a       8.24513
_cell_length_b       8.24513
_cell_length_c       8.24513
_cell_angle_alpha    120
_cell_angle_beta     90
_cell_angle_gamma    120

_space_group_name_H-M_alt    "P 1"
_space_group_IT_number       1

loop_
  _space_group_symop_operation_xyz
  'x, y, z'

loop_
  _atom_site_type_symbol
  _atom_site_label
  _atom_site_symmetry_multiplicity
  _atom_site_fract_x
  _atom_site_fract_y
  _atom_site_fract_z
  _atom_site_occupancy
  Ge  Ge1       1.0  0.50000  0.00000  0.00000  1.0000
  Ge  Ge2       1.0  0.00000  0.50000  0.00000  1.0000
  Ge  Ge3       1.0  0.50000  0.50000  0.00000  1.0000
  Ge  Ge4       1.0  0.00000  0.00000  0.50000  1.0000
  Ge  Ge5       1.0  0.00000  0.50000  0.50000  1.0000
  Ge  Ge6       1.0  0.50000  0.50000  0.50000  1.0000
  Ge  Ge7       1.0  0.50000  0.00000  0.50000  1.0000
  Ni  Ni1       1.0  0.38100  0.76100  0.14200  1.0000
  Ni  Ni2       1.0  0.50700  0.33800  0.16900  1.0000
  Ni  Ni3       1.0  0.83100  0.33800  0.16900  1.0000
  Ni  Ni4       1.0  0.83100  0.66200  0.16900  1.0000
  Ni  Ni5       1.0  0.61900  0.23900  0.38100  1.0000
  Ni  Ni6       1.0  0.14200  0.76100  0.38100  1.0000
  Ni  Ni7       1.0  0.61900  0.76100  0.38100  1.0000
  Ni  Ni8       1.0  0.83100  0.66200  0.49300  1.0000
  Ni  Ni9       1.0  0.16900  0.33800  0.50700  1.0000
  Ni  Ni10      1.0  0.38100  0.23900  0.61900  1.0000
  Ni  Ni11      1.0  0.38100  0.76100  0.61900  1.0000
  Ni  Ni12      1.0  0.85800  0.23900  0.61900  1.0000
  Ni  Ni13      1.0  0.16900  0.66200  0.83100  1.0000
  Ni  Ni14      1.0  0.49300  0.66200  0.83100  1.0000
  Ni  Ni15      1.0  0.16900  0.33800  0.83100  1.0000
  Ni  Ni16      1.0  0.61900  0.23900  0.85800  1.0000
  Sc  Sc1       1.0  0.20800  0.00000  0.20800  1.0000
  Sc  Sc2       1.0  0.20800  0.41600  0.20800  1.0000
  Sc  Sc3       1.0  0.79200  0.00000  0.20800  1.0000
  Sc  Sc4       1.0  0.20800  0.00000  0.79200  1.0000
  Sc  Sc5       1.0  0.79200  0.00000  0.79200  1.0000
  Sc  Sc6       1.0  0.79200  0.58400  0.79200  1.0000
