data_image0
_chemical_formula_structural       Co16Si7Ti6
_chemical_formula_sum              "Co16 Si7 Ti6"
_cell_length_a       7.8301
_cell_length_b       7.8301
_cell_length_c       7.8301
_cell_angle_alpha    120
_cell_angle_beta     90
_cell_angle_gamma    120

_space_group_name_H-M_alt    "P 1"
_space_group_IT_number       1

loop_
  _space_group_symop_operation_xyz
  'x, y, z'

loop_
  _atom_site_type_symbol
  _atom_site_label
  _atom_site_symmetry_multiplicity
  _atom_site_fract_x
  _atom_site_fract_y
  _atom_site_fract_z
  _atom_site_occupancy
  Co  Co1       1.0  0.38100  0.76100  0.14200  1.0000
  Co  Co2       1.0  0.49800  0.33200  0.16600  1.0000
  Co  Co3       1.0  0.83400  0.33200  0.16600  1.0000
  Co  Co4       1.0  0.83400  0.66800  0.16600  1.0000
  Co  Co5       1.0  0.61900  0.23900  0.38100  1.0000
  Co  Co6       1.0  0.14200  0.76100  0.38100  1.0000
  Co  Co7       1.0  0.61900  0.76100  0.38100  1.0000
  Co  Co8       1.0  0.16600  0.33200  0.49800  1.0000
  Co  Co9       1.0  0.83400  0.66800  0.50200  1.0000
  Co  Co10      1.0  0.85800  0.23900  0.61900  1.0000
  Co  Co11      1.0  0.38100  0.23900  0.61900  1.0000
  Co  Co12      1.0  0.38100  0.76100  0.61900  1.0000
  Co  Co13      1.0  0.16600  0.33200  0.83400  1.0000
  Co  Co14      1.0  0.16600  0.66800  0.83400  1.0000
  Co  Co15      1.0  0.50200  0.66800  0.83400  1.0000
  Co  Co16      1.0  0.61900  0.23900  0.85800  1.0000
  Si  Si1       1.0  0.50000  0.00000  0.00000  1.0000
  Si  Si2       1.0  0.00000  0.50000  0.00000  1.0000
  Si  Si3       1.0  0.50000  0.50000  0.00000  1.0000
  Si  Si4       1.0  0.00000  0.00000  0.50000  1.0000
  Si  Si5       1.0  0.50000  0.00000  0.50000  1.0000
  Si  Si6       1.0  0.00000  0.50000  0.50000  1.0000
  Si  Si7       1.0  0.50000  0.50000  0.50000  1.0000
  Ti  Ti1       1.0  0.80100  0.00000  0.19900  1.0000
  Ti  Ti2       1.0  0.19900  0.00000  0.19900  1.0000
  Ti  Ti3       1.0  0.19900  0.39900  0.19900  1.0000
  Ti  Ti4       1.0  0.80100  1.00000  0.80100  1.0000
  Ti  Ti5       1.0  0.19900  0.00000  0.80100  1.0000
  Ti  Ti6       1.0  0.80100  0.60100  0.80100  1.0000
