data_image0
_chemical_formula_structural       Re24Ti5
_chemical_formula_sum              "Re24 Ti5"
_cell_length_a       8.33014
_cell_length_b       8.33014
_cell_length_c       8.33014
_cell_angle_alpha    109.471
_cell_angle_beta     109.471
_cell_angle_gamma    109.471

_space_group_name_H-M_alt    "P 1"
_space_group_IT_number       1

loop_
  _space_group_symop_operation_xyz
  'x, y, z'

loop_
  _atom_site_type_symbol
  _atom_site_label
  _atom_site_symmetry_multiplicity
  _atom_site_fract_x
  _atom_site_fract_y
  _atom_site_fract_z
  _atom_site_occupancy
  Re  Re1       1.0  0.60000  0.31800  0.00000  1.0000
  Re  Re2       1.0  0.31800  0.60000  0.00000  1.0000
  Re  Re3       1.0  0.80700  0.62500  0.00000  1.0000
  Re  Re4       1.0  0.62500  0.80700  0.00000  1.0000
  Re  Re5       1.0  0.37500  0.37500  0.18200  1.0000
  Re  Re6       1.0  0.81800  0.19300  0.19300  1.0000
  Re  Re7       1.0  0.19300  0.81800  0.19300  1.0000
  Re  Re8       1.0  0.68200  0.68200  0.28200  1.0000
  Re  Re9       1.0  0.60000  0.00000  0.31800  1.0000
  Re  Re10      1.0  0.00000  0.60000  0.31800  1.0000
  Re  Re11      1.0  0.37500  0.18200  0.37500  1.0000
  Re  Re12      1.0  0.18200  0.37500  0.37500  1.0000
  Re  Re13      1.0  0.71800  0.40000  0.40000  1.0000
  Re  Re14      1.0  0.40000  0.71800  0.40000  1.0000
  Re  Re15      1.0  0.31800  0.00000  0.60000  1.0000
  Re  Re16      1.0  1.00000  0.31800  0.60000  1.0000
  Re  Re17      1.0  0.80700  0.00000  0.62500  1.0000
  Re  Re18      1.0  0.00000  0.80700  0.62500  1.0000
  Re  Re19      1.0  0.68200  0.28200  0.68200  1.0000
  Re  Re20      1.0  0.28200  0.68200  0.68200  1.0000
  Re  Re21      1.0  0.40000  0.40000  0.71800  1.0000
  Re  Re22      1.0  0.62500  0.00000  0.80700  1.0000
  Re  Re23      1.0  0.00000  0.62500  0.80700  1.0000
  Re  Re24      1.0  0.19300  0.19300  0.81800  1.0000
  Ti  Ti1       1.0  0.00000  0.00000  0.00000  1.0000
  Ti  Ti2       1.0  0.36800  0.00000  0.00000  1.0000
  Ti  Ti3       1.0  0.00000  0.36800  0.00000  1.0000
  Ti  Ti4       1.0  0.00000  0.00000  0.36800  1.0000
  Ti  Ti5       1.0  0.63200  0.63200  0.63200  1.0000
