data_image0
_chemical_formula_structural       Ni16Si7Ta6
_chemical_formula_sum              "Ni16 Si7 Ta6"
_cell_length_a       7.93047
_cell_length_b       7.93047
_cell_length_c       7.93047
_cell_angle_alpha    120
_cell_angle_beta     90
_cell_angle_gamma    120

_space_group_name_H-M_alt    "P 1"
_space_group_IT_number       1

loop_
  _space_group_symop_operation_xyz
  'x, y, z'

loop_
  _atom_site_type_symbol
  _atom_site_label
  _atom_site_symmetry_multiplicity
  _atom_site_fract_x
  _atom_site_fract_y
  _atom_site_fract_z
  _atom_site_occupancy
  Ni  Ni1       1.0  0.38300  0.76700  0.15000  1.0000
  Ni  Ni2       1.0  0.50200  0.33500  0.16700  1.0000
  Ni  Ni3       1.0  0.83300  0.33500  0.16700  1.0000
  Ni  Ni4       1.0  0.83300  0.66500  0.16700  1.0000
  Ni  Ni5       1.0  0.61700  0.23300  0.38300  1.0000
  Ni  Ni6       1.0  0.15000  0.76700  0.38300  1.0000
  Ni  Ni7       1.0  0.61700  0.76700  0.38300  1.0000
  Ni  Ni8       1.0  0.83300  0.66500  0.49800  1.0000
  Ni  Ni9       1.0  0.16700  0.33500  0.50200  1.0000
  Ni  Ni10      1.0  0.85000  0.23300  0.61700  1.0000
  Ni  Ni11      1.0  0.38300  0.23300  0.61700  1.0000
  Ni  Ni12      1.0  0.38300  0.76700  0.61700  1.0000
  Ni  Ni13      1.0  0.16700  0.33500  0.83300  1.0000
  Ni  Ni14      1.0  0.16700  0.66500  0.83300  1.0000
  Ni  Ni15      1.0  0.49800  0.66500  0.83300  1.0000
  Ni  Ni16      1.0  0.61700  0.23300  0.85000  1.0000
  Si  Si1       1.0  0.50000  0.00000  0.00000  1.0000
  Si  Si2       1.0  0.00000  0.50000  0.00000  1.0000
  Si  Si3       1.0  0.50000  0.50000  0.00000  1.0000
  Si  Si4       1.0  0.50000  0.00000  0.50000  1.0000
  Si  Si5       1.0  0.00000  0.00000  0.50000  1.0000
  Si  Si6       1.0  0.00000  0.50000  0.50000  1.0000
  Si  Si7       1.0  0.50000  0.50000  0.50000  1.0000
  Ta  Ta1       1.0  0.20200  0.00000  0.20200  1.0000
  Ta  Ta2       1.0  0.20200  0.40500  0.20200  1.0000
  Ta  Ta3       1.0  0.79800  0.00000  0.20200  1.0000
  Ta  Ta4       1.0  0.20200  1.00000  0.79800  1.0000
  Ta  Ta5       1.0  0.79800  1.00000  0.79800  1.0000
  Ta  Ta6       1.0  0.79800  0.59500  0.79800  1.0000
