data_image0
_chemical_formula_structural       O11Pm4Ti4
_chemical_formula_sum              "O11 Pm4 Ti4"
_cell_length_a       5.42872
_cell_length_b       5.65656
_cell_length_c       7.71218
_cell_angle_alpha    90
_cell_angle_beta     90
_cell_angle_gamma    90.0951

_space_group_name_H-M_alt    "P 1"
_space_group_IT_number       1

loop_
  _space_group_symop_operation_xyz
  'x, y, z'

loop_
  _atom_site_type_symbol
  _atom_site_label
  _atom_site_symmetry_multiplicity
  _atom_site_fract_x
  _atom_site_fract_y
  _atom_site_fract_z
  _atom_site_occupancy
  O   O1        1.0  0.79900  0.79800  0.04400  1.0000
  O   O2        1.0  0.69900  0.29700  0.04710  1.0000
  O   O3        1.0  0.40600  0.97300  0.25000  1.0000
  O   O4        1.0  0.69900  0.29700  0.45300  1.0000
  O   O5        1.0  0.79900  0.79800  0.45600  1.0000
  O   O6        1.0  0.19600  0.20200  0.54200  1.0000
  O   O7        1.0  0.30100  0.70000  0.54300  1.0000
  O   O8        1.0  0.59200  0.03150  0.75000  1.0000
  O   O9        1.0  0.90300  0.53100  0.75000  1.0000
  O   O10       1.0  0.30100  0.70000  0.95700  1.0000
  O   O11       1.0  0.19600  0.20200  0.95800  1.0000
  Pm  Pm1       1.0  0.99200  0.05360  0.25000  1.0000
  Pm  Pm2       1.0  0.51800  0.56100  0.25000  1.0000
  Pm  Pm3       1.0  0.48900  0.44300  0.75000  1.0000
  Pm  Pm4       1.0  0.00984  0.93600  0.75000  1.0000
  Ti  Ti1       1.0  0.50100  0.00240  0.00140  1.0000
  Ti  Ti2       1.0  0.99900  0.50100  0.01240  1.0000
  Ti  Ti3       1.0  0.99900  0.50100  0.48800  1.0000
  Ti  Ti4       1.0  0.50100  0.00240  0.49900  1.0000
