data_image0
_chemical_formula_structural       Na6P4Pb3S16
_chemical_formula_sum              "Na6 P4 Pb3 S16"
_cell_length_a       6.18974
_cell_length_b       11.459
_cell_length_c       11.459
_cell_angle_alpha    116.832
_cell_angle_beta     100.373
_cell_angle_gamma    100.373

_space_group_name_H-M_alt    "P 1"
_space_group_IT_number       1

loop_
  _space_group_symop_operation_xyz
  'x, y, z'

loop_
  _atom_site_type_symbol
  _atom_site_label
  _atom_site_symmetry_multiplicity
  _atom_site_fract_x
  _atom_site_fract_y
  _atom_site_fract_z
  _atom_site_occupancy
  Na  Na1       1.0  0.34500  0.74300  0.19400  1.0000
  Na  Na2       1.0  0.60100  0.45100  0.25700  1.0000
  Na  Na3       1.0  0.60100  0.25700  0.45100  1.0000
  Na  Na4       1.0  0.15000  0.80600  0.54900  1.0000
  Na  Na5       1.0  0.34500  0.19400  0.74300  1.0000
  Na  Na6       1.0  0.15000  0.54900  0.80600  1.0000
  P   P1        1.0  0.58100  0.00000  0.00000  1.0000
  P   P2        1.0  0.76600  0.52600  0.00000  1.0000
  P   P3        1.0  0.23900  0.47400  0.47400  1.0000
  P   P4        1.0  0.76600  0.00000  0.52600  1.0000
  Pb  Pb1       1.0  0.99000  0.26600  0.00000  1.0000
  Pb  Pb2       1.0  0.99000  0.00000  0.26600  1.0000
  Pb  Pb3       1.0  0.72500  0.73400  0.73400  1.0000
  S   S1        1.0  0.91300  0.00000  0.00000  1.0000
  S   S2        1.0  0.53100  0.17400  0.00000  1.0000
  S   S3        1.0  0.42800  0.49200  0.00000  1.0000
  S   S4        1.0  0.89600  0.70400  0.00000  1.0000
  S   S5        1.0  0.96800  0.53800  0.17200  1.0000
  S   S6        1.0  0.53100  0.00000  0.17400  1.0000
  S   S7        1.0  0.19200  0.29600  0.29600  1.0000
  S   S8        1.0  0.79500  0.82800  0.36600  1.0000
  S   S9        1.0  0.42900  0.63400  0.46200  1.0000
  S   S10       1.0  0.42800  0.00000  0.49200  1.0000
  S   S11       1.0  0.93600  0.50800  0.50800  1.0000
  S   S12       1.0  0.96800  0.17200  0.53800  1.0000
  S   S13       1.0  0.42900  0.46200  0.63400  1.0000
  S   S14       1.0  0.89600  0.00000  0.70400  1.0000
  S   S15       1.0  0.35700  0.82600  0.82600  1.0000
  S   S16       1.0  0.79500  0.36600  0.82800  1.0000
