data_image0
_chemical_formula_structural       Bi2Cs2O5
_chemical_formula_sum              "Bi2 Cs2 O5"
_cell_length_a       6.32415
_cell_length_b       6.19702
_cell_length_c       7.35912
_cell_angle_alpha    58.1834
_cell_angle_beta     61.8684
_cell_angle_gamma    57.4256

_space_group_name_H-M_alt    "P 1"
_space_group_IT_number       1

loop_
  _space_group_symop_operation_xyz
  'x, y, z'

loop_
  _atom_site_type_symbol
  _atom_site_label
  _atom_site_symmetry_multiplicity
  _atom_site_fract_x
  _atom_site_fract_y
  _atom_site_fract_z
  _atom_site_occupancy
  Bi  Bi1       1.0  0.66400  0.65600  0.04180  1.0000
  Bi  Bi2       1.0  0.31900  0.33900  0.95600  1.0000
  Cs  Cs1       1.0  0.84600  0.89100  0.39000  1.0000
  Cs  Cs2       1.0  0.10500  0.11700  0.63200  1.0000
  O   O1        1.0  0.98700  0.55100  0.16300  1.0000
  O   O2        1.0  0.37000  0.96700  0.22700  1.0000
  O   O3        1.0  0.61400  0.05440  0.78700  1.0000
  O   O4        1.0  0.04980  0.49800  0.79000  1.0000
  O   O5        1.0  0.52100  0.57400  0.83300  1.0000
