data_image0
_chemical_formula_structural       Na4O11Os4
_chemical_formula_sum              "Na4 O11 Os4"
_cell_length_a       5.31626
_cell_length_b       5.37806
_cell_length_c       7.54209
_cell_angle_alpha    90
_cell_angle_beta     90
_cell_angle_gamma    90.0067

_space_group_name_H-M_alt    "P 1"
_space_group_IT_number       1

loop_
  _space_group_symop_operation_xyz
  'x, y, z'

loop_
  _atom_site_type_symbol
  _atom_site_label
  _atom_site_symmetry_multiplicity
  _atom_site_fract_x
  _atom_site_fract_y
  _atom_site_fract_z
  _atom_site_occupancy
  Na  Na1       1.0  0.99000  0.03490  0.25000  1.0000
  Na  Na2       1.0  0.48800  0.52700  0.25000  1.0000
  Na  Na3       1.0  0.48500  0.46600  0.75000  1.0000
  Na  Na4       1.0  0.01500  0.96500  0.75000  1.0000
  O   O1        1.0  0.79000  0.78400  0.04900  1.0000
  O   O2        1.0  0.71800  0.28300  0.04910  1.0000
  O   O3        1.0  0.40900  0.98500  0.25000  1.0000
  O   O4        1.0  0.71800  0.28300  0.45100  1.0000
  O   O5        1.0  0.79000  0.78400  0.45100  1.0000
  O   O6        1.0  0.21600  0.21700  0.52800  1.0000
  O   O7        1.0  0.28900  0.71000  0.53000  1.0000
  O   O8        1.0  0.59500  0.01810  0.75000  1.0000
  O   O9        1.0  0.90200  0.52700  0.75000  1.0000
  O   O10       1.0  0.28900  0.71000  0.97000  1.0000
  O   O11       1.0  0.21600  0.21700  0.97200  1.0000
  Os  Os1       1.0  0.50200  0.99900  0.00230  1.0000
  Os  Os2       1.0  0.99800  0.49900  0.00691  1.0000
  Os  Os3       1.0  0.99800  0.49900  0.49300  1.0000
  Os  Os4       1.0  0.50200  0.99900  0.49800  1.0000
