data_image0
_chemical_formula_structural       As7Mn6Ni16
_chemical_formula_sum              "As7 Mn6 Ni16"
_cell_length_a       7.99682
_cell_length_b       7.99682
_cell_length_c       7.99682
_cell_angle_alpha    120
_cell_angle_beta     90
_cell_angle_gamma    120

_space_group_name_H-M_alt    "P 1"
_space_group_IT_number       1

loop_
  _space_group_symop_operation_xyz
  'x, y, z'

loop_
  _atom_site_type_symbol
  _atom_site_label
  _atom_site_symmetry_multiplicity
  _atom_site_fract_x
  _atom_site_fract_y
  _atom_site_fract_z
  _atom_site_occupancy
  As  As1       1.0  0.50000  0.00000  0.00000  1.0000
  As  As2       1.0  0.00000  0.50000  0.00000  1.0000
  As  As3       1.0  0.50000  0.50000  0.00000  1.0000
  As  As4       1.0  0.00000  0.00000  0.50000  1.0000
  As  As5       1.0  0.00000  0.50000  0.50000  1.0000
  As  As6       1.0  0.50000  0.50000  0.50000  1.0000
  As  As7       1.0  0.50000  0.00000  0.50000  1.0000
  Mn  Mn1       1.0  0.81200  0.00000  0.18800  1.0000
  Mn  Mn2       1.0  0.18800  0.00000  0.18800  1.0000
  Mn  Mn3       1.0  0.18800  0.37700  0.18800  1.0000
  Mn  Mn4       1.0  0.81200  0.00000  0.81200  1.0000
  Mn  Mn5       1.0  0.18800  0.00000  0.81200  1.0000
  Mn  Mn6       1.0  0.81200  0.62300  0.81200  1.0000
  Ni  Ni1       1.0  0.38200  0.76400  0.14600  1.0000
  Ni  Ni2       1.0  0.49100  0.32700  0.16400  1.0000
  Ni  Ni3       1.0  0.83600  0.32700  0.16400  1.0000
  Ni  Ni4       1.0  0.83600  0.67300  0.16400  1.0000
  Ni  Ni5       1.0  0.14600  0.76400  0.38200  1.0000
  Ni  Ni6       1.0  0.61800  0.76400  0.38200  1.0000
  Ni  Ni7       1.0  0.61800  0.23600  0.38200  1.0000
  Ni  Ni8       1.0  0.16400  0.32700  0.49100  1.0000
  Ni  Ni9       1.0  0.83600  0.67300  0.50900  1.0000
  Ni  Ni10      1.0  0.85400  0.23600  0.61800  1.0000
  Ni  Ni11      1.0  0.38200  0.23600  0.61800  1.0000
  Ni  Ni12      1.0  0.38200  0.76400  0.61800  1.0000
  Ni  Ni13      1.0  0.16400  0.32700  0.83600  1.0000
  Ni  Ni14      1.0  0.16400  0.67300  0.83600  1.0000
  Ni  Ni15      1.0  0.50900  0.67300  0.83600  1.0000
  Ni  Ni16      1.0  0.61800  0.23600  0.85400  1.0000
