data_image0
_chemical_formula_structural       Nb6Ni16Si7
_chemical_formula_sum              "Nb6 Ni16 Si7"
_cell_length_a       7.94779
_cell_length_b       7.94779
_cell_length_c       7.94779
_cell_angle_alpha    120
_cell_angle_beta     90
_cell_angle_gamma    120

_space_group_name_H-M_alt    "P 1"
_space_group_IT_number       1

loop_
  _space_group_symop_operation_xyz
  'x, y, z'

loop_
  _atom_site_type_symbol
  _atom_site_label
  _atom_site_symmetry_multiplicity
  _atom_site_fract_x
  _atom_site_fract_y
  _atom_site_fract_z
  _atom_site_occupancy
  Nb  Nb1       1.0  0.79700  0.00000  0.20300  1.0000
  Nb  Nb2       1.0  0.20300  0.00000  0.20300  1.0000
  Nb  Nb3       1.0  0.20300  0.40600  0.20300  1.0000
  Nb  Nb4       1.0  0.20300  0.00000  0.79700  1.0000
  Nb  Nb5       1.0  0.79700  1.00000  0.79700  1.0000
  Nb  Nb6       1.0  0.79700  0.59400  0.79700  1.0000
  Ni  Ni1       1.0  0.38300  0.76700  0.15000  1.0000
  Ni  Ni2       1.0  0.50500  0.33600  0.16800  1.0000
  Ni  Ni3       1.0  0.83200  0.33600  0.16800  1.0000
  Ni  Ni4       1.0  0.83200  0.66400  0.16800  1.0000
  Ni  Ni5       1.0  0.61700  0.23300  0.38300  1.0000
  Ni  Ni6       1.0  0.15000  0.76700  0.38300  1.0000
  Ni  Ni7       1.0  0.61700  0.76700  0.38300  1.0000
  Ni  Ni8       1.0  0.83200  0.66400  0.49500  1.0000
  Ni  Ni9       1.0  0.16800  0.33600  0.50500  1.0000
  Ni  Ni10      1.0  0.38300  0.23300  0.61700  1.0000
  Ni  Ni11      1.0  0.85000  0.23300  0.61700  1.0000
  Ni  Ni12      1.0  0.38300  0.76700  0.61700  1.0000
  Ni  Ni13      1.0  0.16800  0.33600  0.83200  1.0000
  Ni  Ni14      1.0  0.16800  0.66400  0.83200  1.0000
  Ni  Ni15      1.0  0.49500  0.66400  0.83200  1.0000
  Ni  Ni16      1.0  0.61700  0.23300  0.85000  1.0000
  Si  Si1       1.0  0.50000  0.00000  0.00000  1.0000
  Si  Si2       1.0  0.00000  0.50000  0.00000  1.0000
  Si  Si3       1.0  0.50000  0.50000  0.00000  1.0000
  Si  Si4       1.0  0.00000  0.00000  0.50000  1.0000
  Si  Si5       1.0  0.50000  0.00000  0.50000  1.0000
  Si  Si6       1.0  0.00000  0.50000  0.50000  1.0000
  Si  Si7       1.0  0.50000  0.50000  0.50000  1.0000
