data_image0
_chemical_formula_structural       Al4O11Pr4
_chemical_formula_sum              "Al4 O11 Pr4"
_cell_length_a       5.35221
_cell_length_b       5.31928
_cell_length_c       7.47555
_cell_angle_alpha    90
_cell_angle_beta     90
_cell_angle_gamma    90.0176

_space_group_name_H-M_alt    "P 1"
_space_group_IT_number       1

loop_
  _space_group_symop_operation_xyz
  'x, y, z'

loop_
  _atom_site_type_symbol
  _atom_site_label
  _atom_site_symmetry_multiplicity
  _atom_site_fract_x
  _atom_site_fract_y
  _atom_site_fract_z
  _atom_site_occupancy
  Al  Al1       1.0  0.50000  0.00000  0.00134  1.0000
  Al  Al2       1.0  0.99900  0.50000  0.00205  1.0000
  Al  Al3       1.0  0.99900  0.50000  0.49800  1.0000
  Al  Al4       1.0  0.50000  0.00000  0.49900  1.0000
  O   O1        1.0  0.75300  0.75200  0.02460  1.0000
  O   O2        1.0  0.74800  0.25300  0.02520  1.0000
  O   O3        1.0  0.45200  0.99900  0.25000  1.0000
  O   O4        1.0  0.74800  0.25300  0.47500  1.0000
  O   O5        1.0  0.75300  0.75200  0.47500  1.0000
  O   O6        1.0  0.24700  0.24800  0.52300  1.0000
  O   O7        1.0  0.25300  0.74600  0.52400  1.0000
  O   O8        1.0  0.54700  0.00130  0.75000  1.0000
  O   O9        1.0  0.95200  0.50000  0.75000  1.0000
  O   O10       1.0  0.25300  0.74600  0.97600  1.0000
  O   O11       1.0  0.24700  0.24800  0.97700  1.0000
  Pr  Pr1       1.0  0.99900  0.00220  0.25000  1.0000
  Pr  Pr2       1.0  0.49800  0.50200  0.25000  1.0000
  Pr  Pr3       1.0  0.49800  0.49800  0.75000  1.0000
  Pr  Pr4       1.0  0.00159  0.99800  0.75000  1.0000
