data_image0
_chemical_formula_structural       Mn3P6Pd20
_chemical_formula_sum              "Mn3 P6 Pd20"
_cell_length_a       8.53658
_cell_length_b       8.53658
_cell_length_c       8.53658
_cell_angle_alpha    120
_cell_angle_beta     90
_cell_angle_gamma    120

_space_group_name_H-M_alt    "P 1"
_space_group_IT_number       1

loop_
  _space_group_symop_operation_xyz
  'x, y, z'

loop_
  _atom_site_type_symbol
  _atom_site_label
  _atom_site_symmetry_multiplicity
  _atom_site_fract_x
  _atom_site_fract_y
  _atom_site_fract_z
  _atom_site_occupancy
  Mn  Mn1       1.0  0.00000  0.00000  0.00000  1.0000
  Mn  Mn2       1.0  0.75000  0.50000  0.25000  1.0000
  Mn  Mn3       1.0  0.25000  0.50000  0.75000  1.0000
  P   P1        1.0  0.73500  0.00000  0.26500  1.0000
  P   P2        1.0  0.26500  0.00000  0.26500  1.0000
  P   P3        1.0  0.26500  0.53100  0.26500  1.0000
  P   P4        1.0  0.26500  0.00000  0.73500  1.0000
  P   P5        1.0  0.73500  0.00000  0.73500  1.0000
  P   P6        1.0  0.73500  0.46900  0.73500  1.0000
  Pd  Pd1       1.0  0.34200  0.00000  0.00000  1.0000
  Pd  Pd2       1.0  0.65800  0.00000  0.00000  1.0000
  Pd  Pd3       1.0  0.00000  0.34200  0.00000  1.0000
  Pd  Pd4       1.0  0.34200  0.34200  0.00000  1.0000
  Pd  Pd5       1.0  0.00000  0.65800  0.00000  1.0000
  Pd  Pd6       1.0  0.65800  0.65800  0.00000  1.0000
  Pd  Pd7       1.0  0.38100  0.76300  0.14400  1.0000
  Pd  Pd8       1.0  0.00000  0.00000  0.34200  1.0000
  Pd  Pd9       1.0  0.00000  0.34200  0.34200  1.0000
  Pd  Pd10      1.0  0.34200  0.34200  0.34200  1.0000
  Pd  Pd11      1.0  0.14400  0.76300  0.38100  1.0000
  Pd  Pd12      1.0  0.61900  0.76300  0.38100  1.0000
  Pd  Pd13      1.0  0.61900  0.23700  0.38100  1.0000
  Pd  Pd14      1.0  0.85600  0.23700  0.61900  1.0000
  Pd  Pd15      1.0  0.38100  0.23700  0.61900  1.0000
  Pd  Pd16      1.0  0.38100  0.76300  0.61900  1.0000
  Pd  Pd17      1.0  0.00000  0.00000  0.65800  1.0000
  Pd  Pd18      1.0  0.00000  0.65800  0.65800  1.0000
  Pd  Pd19      1.0  0.65800  0.65800  0.65800  1.0000
  Pd  Pd20      1.0  0.61900  0.23700  0.85600  1.0000
