data_image0
_chemical_formula_structural       Al4O11Pu4
_chemical_formula_sum              "Al4 O11 Pu4"
_cell_length_a       5.33264
_cell_length_b       5.32247
_cell_length_c       7.45859
_cell_angle_alpha    90
_cell_angle_beta     90
_cell_angle_gamma    90.0444

_space_group_name_H-M_alt    "P 1"
_space_group_IT_number       1

loop_
  _space_group_symop_operation_xyz
  'x, y, z'

loop_
  _atom_site_type_symbol
  _atom_site_label
  _atom_site_symmetry_multiplicity
  _atom_site_fract_x
  _atom_site_fract_y
  _atom_site_fract_z
  _atom_site_occupancy
  Al  Al1       1.0  0.50000  0.00000  0.00140  1.0000
  Al  Al2       1.0  0.99900  0.50000  0.00392  1.0000
  Al  Al3       1.0  0.99900  0.50000  0.49600  1.0000
  Al  Al4       1.0  0.50000  0.00000  0.49900  1.0000
  O   O1        1.0  0.77200  0.77200  0.01950  1.0000
  O   O2        1.0  0.72900  0.27200  0.02050  1.0000
  O   O3        1.0  0.46000  0.99600  0.25000  1.0000
  O   O4        1.0  0.72900  0.27200  0.47900  1.0000
  O   O5        1.0  0.77200  0.77200  0.48000  1.0000
  O   O6        1.0  0.22800  0.22900  0.51800  1.0000
  O   O7        1.0  0.27200  0.72700  0.51800  1.0000
  O   O8        1.0  0.53800  0.00377  0.75000  1.0000
  O   O9        1.0  0.96000  0.50300  0.75000  1.0000
  O   O10       1.0  0.27200  0.72700  0.98200  1.0000
  O   O11       1.0  0.22800  0.22900  0.98200  1.0000
  Pu  Pu1       1.0  0.00019  0.01270  0.25000  1.0000
  Pu  Pu2       1.0  0.49800  0.50900  0.25000  1.0000
  Pu  Pu3       1.0  0.50000  0.48900  0.75000  1.0000
  Pu  Pu4       1.0  0.00000  0.98900  0.75000  1.0000
