data_image0
_chemical_formula_structural       Fe16Nb6Si7
_chemical_formula_sum              "Fe16 Nb6 Si7"
_cell_length_a       7.90323
_cell_length_b       7.90323
_cell_length_c       7.90323
_cell_angle_alpha    120
_cell_angle_beta     90
_cell_angle_gamma    120

_space_group_name_H-M_alt    "P 1"
_space_group_IT_number       1

loop_
  _space_group_symop_operation_xyz
  'x, y, z'

loop_
  _atom_site_type_symbol
  _atom_site_label
  _atom_site_symmetry_multiplicity
  _atom_site_fract_x
  _atom_site_fract_y
  _atom_site_fract_z
  _atom_site_occupancy
  Fe  Fe1       1.0  0.38000  0.76000  0.14000  1.0000
  Fe  Fe2       1.0  0.52100  0.34700  0.17400  1.0000
  Fe  Fe3       1.0  0.82600  0.34700  0.17400  1.0000
  Fe  Fe4       1.0  0.82600  0.65300  0.17400  1.0000
  Fe  Fe5       1.0  0.62000  0.24000  0.38000  1.0000
  Fe  Fe6       1.0  0.14000  0.76000  0.38000  1.0000
  Fe  Fe7       1.0  0.62000  0.76000  0.38000  1.0000
  Fe  Fe8       1.0  0.82600  0.65300  0.47900  1.0000
  Fe  Fe9       1.0  0.17400  0.34700  0.52100  1.0000
  Fe  Fe10      1.0  0.86000  0.24000  0.62000  1.0000
  Fe  Fe11      1.0  0.38000  0.24000  0.62000  1.0000
  Fe  Fe12      1.0  0.38000  0.76000  0.62000  1.0000
  Fe  Fe13      1.0  0.17400  0.34700  0.82600  1.0000
  Fe  Fe14      1.0  0.17400  0.65300  0.82600  1.0000
  Fe  Fe15      1.0  0.47900  0.65300  0.82600  1.0000
  Fe  Fe16      1.0  0.62000  0.24000  0.86000  1.0000
  Nb  Nb1       1.0  0.20400  0.00000  0.20400  1.0000
  Nb  Nb2       1.0  0.20400  0.40900  0.20400  1.0000
  Nb  Nb3       1.0  0.79600  0.00000  0.20400  1.0000
  Nb  Nb4       1.0  0.20400  0.00000  0.79600  1.0000
  Nb  Nb5       1.0  0.79600  0.59100  0.79600  1.0000
  Nb  Nb6       1.0  0.79600  0.00000  0.79600  1.0000
  Si  Si1       1.0  0.50000  0.00000  0.00000  1.0000
  Si  Si2       1.0  0.00000  0.50000  0.00000  1.0000
  Si  Si3       1.0  0.50000  0.50000  0.00000  1.0000
  Si  Si4       1.0  0.50000  0.00000  0.50000  1.0000
  Si  Si5       1.0  0.00000  0.00000  0.50000  1.0000
  Si  Si6       1.0  0.00000  0.50000  0.50000  1.0000
  Si  Si7       1.0  0.50000  0.50000  0.50000  1.0000
