data_image0
_chemical_formula_structural       Li4O11Ru4
_chemical_formula_sum              "Li4 O11 Ru4"
_cell_length_a       4.98423
_cell_length_b       5.20522
_cell_length_c       7.35477
_cell_angle_alpha    90
_cell_angle_beta     90
_cell_angle_gamma    90.3193

_space_group_name_H-M_alt    "P 1"
_space_group_IT_number       1

loop_
  _space_group_symop_operation_xyz
  'x, y, z'

loop_
  _atom_site_type_symbol
  _atom_site_label
  _atom_site_symmetry_multiplicity
  _atom_site_fract_x
  _atom_site_fract_y
  _atom_site_fract_z
  _atom_site_occupancy
  Li  Li1       1.0  0.98500  0.02650  0.25000  1.0000
  Li  Li2       1.0  0.56100  0.58400  0.25000  1.0000
  Li  Li3       1.0  0.47600  0.43000  0.75000  1.0000
  Li  Li4       1.0  0.00835  0.95700  0.75000  1.0000
  O   O1        1.0  0.82500  0.81200  0.06870  1.0000
  O   O2        1.0  0.68200  0.31300  0.07390  1.0000
  O   O3        1.0  0.36100  0.94300  0.25000  1.0000
  O   O4        1.0  0.68200  0.31300  0.42600  1.0000
  O   O5        1.0  0.82500  0.81200  0.43100  1.0000
  O   O6        1.0  0.17800  0.18500  0.56100  1.0000
  O   O7        1.0  0.32200  0.67900  0.56500  1.0000
  O   O8        1.0  0.63900  0.06060  0.75000  1.0000
  O   O9        1.0  0.84300  0.57700  0.75000  1.0000
  O   O10       1.0  0.32200  0.67900  0.93500  1.0000
  O   O11       1.0  0.17800  0.18500  0.93900  1.0000
  Ru  Ru1       1.0  0.49900  0.99400  0.50200  1.0000
  Ru  Ru2       1.0  0.98800  0.49700  0.51600  1.0000
  Ru  Ru3       1.0  0.98800  0.49700  0.98400  1.0000
  Ru  Ru4       1.0  0.49900  0.99400  0.99800  1.0000
