data_image0
_chemical_formula_structural       Cu3O18Se6Tl2
_chemical_formula_sum              "Cu3 O18 Se6 Tl2"
_cell_length_a       4.7504
_cell_length_b       9.45753
_cell_length_c       9.81438
_cell_angle_alpha    67.5107
_cell_angle_beta     81.6749
_cell_angle_gamma    77.8428

_space_group_name_H-M_alt    "P 1"
_space_group_IT_number       1

loop_
  _space_group_symop_operation_xyz
  'x, y, z'

loop_
  _atom_site_type_symbol
  _atom_site_label
  _atom_site_symmetry_multiplicity
  _atom_site_fract_x
  _atom_site_fract_y
  _atom_site_fract_z
  _atom_site_occupancy
  Cu  Cu1       1.0  0.00000  0.00000  0.00000  1.0000
  Cu  Cu2       1.0  0.21100  0.53000  0.09030  1.0000
  Cu  Cu3       1.0  0.78900  0.47000  0.91000  1.0000
  O   O1        1.0  0.10400  0.36000  0.04130  1.0000
  O   O2        1.0  0.72500  0.86200  0.07860  1.0000
  O   O3        1.0  0.36400  0.70300  0.09670  1.0000
  O   O4        1.0  0.53000  0.36800  0.17400  1.0000
  O   O5        1.0  0.97700  0.04510  0.17700  1.0000
  O   O6        1.0  0.88100  0.50100  0.27400  1.0000
  O   O7        1.0  0.54500  0.91000  0.36800  1.0000
  O   O8        1.0  0.06020  0.74600  0.37300  1.0000
  O   O9        1.0  0.41900  0.41600  0.42600  1.0000
  O   O10       1.0  0.58100  0.58400  0.57400  1.0000
  O   O11       1.0  0.94000  0.25400  0.62700  1.0000
  O   O12       1.0  0.45500  0.08980  0.63200  1.0000
  O   O13       1.0  0.11900  0.49900  0.72600  1.0000
  O   O14       1.0  0.02340  0.95500  0.82300  1.0000
  O   O15       1.0  0.47000  0.63200  0.82600  1.0000
  O   O16       1.0  0.63600  0.29700  0.90300  1.0000
  O   O17       1.0  0.27500  0.13800  0.92100  1.0000
  O   O18       1.0  0.89600  0.64000  0.95900  1.0000
  Se  Se1       1.0  0.38700  0.20600  0.04540  1.0000
  Se  Se2       1.0  0.70300  0.34300  0.32700  1.0000
  Se  Se3       1.0  0.89900  0.93300  0.36000  1.0000
  Se  Se4       1.0  0.10100  0.06720  0.64000  1.0000
  Se  Se5       1.0  0.29700  0.65700  0.67300  1.0000
  Se  Se6       1.0  0.61300  0.79400  0.95500  1.0000
  Tl  Tl1       1.0  0.55500  0.68900  0.32100  1.0000
  Tl  Tl2       1.0  0.44500  0.31100  0.67900  1.0000
