data_image0
_chemical_formula_structural       Ge7Ni16Ta6
_chemical_formula_sum              "Ge7 Ni16 Ta6"
_cell_length_a       8.09465
_cell_length_b       8.09465
_cell_length_c       8.09465
_cell_angle_alpha    120
_cell_angle_beta     90
_cell_angle_gamma    120

_space_group_name_H-M_alt    "P 1"
_space_group_IT_number       1

loop_
  _space_group_symop_operation_xyz
  'x, y, z'

loop_
  _atom_site_type_symbol
  _atom_site_label
  _atom_site_symmetry_multiplicity
  _atom_site_fract_x
  _atom_site_fract_y
  _atom_site_fract_z
  _atom_site_occupancy
  Ge  Ge1       1.0  0.50000  0.00000  0.00000  1.0000
  Ge  Ge2       1.0  0.00000  0.50000  0.00000  1.0000
  Ge  Ge3       1.0  0.50000  0.50000  0.00000  1.0000
  Ge  Ge4       1.0  0.50000  0.00000  0.50000  1.0000
  Ge  Ge5       1.0  0.00000  0.00000  0.50000  1.0000
  Ge  Ge6       1.0  0.00000  0.50000  0.50000  1.0000
  Ge  Ge7       1.0  0.50000  0.50000  0.50000  1.0000
  Ni  Ni1       1.0  0.38300  0.76600  0.14900  1.0000
  Ni  Ni2       1.0  0.49800  0.33200  0.16600  1.0000
  Ni  Ni3       1.0  0.83400  0.33200  0.16600  1.0000
  Ni  Ni4       1.0  0.83400  0.66800  0.16600  1.0000
  Ni  Ni5       1.0  0.61700  0.23400  0.38300  1.0000
  Ni  Ni6       1.0  0.14900  0.76600  0.38300  1.0000
  Ni  Ni7       1.0  0.61700  0.76600  0.38300  1.0000
  Ni  Ni8       1.0  0.16600  0.33200  0.49800  1.0000
  Ni  Ni9       1.0  0.83400  0.66800  0.50200  1.0000
  Ni  Ni10      1.0  0.38300  0.23400  0.61700  1.0000
  Ni  Ni11      1.0  0.38300  0.76600  0.61700  1.0000
  Ni  Ni12      1.0  0.85100  0.23400  0.61700  1.0000
  Ni  Ni13      1.0  0.16600  0.33200  0.83400  1.0000
  Ni  Ni14      1.0  0.16600  0.66800  0.83400  1.0000
  Ni  Ni15      1.0  0.50200  0.66800  0.83400  1.0000
  Ni  Ni16      1.0  0.61700  0.23400  0.85100  1.0000
  Ta  Ta1       1.0  0.80000  0.00000  0.20000  1.0000
  Ta  Ta2       1.0  0.20000  0.00000  0.20000  1.0000
  Ta  Ta3       1.0  0.20000  0.40000  0.20000  1.0000
  Ta  Ta4       1.0  0.20000  1.00000  0.80000  1.0000
  Ta  Ta5       1.0  0.80000  0.60000  0.80000  1.0000
  Ta  Ta6       1.0  0.80000  1.00000  0.80000  1.0000
