data_image0
_chemical_formula_structural       Co4O11Pm4
_chemical_formula_sum              "Co4 O11 Pm4"
_cell_length_a       5.32717
_cell_length_b       5.62801
_cell_length_c       7.61603
_cell_angle_alpha    90
_cell_angle_beta     90
_cell_angle_gamma    89.9481

_space_group_name_H-M_alt    "P 1"
_space_group_IT_number       1

loop_
  _space_group_symop_operation_xyz
  'x, y, z'

loop_
  _atom_site_type_symbol
  _atom_site_label
  _atom_site_symmetry_multiplicity
  _atom_site_fract_x
  _atom_site_fract_y
  _atom_site_fract_z
  _atom_site_occupancy
  Co  Co1       1.0  0.50500  0.00128  0.00238  1.0000
  Co  Co2       1.0  0.50500  0.00128  0.49800  1.0000
  Co  Co3       1.0  0.99500  0.49800  0.50900  1.0000
  Co  Co4       1.0  0.99500  0.49800  0.99100  1.0000
  O   O1        1.0  0.72100  0.30500  0.06000  1.0000
  O   O2        1.0  0.81500  0.77600  0.06240  1.0000
  O   O3        1.0  0.40500  0.98000  0.25000  1.0000
  O   O4        1.0  0.81500  0.77600  0.43800  1.0000
  O   O5        1.0  0.72100  0.30500  0.44000  1.0000
  O   O6        1.0  0.29100  0.68800  0.53800  1.0000
  O   O7        1.0  0.18900  0.21500  0.53800  1.0000
  O   O8        1.0  0.59600  0.02740  0.75000  1.0000
  O   O9        1.0  0.88800  0.54000  0.75000  1.0000
  O   O10       1.0  0.18900  0.21500  0.96200  1.0000
  O   O11       1.0  0.29100  0.68800  0.96200  1.0000
  Pm  Pm1       1.0  0.98000  0.05540  0.25000  1.0000
  Pm  Pm2       1.0  0.52200  0.57300  0.25000  1.0000
  Pm  Pm3       1.0  0.47600  0.43400  0.75000  1.0000
  Pm  Pm4       1.0  0.01880  0.94000  0.75000  1.0000
