data_image0
_chemical_formula_structural       Np4O11Ti4
_chemical_formula_sum              "Np4 O11 Ti4"
_cell_length_a       5.48473
_cell_length_b       5.58025
_cell_length_c       7.87791
_cell_angle_alpha    90.3185
_cell_angle_beta     89.7605
_cell_angle_gamma    90.7179

_space_group_name_H-M_alt    "P 1"
_space_group_IT_number       1

loop_
  _space_group_symop_operation_xyz
  'x, y, z'

loop_
  _atom_site_type_symbol
  _atom_site_label
  _atom_site_symmetry_multiplicity
  _atom_site_fract_x
  _atom_site_fract_y
  _atom_site_fract_z
  _atom_site_occupancy
  Np  Np1       1.0  0.50600  0.54500  0.24000  1.0000
  Np  Np2       1.0  0.99700  0.04010  0.25400  1.0000
  Np  Np3       1.0  0.48700  0.45800  0.74700  1.0000
  Np  Np4       1.0  0.00812  0.95500  0.76000  1.0000
  O   O1        1.0  0.79600  0.78800  0.04060  1.0000
  O   O2        1.0  0.44000  0.99600  0.24700  1.0000
  O   O3        1.0  0.06900  0.48100  0.24900  1.0000
  O   O4        1.0  0.69900  0.29900  0.45700  1.0000
  O   O5        1.0  0.79400  0.79400  0.46400  1.0000
  O   O6        1.0  0.29300  0.70700  0.53300  1.0000
  O   O7        1.0  0.19900  0.20400  0.53900  1.0000
  O   O8        1.0  0.57200  0.01490  0.75000  1.0000
  O   O9        1.0  0.92300  0.51200  0.75200  1.0000
  O   O10       1.0  0.30000  0.70400  0.96300  1.0000
  O   O11       1.0  0.21800  0.21200  0.96300  1.0000
  Ti  Ti1       1.0  0.51600  0.01130  0.00025  1.0000
  Ti  Ti2       1.0  0.49900  0.99900  0.50000  1.0000
  Ti  Ti3       1.0  0.99800  0.50000  0.50000  1.0000
  Ti  Ti4       1.0  0.98800  0.48400  0.00000  1.0000
