data_image0
_chemical_formula_structural       Fe4O11Pm4
_chemical_formula_sum              "Fe4 O11 Pm4"
_cell_length_a       5.39356
_cell_length_b       5.69825
_cell_length_c       7.67937
_cell_angle_alpha    89.7268
_cell_angle_beta     89.5227
_cell_angle_gamma    91.4907

_space_group_name_H-M_alt    "P 1"
_space_group_IT_number       1

loop_
  _space_group_symop_operation_xyz
  'x, y, z'

loop_
  _atom_site_type_symbol
  _atom_site_label
  _atom_site_symmetry_multiplicity
  _atom_site_fract_x
  _atom_site_fract_y
  _atom_site_fract_z
  _atom_site_occupancy
  Fe  Fe1       1.0  0.98600  0.49600  0.50000  1.0000
  Fe  Fe2       1.0  0.50400  0.00474  0.50200  1.0000
  Fe  Fe3       1.0  0.50700  0.00205  0.99600  1.0000
  Fe  Fe4       1.0  0.00000  0.49500  0.00000  1.0000
  O   O1        1.0  0.80800  0.81800  0.05280  1.0000
  O   O2        1.0  0.08540  0.46700  0.25100  1.0000
  O   O3        1.0  0.41300  0.97700  0.25200  1.0000
  O   O4        1.0  0.68800  0.30400  0.43600  1.0000
  O   O5        1.0  0.79500  0.79800  0.45300  1.0000
  O   O6        1.0  0.29300  0.70200  0.54500  1.0000
  O   O7        1.0  0.19100  0.19600  0.55200  1.0000
  O   O8        1.0  0.61000  0.04550  0.74800  1.0000
  O   O9        1.0  0.89000  0.51900  0.75200  1.0000
  O   O10       1.0  0.21400  0.19200  0.95200  1.0000
  O   O11       1.0  0.32500  0.68400  0.95400  1.0000
  Pm  Pm1       1.0  0.50700  0.57900  0.24500  1.0000
  Pm  Pm2       1.0  0.00136  0.05580  0.25700  1.0000
  Pm  Pm3       1.0  0.46600  0.43900  0.74100  1.0000
  Pm  Pm4       1.0  0.01620  0.92700  0.76100  1.0000
