data_image0
_chemical_formula_structural       B5Be6CsNa2O15
_chemical_formula_sum              "B5 Be6 Cs1 Na2 O15"
_cell_length_a       4.40696
_cell_length_b       7.24848
_cell_length_c       10.8374
_cell_angle_alpha    102.443
_cell_angle_beta     90
_cell_angle_gamma    107.698

_space_group_name_H-M_alt    "P 1"
_space_group_IT_number       1

loop_
  _space_group_symop_operation_xyz
  'x, y, z'

loop_
  _atom_site_type_symbol
  _atom_site_label
  _atom_site_symmetry_multiplicity
  _atom_site_fract_x
  _atom_site_fract_y
  _atom_site_fract_z
  _atom_site_occupancy
  B   B1        1.0  0.88000  0.67800  0.16400  1.0000
  B   B2        1.0  0.19300  0.33200  0.27500  1.0000
  B   B3        1.0  0.54900  0.00000  0.50000  1.0000
  B   B4        1.0  0.86100  0.66800  0.72500  1.0000
  B   B5        1.0  0.20200  0.32200  0.83600  1.0000
  Be  Be1       1.0  0.28100  0.48500  0.07740  1.0000
  Be  Be2       1.0  0.40100  0.71700  0.29800  1.0000
  Be  Be3       1.0  0.03080  0.97500  0.36600  1.0000
  Be  Be4       1.0  0.05580  0.02500  0.63400  1.0000
  Be  Be5       1.0  0.68400  0.28300  0.70200  1.0000
  Be  Be6       1.0  0.79600  0.51500  0.92300  1.0000
  Cs  Cs1       1.0  0.51800  0.00000  0.00000  1.0000
  Na  Na1       1.0  0.84800  0.62500  0.45800  1.0000
  Na  Na2       1.0  0.22300  0.37500  0.54200  1.0000
  O   O1        1.0  0.98700  0.57700  0.06030  1.0000
  O   O2        1.0  0.17700  0.30800  0.14600  1.0000
  O   O3        1.0  0.56700  0.67500  0.16500  1.0000
  O   O4        1.0  0.08790  0.78200  0.26800  1.0000
  O   O5        1.0  0.11300  0.17700  0.33300  1.0000
  O   O6        1.0  0.29500  0.52400  0.35800  1.0000
  O   O7        1.0  0.65400  0.89300  0.39800  1.0000
  O   O8        1.0  0.23900  0.00000  0.50000  1.0000
  O   O9        1.0  0.76100  0.10700  0.60200  1.0000
  O   O10       1.0  0.77200  0.47600  0.64200  1.0000
  O   O11       1.0  0.93500  0.82300  0.66700  1.0000
  O   O12       1.0  0.30500  0.21800  0.73200  1.0000
  O   O13       1.0  0.89300  0.32500  0.83500  1.0000
  O   O14       1.0  0.86900  0.69200  0.85400  1.0000
  O   O15       1.0  0.41000  0.42300  0.94000  1.0000
