data_image0
_chemical_formula_structural       Cu14Se10Tl5
_chemical_formula_sum              "Cu14 Se10 Tl5"
_cell_length_a       3.93349
_cell_length_b       9.32737
_cell_length_c       16.3932
_cell_angle_alpha    91.2728
_cell_angle_beta     96.8905
_cell_angle_gamma    102.173

_space_group_name_H-M_alt    "P 1"
_space_group_IT_number       1

loop_
  _space_group_symop_operation_xyz
  'x, y, z'

loop_
  _atom_site_type_symbol
  _atom_site_label
  _atom_site_symmetry_multiplicity
  _atom_site_fract_x
  _atom_site_fract_y
  _atom_site_fract_z
  _atom_site_occupancy
  Cu  Cu1       1.0  0.23900  0.42900  0.04780  1.0000
  Cu  Cu2       1.0  0.70900  0.29000  0.12700  1.0000
  Cu  Cu3       1.0  0.19200  0.16800  0.21500  1.0000
  Cu  Cu4       1.0  0.80600  0.33100  0.28200  1.0000
  Cu  Cu5       1.0  0.67800  0.04150  0.31400  1.0000
  Cu  Cu6       1.0  0.29100  0.20000  0.38100  1.0000
  Cu  Cu7       1.0  0.77400  0.07800  0.47000  1.0000
  Cu  Cu8       1.0  0.22600  0.92200  0.53000  1.0000
  Cu  Cu9       1.0  0.70900  0.80000  0.61900  1.0000
  Cu  Cu10      1.0  0.32200  0.95900  0.68600  1.0000
  Cu  Cu11      1.0  0.19400  0.66900  0.71800  1.0000
  Cu  Cu12      1.0  0.80800  0.83200  0.78500  1.0000
  Cu  Cu13      1.0  0.29100  0.71000  0.87300  1.0000
  Cu  Cu14      1.0  0.76100  0.57100  0.95200  1.0000
  Se  Se1       1.0  0.35700  0.69500  0.01910  1.0000
  Se  Se2       1.0  0.59700  0.02680  0.16800  1.0000
  Se  Se3       1.0  0.32300  0.44000  0.20700  1.0000
  Se  Se4       1.0  0.15400  0.92600  0.38300  1.0000
  Se  Se5       1.0  0.88500  0.34100  0.42900  1.0000
  Se  Se6       1.0  0.11500  0.65900  0.57100  1.0000
  Se  Se7       1.0  0.84600  0.07360  0.61700  1.0000
  Se  Se8       1.0  0.67700  0.56000  0.79300  1.0000
  Se  Se9       1.0  0.40300  0.97300  0.83200  1.0000
  Se  Se10      1.0  0.64300  0.30500  0.98100  1.0000
  Tl  Tl1       1.0  0.00000  0.00000  0.00000  1.0000
  Tl  Tl2       1.0  0.95600  0.73200  0.17900  1.0000
  Tl  Tl3       1.0  0.51400  0.62700  0.40100  1.0000
  Tl  Tl4       1.0  0.48600  0.37300  0.59900  1.0000
  Tl  Tl5       1.0  0.04440  0.26800  0.82100  1.0000
