data_image0
_chemical_formula_structural       Ge7Ni16Ti6
_chemical_formula_sum              "Ge7 Ni16 Ti6"
_cell_length_a       8.05965
_cell_length_b       8.05965
_cell_length_c       8.05965
_cell_angle_alpha    120
_cell_angle_beta     90
_cell_angle_gamma    120

_space_group_name_H-M_alt    "P 1"
_space_group_IT_number       1

loop_
  _space_group_symop_operation_xyz
  'x, y, z'

loop_
  _atom_site_type_symbol
  _atom_site_label
  _atom_site_symmetry_multiplicity
  _atom_site_fract_x
  _atom_site_fract_y
  _atom_site_fract_z
  _atom_site_occupancy
  Ge  Ge1       1.0  0.50000  0.00000  0.00000  1.0000
  Ge  Ge2       1.0  0.00000  0.50000  0.00000  1.0000
  Ge  Ge3       1.0  0.50000  0.50000  0.00000  1.0000
  Ge  Ge4       1.0  0.00000  0.00000  0.50000  1.0000
  Ge  Ge5       1.0  0.00000  0.50000  0.50000  1.0000
  Ge  Ge6       1.0  0.50000  0.50000  0.50000  1.0000
  Ge  Ge7       1.0  0.50000  0.00000  0.50000  1.0000
  Ni  Ni1       1.0  0.38200  0.76400  0.14600  1.0000
  Ni  Ni2       1.0  0.49300  0.32900  0.16400  1.0000
  Ni  Ni3       1.0  0.83600  0.32900  0.16400  1.0000
  Ni  Ni4       1.0  0.83600  0.67100  0.16400  1.0000
  Ni  Ni5       1.0  0.14600  0.76400  0.38200  1.0000
  Ni  Ni6       1.0  0.61800  0.76400  0.38200  1.0000
  Ni  Ni7       1.0  0.61800  0.23600  0.38200  1.0000
  Ni  Ni8       1.0  0.16400  0.32900  0.49300  1.0000
  Ni  Ni9       1.0  0.83600  0.67100  0.50700  1.0000
  Ni  Ni10      1.0  0.38200  0.23600  0.61800  1.0000
  Ni  Ni11      1.0  0.38200  0.76400  0.61800  1.0000
  Ni  Ni12      1.0  0.85400  0.23600  0.61800  1.0000
  Ni  Ni13      1.0  0.16400  0.32900  0.83600  1.0000
  Ni  Ni14      1.0  0.16400  0.67100  0.83600  1.0000
  Ni  Ni15      1.0  0.50700  0.67100  0.83600  1.0000
  Ni  Ni16      1.0  0.61800  0.23600  0.85400  1.0000
  Ti  Ti1       1.0  0.20000  0.00000  0.20000  1.0000
  Ti  Ti2       1.0  0.80000  0.00000  0.20000  1.0000
  Ti  Ti3       1.0  0.20000  0.40000  0.20000  1.0000
  Ti  Ti4       1.0  0.20000  1.00000  0.80000  1.0000
  Ti  Ti5       1.0  0.80000  1.00000  0.80000  1.0000
  Ti  Ti6       1.0  0.80000  0.60000  0.80000  1.0000
