data_image0
_chemical_formula_structural       Ni4O11Sm4
_chemical_formula_sum              "Ni4 O11 Sm4"
_cell_length_a       5.26213
_cell_length_b       5.55338
_cell_length_c       7.59069
_cell_angle_alpha    89.6501
_cell_angle_beta     89.1664
_cell_angle_gamma    90.5341

_space_group_name_H-M_alt    "P 1"
_space_group_IT_number       1

loop_
  _space_group_symop_operation_xyz
  'x, y, z'

loop_
  _atom_site_type_symbol
  _atom_site_label
  _atom_site_symmetry_multiplicity
  _atom_site_fract_x
  _atom_site_fract_y
  _atom_site_fract_z
  _atom_site_occupancy
  Ni  Ni1       1.0  0.98700  0.49700  0.50100  1.0000
  Ni  Ni2       1.0  0.50100  0.00587  0.50300  1.0000
  Ni  Ni3       1.0  0.49400  0.98500  0.99500  1.0000
  Ni  Ni4       1.0  0.01480  0.50800  0.99800  1.0000
  O   O1        1.0  0.80700  0.80800  0.05190  1.0000
  O   O2        1.0  0.43500  0.00246  0.24100  1.0000
  O   O3        1.0  0.06720  0.47100  0.24500  1.0000
  O   O4        1.0  0.69200  0.30300  0.44900  1.0000
  O   O5        1.0  0.79200  0.79900  0.46100  1.0000
  O   O6        1.0  0.29200  0.70400  0.53000  1.0000
  O   O7        1.0  0.19200  0.19600  0.54500  1.0000
  O   O8        1.0  0.59600  0.03670  0.75900  1.0000
  O   O9        1.0  0.90000  0.51300  0.76000  1.0000
  O   O10       1.0  0.33000  0.67900  0.95500  1.0000
  O   O11       1.0  0.20200  0.19500  0.95600  1.0000
  Sm  Sm1       1.0  0.50700  0.58200  0.25800  1.0000
  Sm  Sm2       1.0  0.00587  0.05380  0.26600  1.0000
  Sm  Sm3       1.0  0.46800  0.43800  0.73000  1.0000
  Sm  Sm4       1.0  0.01170  0.92800  0.75200  1.0000
