data_image0
_chemical_formula_structural       O11Pm4V4
_chemical_formula_sum              "O11 Pm4 V4"
_cell_length_a       5.406
_cell_length_b       5.6798
_cell_length_c       7.68569
_cell_angle_alpha    90
_cell_angle_beta     90
_cell_angle_gamma    90.4629

_space_group_name_H-M_alt    "P 1"
_space_group_IT_number       1

loop_
  _space_group_symop_operation_xyz
  'x, y, z'

loop_
  _atom_site_type_symbol
  _atom_site_label
  _atom_site_symmetry_multiplicity
  _atom_site_fract_x
  _atom_site_fract_y
  _atom_site_fract_z
  _atom_site_occupancy
  O   O1        1.0  0.69800  0.29800  0.05150  1.0000
  O   O2        1.0  0.80300  0.79400  0.05270  1.0000
  O   O3        1.0  0.40100  0.97100  0.25000  1.0000
  O   O4        1.0  0.80300  0.79400  0.44700  1.0000
  O   O5        1.0  0.69800  0.29800  0.44800  1.0000
  O   O6        1.0  0.30400  0.69900  0.54400  1.0000
  O   O7        1.0  0.19400  0.20600  0.54500  1.0000
  O   O8        1.0  0.59600  0.03080  0.75000  1.0000
  O   O9        1.0  0.89800  0.53400  0.75000  1.0000
  O   O10       1.0  0.19400  0.20600  0.95500  1.0000
  O   O11       1.0  0.30400  0.69900  0.95600  1.0000
  Pm  Pm1       1.0  0.98500  0.06010  0.25000  1.0000
  Pm  Pm2       1.0  0.52100  0.56100  0.25000  1.0000
  Pm  Pm3       1.0  0.48400  0.44200  0.75000  1.0000
  Pm  Pm4       1.0  0.01490  0.93500  0.75000  1.0000
  V   V1        1.0  0.50000  0.00063  0.00120  1.0000
  V   V2        1.0  0.00036  0.50100  0.00906  1.0000
  V   V3        1.0  0.00036  0.50100  0.49100  1.0000
  V   V4        1.0  0.50000  0.00063  0.49900  1.0000
