data_image0
_chemical_formula_structural       Fe10Ge10Tm9
_chemical_formula_sum              "Fe10 Ge10 Tm9"
_cell_length_a       5.34585
_cell_length_b       9.98154
_cell_length_c       9.98154
_cell_angle_alpha    91.2646
_cell_angle_beta     105.533
_cell_angle_gamma    74.4674

_space_group_name_H-M_alt    "P 1"
_space_group_IT_number       1

loop_
  _space_group_symop_operation_xyz
  'x, y, z'

loop_
  _atom_site_type_symbol
  _atom_site_label
  _atom_site_symmetry_multiplicity
  _atom_site_fract_x
  _atom_site_fract_y
  _atom_site_fract_z
  _atom_site_occupancy
  Fe  Fe1       1.0  0.09950  0.48900  0.20200  1.0000
  Fe  Fe2       1.0  0.61300  0.48900  0.20200  1.0000
  Fe  Fe3       1.0  0.00000  0.40600  0.40600  1.0000
  Fe  Fe4       1.0  0.38700  0.20200  0.48900  1.0000
  Fe  Fe5       1.0  0.90000  0.20200  0.48900  1.0000
  Fe  Fe6       1.0  0.09950  0.79800  0.51100  1.0000
  Fe  Fe7       1.0  0.61300  0.79800  0.51100  1.0000
  Fe  Fe8       1.0  1.00000  0.59400  0.59400  1.0000
  Fe  Fe9       1.0  0.38700  0.51100  0.79800  1.0000
  Fe  Fe10      1.0  0.90000  0.51100  0.79800  1.0000
  Ge  Ge1       1.0  0.24700  0.00000  0.00000  1.0000
  Ge  Ge2       1.0  0.75300  0.00000  0.00000  1.0000
  Ge  Ge3       1.0  0.21200  0.58200  0.00701  1.0000
  Ge  Ge4       1.0  0.50000  0.29200  0.29200  1.0000
  Ge  Ge5       1.0  0.82800  0.67200  0.32800  1.0000
  Ge  Ge6       1.0  0.21200  0.99300  0.41800  1.0000
  Ge  Ge7       1.0  0.78800  0.00701  0.58200  1.0000
  Ge  Ge8       1.0  0.17200  0.32800  0.67200  1.0000
  Ge  Ge9       1.0  0.50000  0.70800  0.70800  1.0000
  Ge  Ge10      1.0  0.78800  0.41800  0.99300  1.0000
  Tm  Tm1       1.0  0.64700  0.71800  0.01130  1.0000
  Tm  Tm2       1.0  0.00000  0.19700  0.19700  1.0000
  Tm  Tm3       1.0  0.22000  0.78000  0.22000  1.0000
  Tm  Tm4       1.0  0.64700  0.98900  0.28200  1.0000
  Tm  Tm5       1.0  0.50000  0.50000  0.50000  1.0000
  Tm  Tm6       1.0  0.35300  0.01130  0.71800  1.0000
  Tm  Tm7       1.0  0.78000  0.22000  0.78000  1.0000
  Tm  Tm8       1.0  1.00000  0.80300  0.80300  1.0000
  Tm  Tm9       1.0  0.35300  0.28200  0.98900  1.0000
