data_image0
_chemical_formula_structural       O11Pr4Rh4
_chemical_formula_sum              "O11 Pr4 Rh4"
_cell_length_a       5.38781
_cell_length_b       5.81003
_cell_length_c       7.83297
_cell_angle_alpha    90.5438
_cell_angle_beta     88.8543
_cell_angle_gamma    90.8679

_space_group_name_H-M_alt    "P 1"
_space_group_IT_number       1

loop_
  _space_group_symop_operation_xyz
  'x, y, z'

loop_
  _atom_site_type_symbol
  _atom_site_label
  _atom_site_symmetry_multiplicity
  _atom_site_fract_x
  _atom_site_fract_y
  _atom_site_fract_z
  _atom_site_occupancy
  O   O1        1.0  0.81600  0.80600  0.05080  1.0000
  O   O2        1.0  0.10300  0.46700  0.24800  1.0000
  O   O3        1.0  0.40700  0.97000  0.25200  1.0000
  O   O4        1.0  0.68500  0.30100  0.43300  1.0000
  O   O5        1.0  0.80900  0.79800  0.44500  1.0000
  O   O6        1.0  0.18000  0.19400  0.55200  1.0000
  O   O7        1.0  0.31000  0.69700  0.55200  1.0000
  O   O8        1.0  0.61600  0.04350  0.74900  1.0000
  O   O9        1.0  0.88200  0.52900  0.75200  1.0000
  O   O10       1.0  0.19400  0.20000  0.95100  1.0000
  O   O11       1.0  0.31700  0.69600  0.95900  1.0000
  Pr  Pr1       1.0  0.52200  0.57800  0.24200  1.0000
  Pr  Pr2       1.0  0.99300  0.06450  0.25300  1.0000
  Pr  Pr3       1.0  0.46500  0.43000  0.74400  1.0000
  Pr  Pr4       1.0  0.02530  0.92200  0.75900  1.0000
  Rh  Rh1       1.0  0.97700  0.48400  0.00244  1.0000
  Rh  Rh2       1.0  0.51800  0.01890  0.00289  1.0000
  Rh  Rh3       1.0  0.99300  0.49600  0.49900  1.0000
  Rh  Rh4       1.0  0.50100  0.00196  0.50100  1.0000
