data_image0
_chemical_formula_structural       Al4O11Sm4
_chemical_formula_sum              "Al4 O11 Sm4"
_cell_length_a       5.28369
_cell_length_b       5.29692
_cell_length_c       7.43711
_cell_angle_alpha    90
_cell_angle_beta     90
_cell_angle_gamma    90.1297

_space_group_name_H-M_alt    "P 1"
_space_group_IT_number       1

loop_
  _space_group_symop_operation_xyz
  'x, y, z'

loop_
  _atom_site_type_symbol
  _atom_site_label
  _atom_site_symmetry_multiplicity
  _atom_site_fract_x
  _atom_site_fract_y
  _atom_site_fract_z
  _atom_site_occupancy
  Al  Al1       1.0  0.50100  0.00000  0.00170  1.0000
  Al  Al2       1.0  0.99900  0.50100  0.00349  1.0000
  Al  Al3       1.0  0.99900  0.50100  0.49700  1.0000
  Al  Al4       1.0  0.50100  0.00000  0.49800  1.0000
  O   O1        1.0  0.77700  0.77800  0.03470  1.0000
  O   O2        1.0  0.72400  0.27800  0.03670  1.0000
  O   O3        1.0  0.43400  0.98900  0.25000  1.0000
  O   O4        1.0  0.72400  0.27800  0.46300  1.0000
  O   O5        1.0  0.77700  0.77800  0.46500  1.0000
  O   O6        1.0  0.22300  0.22300  0.53200  1.0000
  O   O7        1.0  0.27700  0.72100  0.53400  1.0000
  O   O8        1.0  0.56500  0.01130  0.75000  1.0000
  O   O9        1.0  0.93400  0.51000  0.75000  1.0000
  O   O10       1.0  0.27700  0.72100  0.96600  1.0000
  O   O11       1.0  0.22300  0.22300  0.96800  1.0000
  Sm  Sm1       1.0  0.99400  0.03130  0.25000  1.0000
  Sm  Sm2       1.0  0.50100  0.52700  0.25000  1.0000
  Sm  Sm3       1.0  0.49400  0.47100  0.75000  1.0000
  Sm  Sm4       1.0  0.00633  0.96900  0.75000  1.0000
