data_image0
_chemical_formula_structural       P4Pd4Rb4S16
_chemical_formula_sum              "P4 Pd4 Rb4 S16"
_cell_length_a       8.29511
_cell_length_b       8.29511
_cell_length_c       12.4211
_cell_angle_alpha    90
_cell_angle_beta     90
_cell_angle_gamma    90

_space_group_name_H-M_alt    "P 1"
_space_group_IT_number       1

loop_
  _space_group_symop_operation_xyz
  'x, y, z'

loop_
  _atom_site_type_symbol
  _atom_site_label
  _atom_site_symmetry_multiplicity
  _atom_site_fract_x
  _atom_site_fract_y
  _atom_site_fract_z
  _atom_site_occupancy
  P   P1        1.0  0.50000  0.00000  0.25000  1.0000
  P   P2        1.0  0.00000  0.50000  0.25000  1.0000
  P   P3        1.0  0.50000  0.00000  0.75000  1.0000
  P   P4        1.0  0.00000  0.50000  0.75000  1.0000
  Pd  Pd1       1.0  0.50000  0.00000  0.00000  1.0000
  Pd  Pd2       1.0  0.00000  0.50000  0.00000  1.0000
  Pd  Pd3       1.0  0.50000  0.00000  0.50000  1.0000
  Pd  Pd4       1.0  0.00000  0.50000  0.50000  1.0000
  Rb  Rb1       1.0  0.00000  0.00000  0.25000  1.0000
  Rb  Rb2       1.0  0.50000  0.50000  0.25000  1.0000
  Rb  Rb3       1.0  0.00000  0.00000  0.75000  1.0000
  Rb  Rb4       1.0  0.50000  0.50000  0.75000  1.0000
  S   S1        1.0  0.36700  0.13300  0.14200  1.0000
  S   S2        1.0  0.86700  0.36700  0.14200  1.0000
  S   S3        1.0  0.13300  0.63300  0.14200  1.0000
  S   S4        1.0  0.63300  0.86700  0.14200  1.0000
  S   S5        1.0  0.63300  0.13300  0.35800  1.0000
  S   S6        1.0  0.13300  0.36700  0.35800  1.0000
  S   S7        1.0  0.86700  0.63300  0.35800  1.0000
  S   S8        1.0  0.36700  0.86700  0.35800  1.0000
  S   S9        1.0  0.63300  0.13300  0.64200  1.0000
  S   S10       1.0  0.13300  0.36700  0.64200  1.0000
  S   S11       1.0  0.86700  0.63300  0.64200  1.0000
  S   S12       1.0  0.36700  0.86700  0.64200  1.0000
  S   S13       1.0  0.36700  0.13300  0.85800  1.0000
  S   S14       1.0  0.86700  0.36700  0.85800  1.0000
  S   S15       1.0  0.13300  0.63300  0.85800  1.0000
  S   S16       1.0  0.63300  0.86700  0.85800  1.0000
