data_image0
_chemical_formula_structural       O11Pd4Pm4
_chemical_formula_sum              "O11 Pd4 Pm4"
_cell_length_a       5.45031
_cell_length_b       6.01771
_cell_length_c       7.54929
_cell_angle_alpha    90.0278
_cell_angle_beta     89.7223
_cell_angle_gamma    89.3744

_space_group_name_H-M_alt    "P 1"
_space_group_IT_number       1

loop_
  _space_group_symop_operation_xyz
  'x, y, z'

loop_
  _atom_site_type_symbol
  _atom_site_label
  _atom_site_symmetry_multiplicity
  _atom_site_fract_x
  _atom_site_fract_y
  _atom_site_fract_z
  _atom_site_occupancy
  O   O1        1.0  0.82500  0.81100  0.05730  1.0000
  O   O2        1.0  0.11700  0.44900  0.24900  1.0000
  O   O3        1.0  0.39100  0.96100  0.25200  1.0000
  O   O4        1.0  0.68200  0.30600  0.42200  1.0000
  O   O5        1.0  0.81400  0.80300  0.44800  1.0000
  O   O6        1.0  0.30700  0.69500  0.54400  1.0000
  O   O7        1.0  0.17600  0.18500  0.55600  1.0000
  O   O8        1.0  0.85800  0.54500  0.75200  1.0000
  O   O9        1.0  0.64500  0.06900  0.75400  1.0000
  O   O10       1.0  0.33400  0.67700  0.94600  1.0000
  O   O11       1.0  0.18300  0.19200  0.95000  1.0000
  Pd  Pd1       1.0  0.97300  0.48500  0.00410  1.0000
  Pd  Pd2       1.0  0.51900  0.02240  0.00452  1.0000
  Pd  Pd3       1.0  0.98900  0.49300  0.50000  1.0000
  Pd  Pd4       1.0  0.50700  0.00452  0.50600  1.0000
  Pm  Pm1       1.0  0.51200  0.59500  0.24000  1.0000
  Pm  Pm2       1.0  0.98800  0.07070  0.25900  1.0000
  Pm  Pm3       1.0  0.45700  0.42400  0.73900  1.0000
  Pm  Pm4       1.0  0.03720  0.90600  0.76000  1.0000
