data_image0
_chemical_formula_structural       Eu4O11Si4
_chemical_formula_sum              "Eu4 O11 Si4"
_cell_length_a       4.888
_cell_length_b       4.47839
_cell_length_c       10.6413
_cell_angle_alpha    90
_cell_angle_beta     90
_cell_angle_gamma    91.3827

_space_group_name_H-M_alt    "P 1"
_space_group_IT_number       1

loop_
  _space_group_symop_operation_xyz
  'x, y, z'

loop_
  _atom_site_type_symbol
  _atom_site_label
  _atom_site_symmetry_multiplicity
  _atom_site_fract_x
  _atom_site_fract_y
  _atom_site_fract_z
  _atom_site_occupancy
  Eu  Eu1       1.0  0.49500  0.99400  0.01010  1.0000
  Eu  Eu2       1.0  0.49500  0.99400  0.49000  1.0000
  Eu  Eu3       1.0  0.99300  0.50200  0.51100  1.0000
  Eu  Eu4       1.0  0.99300  0.50200  0.98900  1.0000
  O   O1        1.0  0.55500  0.47900  0.11400  1.0000
  O   O2        1.0  0.95800  0.02260  0.11500  1.0000
  O   O3        1.0  0.37700  0.90100  0.25000  1.0000
  O   O4        1.0  0.95800  0.02260  0.38500  1.0000
  O   O5        1.0  0.55500  0.47900  0.38600  1.0000
  O   O6        1.0  0.44700  0.51400  0.61300  1.0000
  O   O7        1.0  0.05460  0.01730  0.61400  1.0000
  O   O8        1.0  0.61000  0.06060  0.75000  1.0000
  O   O9        1.0  0.88700  0.56400  0.75000  1.0000
  O   O10       1.0  0.05460  0.01730  0.88600  1.0000
  O   O11       1.0  0.44700  0.51400  0.88700  1.0000
  Si  Si1       1.0  0.09040  0.10800  0.25000  1.0000
  Si  Si2       1.0  0.41200  0.52600  0.25000  1.0000
  Si  Si3       1.0  0.55900  0.42900  0.75000  1.0000
  Si  Si4       1.0  0.93300  0.93800  0.75000  1.0000
