data_image0
_chemical_formula_structural       Mn6Ni16Si7
_chemical_formula_sum              "Mn6 Ni16 Si7"
_cell_length_a       7.82074
_cell_length_b       7.82074
_cell_length_c       7.82074
_cell_angle_alpha    120
_cell_angle_beta     90
_cell_angle_gamma    120

_space_group_name_H-M_alt    "P 1"
_space_group_IT_number       1

loop_
  _space_group_symop_operation_xyz
  'x, y, z'

loop_
  _atom_site_type_symbol
  _atom_site_label
  _atom_site_symmetry_multiplicity
  _atom_site_fract_x
  _atom_site_fract_y
  _atom_site_fract_z
  _atom_site_occupancy
  Mn  Mn1       1.0  0.80700  0.00000  0.19300  1.0000
  Mn  Mn2       1.0  0.19300  0.00000  0.19300  1.0000
  Mn  Mn3       1.0  0.19300  0.38600  0.19300  1.0000
  Mn  Mn4       1.0  0.80700  0.00000  0.80700  1.0000
  Mn  Mn5       1.0  0.19300  0.00000  0.80700  1.0000
  Mn  Mn6       1.0  0.80700  0.61400  0.80700  1.0000
  Ni  Ni1       1.0  0.38200  0.76500  0.14700  1.0000
  Ni  Ni2       1.0  0.49600  0.33000  0.16500  1.0000
  Ni  Ni3       1.0  0.83500  0.33000  0.16500  1.0000
  Ni  Ni4       1.0  0.83500  0.67000  0.16500  1.0000
  Ni  Ni5       1.0  0.61800  0.23500  0.38200  1.0000
  Ni  Ni6       1.0  0.14700  0.76500  0.38200  1.0000
  Ni  Ni7       1.0  0.61800  0.76500  0.38200  1.0000
  Ni  Ni8       1.0  0.16500  0.33000  0.49600  1.0000
  Ni  Ni9       1.0  0.83500  0.67000  0.50400  1.0000
  Ni  Ni10      1.0  0.85300  0.23500  0.61800  1.0000
  Ni  Ni11      1.0  0.38200  0.23500  0.61800  1.0000
  Ni  Ni12      1.0  0.38200  0.76500  0.61800  1.0000
  Ni  Ni13      1.0  0.16500  0.67000  0.83500  1.0000
  Ni  Ni14      1.0  0.50400  0.67000  0.83500  1.0000
  Ni  Ni15      1.0  0.16500  0.33000  0.83500  1.0000
  Ni  Ni16      1.0  0.61800  0.23500  0.85300  1.0000
  Si  Si1       1.0  0.50000  0.00000  0.00000  1.0000
  Si  Si2       1.0  0.00000  0.50000  0.00000  1.0000
  Si  Si3       1.0  0.50000  0.50000  0.00000  1.0000
  Si  Si4       1.0  0.00000  0.00000  0.50000  1.0000
  Si  Si5       1.0  0.50000  0.00000  0.50000  1.0000
  Si  Si6       1.0  0.00000  0.50000  0.50000  1.0000
  Si  Si7       1.0  0.50000  0.50000  0.50000  1.0000
