data_image0
_chemical_formula_structural       O11Pm4Rh4
_chemical_formula_sum              "O11 Pm4 Rh4"
_cell_length_a       5.3049
_cell_length_b       5.87474
_cell_length_c       7.58692
_cell_angle_alpha    90
_cell_angle_beta     90
_cell_angle_gamma    90.1778

_space_group_name_H-M_alt    "P 1"
_space_group_IT_number       1

loop_
  _space_group_symop_operation_xyz
  'x, y, z'

loop_
  _atom_site_type_symbol
  _atom_site_label
  _atom_site_symmetry_multiplicity
  _atom_site_fract_x
  _atom_site_fract_y
  _atom_site_fract_z
  _atom_site_occupancy
  O   O1        1.0  0.67200  0.31100  0.05650  1.0000
  O   O2        1.0  0.81900  0.80500  0.06160  1.0000
  O   O3        1.0  0.37000  0.96300  0.25000  1.0000
  O   O4        1.0  0.81900  0.80500  0.43800  1.0000
  O   O5        1.0  0.67200  0.31100  0.44300  1.0000
  O   O6        1.0  0.17900  0.19300  0.54600  1.0000
  O   O7        1.0  0.32100  0.69200  0.54800  1.0000
  O   O8        1.0  0.62500  0.04080  0.75000  1.0000
  O   O9        1.0  0.90100  0.53200  0.75000  1.0000
  O   O10       1.0  0.32100  0.69200  0.95200  1.0000
  O   O11       1.0  0.17900  0.19300  0.95400  1.0000
  Pm  Pm1       1.0  0.96300  0.08560  0.25000  1.0000
  Pm  Pm2       1.0  0.51900  0.58500  0.25000  1.0000
  Pm  Pm3       1.0  0.48100  0.42000  0.75000  1.0000
  Pm  Pm4       1.0  0.03190  0.91300  0.75000  1.0000
  Rh  Rh1       1.0  0.50000  0.00000  0.00200  1.0000
  Rh  Rh2       1.0  0.00390  0.50000  0.02300  1.0000
  Rh  Rh3       1.0  0.00390  0.50000  0.47700  1.0000
  Rh  Rh4       1.0  0.50000  0.00000  0.49800  1.0000
