data_image0
_chemical_formula_structural       Ge7Nb6Ni16
_chemical_formula_sum              "Ge7 Nb6 Ni16"
_cell_length_a       8.10943
_cell_length_b       8.10943
_cell_length_c       8.10943
_cell_angle_alpha    120
_cell_angle_beta     90
_cell_angle_gamma    120

_space_group_name_H-M_alt    "P 1"
_space_group_IT_number       1

loop_
  _space_group_symop_operation_xyz
  'x, y, z'

loop_
  _atom_site_type_symbol
  _atom_site_label
  _atom_site_symmetry_multiplicity
  _atom_site_fract_x
  _atom_site_fract_y
  _atom_site_fract_z
  _atom_site_occupancy
  Ge  Ge1       1.0  0.50000  0.00000  0.00000  1.0000
  Ge  Ge2       1.0  0.00000  0.50000  0.00000  1.0000
  Ge  Ge3       1.0  0.50000  0.50000  0.00000  1.0000
  Ge  Ge4       1.0  0.00000  0.00000  0.50000  1.0000
  Ge  Ge5       1.0  0.00000  0.50000  0.50000  1.0000
  Ge  Ge6       1.0  0.50000  0.50000  0.50000  1.0000
  Ge  Ge7       1.0  0.50000  0.00000  0.50000  1.0000
  Nb  Nb1       1.0  0.20100  0.00000  0.20100  1.0000
  Nb  Nb2       1.0  0.20100  0.40200  0.20100  1.0000
  Nb  Nb3       1.0  0.79900  0.00000  0.20100  1.0000
  Nb  Nb4       1.0  0.79900  1.00000  0.79900  1.0000
  Nb  Nb5       1.0  0.20100  1.00000  0.79900  1.0000
  Nb  Nb6       1.0  0.79900  0.59800  0.79900  1.0000
  Ni  Ni1       1.0  0.38300  0.76600  0.14900  1.0000
  Ni  Ni2       1.0  0.50300  0.33500  0.16800  1.0000
  Ni  Ni3       1.0  0.83200  0.33500  0.16800  1.0000
  Ni  Ni4       1.0  0.83200  0.66500  0.16800  1.0000
  Ni  Ni5       1.0  0.61700  0.23400  0.38300  1.0000
  Ni  Ni6       1.0  0.14900  0.76600  0.38300  1.0000
  Ni  Ni7       1.0  0.61700  0.76600  0.38300  1.0000
  Ni  Ni8       1.0  0.83200  0.66500  0.49700  1.0000
  Ni  Ni9       1.0  0.16800  0.33500  0.50300  1.0000
  Ni  Ni10      1.0  0.85100  0.23400  0.61700  1.0000
  Ni  Ni11      1.0  0.38300  0.23400  0.61700  1.0000
  Ni  Ni12      1.0  0.38300  0.76600  0.61700  1.0000
  Ni  Ni13      1.0  0.16800  0.33500  0.83200  1.0000
  Ni  Ni14      1.0  0.16800  0.66500  0.83200  1.0000
  Ni  Ni15      1.0  0.49700  0.66500  0.83200  1.0000
  Ni  Ni16      1.0  0.61700  0.23400  0.85100  1.0000
