data_image0
_chemical_formula_structural       Al7Cu16Tm6
_chemical_formula_sum              "Al7 Cu16 Tm6"
_cell_length_a       8.633
_cell_length_b       8.633
_cell_length_c       8.633
_cell_angle_alpha    120
_cell_angle_beta     90
_cell_angle_gamma    120

_space_group_name_H-M_alt    "P 1"
_space_group_IT_number       1

loop_
  _space_group_symop_operation_xyz
  'x, y, z'

loop_
  _atom_site_type_symbol
  _atom_site_label
  _atom_site_symmetry_multiplicity
  _atom_site_fract_x
  _atom_site_fract_y
  _atom_site_fract_z
  _atom_site_occupancy
  Al  Al1       1.0  0.00000  0.00000  0.00000  1.0000
  Al  Al2       1.0  0.50000  0.00000  0.00000  1.0000
  Al  Al3       1.0  0.00000  0.50000  0.00000  1.0000
  Al  Al4       1.0  0.50000  0.50000  0.00000  1.0000
  Al  Al5       1.0  0.00000  0.00000  0.50000  1.0000
  Al  Al6       1.0  0.00000  0.50000  0.50000  1.0000
  Al  Al7       1.0  0.50000  0.50000  0.50000  1.0000
  Cu  Cu1       1.0  0.67200  0.34400  0.01670  1.0000
  Cu  Cu2       1.0  0.36300  0.24200  0.12100  1.0000
  Cu  Cu3       1.0  0.87900  0.24200  0.12100  1.0000
  Cu  Cu4       1.0  0.87900  0.75800  0.12100  1.0000
  Cu  Cu5       1.0  0.67200  0.34400  0.32800  1.0000
  Cu  Cu6       1.0  0.67200  0.65600  0.32800  1.0000
  Cu  Cu7       1.0  0.98300  0.65600  0.32800  1.0000
  Cu  Cu8       1.0  0.12100  0.24200  0.36300  1.0000
  Cu  Cu9       1.0  0.87900  0.75800  0.63700  1.0000
  Cu  Cu10      1.0  0.01670  0.34400  0.67200  1.0000
  Cu  Cu11      1.0  0.32800  0.34400  0.67200  1.0000
  Cu  Cu12      1.0  0.32800  0.65600  0.67200  1.0000
  Cu  Cu13      1.0  0.12100  0.24200  0.87900  1.0000
  Cu  Cu14      1.0  0.12100  0.75800  0.87900  1.0000
  Cu  Cu15      1.0  0.63700  0.75800  0.87900  1.0000
  Cu  Cu16      1.0  0.32800  0.65600  0.98300  1.0000
  Tm  Tm1       1.0  0.29000  0.00000  0.29000  1.0000
  Tm  Tm2       1.0  0.29000  0.57900  0.29000  1.0000
  Tm  Tm3       1.0  0.71000  0.00000  0.29000  1.0000
  Tm  Tm4       1.0  0.71000  1.00000  0.71000  1.0000
  Tm  Tm5       1.0  0.29000  0.00000  0.71000  1.0000
  Tm  Tm6       1.0  0.71000  0.42100  0.71000  1.0000
