data_image0
_chemical_formula_structural       Ni23Zr6
_chemical_formula_sum              "Ni23 Zr6"
_cell_length_a       8.07146
_cell_length_b       8.07146
_cell_length_c       8.07146
_cell_angle_alpha    120
_cell_angle_beta     90
_cell_angle_gamma    120

_space_group_name_H-M_alt    "P 1"
_space_group_IT_number       1

loop_
  _space_group_symop_operation_xyz
  'x, y, z'

loop_
  _atom_site_type_symbol
  _atom_site_label
  _atom_site_symmetry_multiplicity
  _atom_site_fract_x
  _atom_site_fract_y
  _atom_site_fract_z
  _atom_site_occupancy
  Ni  Ni1       1.0  0.00000  0.00000  0.00000  1.0000
  Ni  Ni2       1.0  0.50000  0.00000  0.00000  1.0000
  Ni  Ni3       1.0  0.00000  0.50000  0.00000  1.0000
  Ni  Ni4       1.0  0.50000  0.50000  0.00000  1.0000
  Ni  Ni5       1.0  0.67100  0.34200  0.01310  1.0000
  Ni  Ni6       1.0  0.88000  0.76000  0.12000  1.0000
  Ni  Ni7       1.0  0.36000  0.24000  0.12000  1.0000
  Ni  Ni8       1.0  0.88000  0.24000  0.12000  1.0000
  Ni  Ni9       1.0  0.67100  0.65800  0.32900  1.0000
  Ni  Ni10      1.0  0.98700  0.65800  0.32900  1.0000
  Ni  Ni11      1.0  0.67100  0.34200  0.32900  1.0000
  Ni  Ni12      1.0  0.12000  0.24000  0.36000  1.0000
  Ni  Ni13      1.0  0.00000  0.50000  0.50000  1.0000
  Ni  Ni14      1.0  0.50000  0.50000  0.50000  1.0000
  Ni  Ni15      1.0  0.00000  0.00000  0.50000  1.0000
  Ni  Ni16      1.0  0.88000  0.76000  0.64000  1.0000
  Ni  Ni17      1.0  0.32900  0.65800  0.67100  1.0000
  Ni  Ni18      1.0  0.01310  0.34200  0.67100  1.0000
  Ni  Ni19      1.0  0.32900  0.34200  0.67100  1.0000
  Ni  Ni20      1.0  0.12000  0.24000  0.88000  1.0000
  Ni  Ni21      1.0  0.12000  0.76000  0.88000  1.0000
  Ni  Ni22      1.0  0.64000  0.76000  0.88000  1.0000
  Ni  Ni23      1.0  0.32900  0.65800  0.98700  1.0000
  Zr  Zr1       1.0  0.28700  0.57400  0.28700  1.0000
  Zr  Zr2       1.0  0.28700  0.00000  0.28700  1.0000
  Zr  Zr3       1.0  0.71300  0.00000  0.28700  1.0000
  Zr  Zr4       1.0  0.71300  0.00000  0.71300  1.0000
  Zr  Zr5       1.0  0.28700  0.00000  0.71300  1.0000
  Zr  Zr6       1.0  0.71300  0.42600  0.71300  1.0000
