data_image0
_chemical_formula_structural       Nb4O11Sr4
_chemical_formula_sum              "Nb4 O11 Sr4"
_cell_length_a       5.71838
_cell_length_b       5.72146
_cell_length_c       8.04825
_cell_angle_alpha    90
_cell_angle_beta     90
_cell_angle_gamma    90.0267

_space_group_name_H-M_alt    "P 1"
_space_group_IT_number       1

loop_
  _space_group_symop_operation_xyz
  'x, y, z'

loop_
  _atom_site_type_symbol
  _atom_site_label
  _atom_site_symmetry_multiplicity
  _atom_site_fract_x
  _atom_site_fract_y
  _atom_site_fract_z
  _atom_site_occupancy
  Nb  Nb1       1.0  0.50100  0.00093  0.00000  1.0000
  Nb  Nb2       1.0  0.99800  0.50100  0.00484  1.0000
  Nb  Nb3       1.0  0.99800  0.50100  0.49500  1.0000
  Nb  Nb4       1.0  0.50100  0.00093  0.50000  1.0000
  O   O1        1.0  0.77800  0.77800  0.02260  1.0000
  O   O2        1.0  0.72300  0.27800  0.02410  1.0000
  O   O3        1.0  0.44800  0.99300  0.25000  1.0000
  O   O4        1.0  0.72300  0.27800  0.47600  1.0000
  O   O5        1.0  0.77800  0.77800  0.47700  1.0000
  O   O6        1.0  0.22200  0.22400  0.51600  1.0000
  O   O7        1.0  0.27800  0.72200  0.51700  1.0000
  O   O8        1.0  0.53900  0.00578  0.75000  1.0000
  O   O9        1.0  0.96100  0.50400  0.75000  1.0000
  O   O10       1.0  0.27800  0.72200  0.98300  1.0000
  O   O11       1.0  0.22200  0.22400  0.98400  1.0000
  Sr  Sr1       1.0  0.00383  0.01400  0.25000  1.0000
  Sr  Sr2       1.0  0.50200  0.51800  0.25000  1.0000
  Sr  Sr3       1.0  0.49700  0.48300  0.75000  1.0000
  Sr  Sr4       1.0  0.00460  0.98200  0.75000  1.0000
