data_image0
_chemical_formula_structural       O11Os4Yb4
_chemical_formula_sum              "O11 Os4 Yb4"
_cell_length_a       5.20315
_cell_length_b       5.6381
_cell_length_c       7.40378
_cell_angle_alpha    90
_cell_angle_beta     90
_cell_angle_gamma    90.169

_space_group_name_H-M_alt    "P 1"
_space_group_IT_number       1

loop_
  _space_group_symop_operation_xyz
  'x, y, z'

loop_
  _atom_site_type_symbol
  _atom_site_label
  _atom_site_symmetry_multiplicity
  _atom_site_fract_x
  _atom_site_fract_y
  _atom_site_fract_z
  _atom_site_occupancy
  O   O1        1.0  0.80700  0.79900  0.05620  1.0000
  O   O2        1.0  0.68900  0.30300  0.05910  1.0000
  O   O3        1.0  0.38400  0.96500  0.25000  1.0000
  O   O4        1.0  0.68900  0.30300  0.44100  1.0000
  O   O5        1.0  0.80700  0.79900  0.44400  1.0000
  O   O6        1.0  0.18600  0.20100  0.53800  1.0000
  O   O7        1.0  0.31300  0.69300  0.53900  1.0000
  O   O8        1.0  0.60900  0.04100  0.75000  1.0000
  O   O9        1.0  0.90200  0.53500  0.75000  1.0000
  O   O10       1.0  0.31300  0.69300  0.96100  1.0000
  O   O11       1.0  0.18600  0.20100  0.96200  1.0000
  Os  Os1       1.0  0.50200  0.00241  0.00299  1.0000
  Os  Os2       1.0  0.00266  0.50200  0.03100  1.0000
  Os  Os3       1.0  0.00266  0.50200  0.46900  1.0000
  Os  Os4       1.0  0.50200  0.00241  0.49700  1.0000
  Yb  Yb1       1.0  0.97400  0.06540  0.25000  1.0000
  Yb  Yb2       1.0  0.50800  0.57100  0.25000  1.0000
  Yb  Yb3       1.0  0.48400  0.43800  0.75000  1.0000
  Yb  Yb4       1.0  0.02560  0.92100  0.75000  1.0000
