data_image0
_chemical_formula_structural       Al16Hf6Pt7
_chemical_formula_sum              "Al16 Hf6 Pt7"
_cell_length_a       8.75721
_cell_length_b       8.75721
_cell_length_c       8.75721
_cell_angle_alpha    120
_cell_angle_beta     90
_cell_angle_gamma    120

_space_group_name_H-M_alt    "P 1"
_space_group_IT_number       1

loop_
  _space_group_symop_operation_xyz
  'x, y, z'

loop_
  _atom_site_type_symbol
  _atom_site_label
  _atom_site_symmetry_multiplicity
  _atom_site_fract_x
  _atom_site_fract_y
  _atom_site_fract_z
  _atom_site_occupancy
  Al  Al1       1.0  0.33500  0.67100  0.00634  1.0000
  Al  Al2       1.0  0.36000  0.24000  0.12000  1.0000
  Al  Al3       1.0  0.88000  0.24000  0.12000  1.0000
  Al  Al4       1.0  0.88000  0.76000  0.12000  1.0000
  Al  Al5       1.0  0.66500  0.32900  0.33500  1.0000
  Al  Al6       1.0  0.00634  0.67100  0.33500  1.0000
  Al  Al7       1.0  0.66500  0.67100  0.33500  1.0000
  Al  Al8       1.0  0.12000  0.24000  0.36000  1.0000
  Al  Al9       1.0  0.88000  0.76000  0.64000  1.0000
  Al  Al10      1.0  0.33500  0.32900  0.66500  1.0000
  Al  Al11      1.0  0.99400  0.32900  0.66500  1.0000
  Al  Al12      1.0  0.33500  0.67100  0.66500  1.0000
  Al  Al13      1.0  0.12000  0.76000  0.88000  1.0000
  Al  Al14      1.0  0.64000  0.76000  0.88000  1.0000
  Al  Al15      1.0  0.12000  0.24000  0.88000  1.0000
  Al  Al16      1.0  0.66500  0.32900  0.99400  1.0000
  Hf  Hf1       1.0  0.31900  0.00000  0.31900  1.0000
  Hf  Hf2       1.0  0.31900  0.63800  0.31900  1.0000
  Hf  Hf3       1.0  0.68100  0.00000  0.31900  1.0000
  Hf  Hf4       1.0  0.68100  1.00000  0.68100  1.0000
  Hf  Hf5       1.0  0.31900  1.00000  0.68100  1.0000
  Hf  Hf6       1.0  0.68100  0.36200  0.68100  1.0000
  Pt  Pt1       1.0  0.00000  0.00000  0.00000  1.0000
  Pt  Pt2       1.0  0.50000  0.00000  0.00000  1.0000
  Pt  Pt3       1.0  0.00000  0.50000  0.00000  1.0000
  Pt  Pt4       1.0  0.50000  0.50000  0.00000  1.0000
  Pt  Pt5       1.0  0.00000  0.00000  0.50000  1.0000
  Pt  Pt6       1.0  0.00000  0.50000  0.50000  1.0000
  Pt  Pt7       1.0  0.50000  0.50000  0.50000  1.0000
