data_image0
_chemical_formula_structural       Co16Ge7Ta6
_chemical_formula_sum              "Co16 Ge7 Ta6"
_cell_length_a       8.03415
_cell_length_b       8.03415
_cell_length_c       8.03415
_cell_angle_alpha    120
_cell_angle_beta     90
_cell_angle_gamma    120

_space_group_name_H-M_alt    "P 1"
_space_group_IT_number       1

loop_
  _space_group_symop_operation_xyz
  'x, y, z'

loop_
  _atom_site_type_symbol
  _atom_site_label
  _atom_site_symmetry_multiplicity
  _atom_site_fract_x
  _atom_site_fract_y
  _atom_site_fract_z
  _atom_site_occupancy
  Co  Co1       1.0  0.38100  0.76200  0.14300  1.0000
  Co  Co2       1.0  0.49500  0.33000  0.16500  1.0000
  Co  Co3       1.0  0.83500  0.33000  0.16500  1.0000
  Co  Co4       1.0  0.83500  0.67000  0.16500  1.0000
  Co  Co5       1.0  0.61900  0.23800  0.38100  1.0000
  Co  Co6       1.0  0.14300  0.76200  0.38100  1.0000
  Co  Co7       1.0  0.61900  0.76200  0.38100  1.0000
  Co  Co8       1.0  0.16500  0.33000  0.49500  1.0000
  Co  Co9       1.0  0.83500  0.67000  0.50500  1.0000
  Co  Co10      1.0  0.38100  0.23800  0.61900  1.0000
  Co  Co11      1.0  0.38100  0.76200  0.61900  1.0000
  Co  Co12      1.0  0.85700  0.23800  0.61900  1.0000
  Co  Co13      1.0  0.16500  0.33000  0.83500  1.0000
  Co  Co14      1.0  0.16500  0.67000  0.83500  1.0000
  Co  Co15      1.0  0.50500  0.67000  0.83500  1.0000
  Co  Co16      1.0  0.61900  0.23800  0.85700  1.0000
  Ge  Ge1       1.0  0.50000  0.00000  0.00000  1.0000
  Ge  Ge2       1.0  0.00000  0.50000  0.00000  1.0000
  Ge  Ge3       1.0  0.50000  0.50000  0.00000  1.0000
  Ge  Ge4       1.0  0.00000  0.00000  0.50000  1.0000
  Ge  Ge5       1.0  0.00000  0.50000  0.50000  1.0000
  Ge  Ge6       1.0  0.50000  0.50000  0.50000  1.0000
  Ge  Ge7       1.0  0.50000  0.00000  0.50000  1.0000
  Ta  Ta1       1.0  0.20100  0.00000  0.20100  1.0000
  Ta  Ta2       1.0  0.20100  0.40200  0.20100  1.0000
  Ta  Ta3       1.0  0.79900  0.00000  0.20100  1.0000
  Ta  Ta4       1.0  0.79900  0.00000  0.79900  1.0000
  Ta  Ta5       1.0  0.20100  0.00000  0.79900  1.0000
  Ta  Ta6       1.0  0.79900  0.59800  0.79900  1.0000
