data_image0
_chemical_formula_structural       Ni4O11Tb4
_chemical_formula_sum              "Ni4 O11 Tb4"
_cell_length_a       5.20736
_cell_length_b       5.52826
_cell_length_c       7.46813
_cell_angle_alpha    90
_cell_angle_beta     90
_cell_angle_gamma    89.9002

_space_group_name_H-M_alt    "P 1"
_space_group_IT_number       1

loop_
  _space_group_symop_operation_xyz
  'x, y, z'

loop_
  _atom_site_type_symbol
  _atom_site_label
  _atom_site_symmetry_multiplicity
  _atom_site_fract_x
  _atom_site_fract_y
  _atom_site_fract_z
  _atom_site_occupancy
  Ni  Ni1       1.0  0.50400  0.00036  0.00140  1.0000
  Ni  Ni2       1.0  0.50400  0.00036  0.49900  1.0000
  Ni  Ni3       1.0  0.99500  0.49700  0.51100  1.0000
  Ni  Ni4       1.0  0.99500  0.49700  0.98900  1.0000
  O   O1        1.0  0.71500  0.30800  0.06310  1.0000
  O   O2        1.0  0.81800  0.78400  0.06390  1.0000
  O   O3        1.0  0.39600  0.97700  0.25000  1.0000
  O   O4        1.0  0.81800  0.78400  0.43600  1.0000
  O   O5        1.0  0.71500  0.30800  0.43700  1.0000
  O   O6        1.0  0.29900  0.68200  0.54000  1.0000
  O   O7        1.0  0.18500  0.20800  0.54200  1.0000
  O   O8        1.0  0.60300  0.03350  0.75000  1.0000
  O   O9        1.0  0.87600  0.54900  0.75000  1.0000
  O   O10       1.0  0.18500  0.20800  0.95800  1.0000
  O   O11       1.0  0.29900  0.68200  0.96000  1.0000
  Tb  Tb1       1.0  0.97800  0.06210  0.25000  1.0000
  Tb  Tb2       1.0  0.52900  0.58200  0.25000  1.0000
  Tb  Tb3       1.0  0.47500  0.42700  0.75000  1.0000
  Tb  Tb4       1.0  0.01710  0.93300  0.75000  1.0000
