data_image0
_chemical_formula_structural       Cu4O11Tb4
_chemical_formula_sum              "Cu4 O11 Tb4"
_cell_length_a       5.20895
_cell_length_b       5.88142
_cell_length_c       7.167
_cell_angle_alpha    90
_cell_angle_beta     90
_cell_angle_gamma    88.2772

_space_group_name_H-M_alt    "P 1"
_space_group_IT_number       1

loop_
  _space_group_symop_operation_xyz
  'x, y, z'

loop_
  _atom_site_type_symbol
  _atom_site_label
  _atom_site_symmetry_multiplicity
  _atom_site_fract_x
  _atom_site_fract_y
  _atom_site_fract_z
  _atom_site_occupancy
  Cu  Cu1       1.0  0.49800  0.00271  0.00129  1.0000
  Cu  Cu2       1.0  0.49800  0.00271  0.49900  1.0000
  Cu  Cu3       1.0  0.00395  0.49000  0.50000  1.0000
  Cu  Cu4       1.0  0.00395  0.49000  0.00000  1.0000
  O   O1        1.0  0.80400  0.81700  0.05490  1.0000
  O   O2        1.0  0.71700  0.33200  0.06010  1.0000
  O   O3        1.0  0.39100  0.97900  0.25000  1.0000
  O   O4        1.0  0.71700  0.33200  0.44000  1.0000
  O   O5        1.0  0.80400  0.81700  0.44500  1.0000
  O   O6        1.0  0.29200  0.66100  0.53700  1.0000
  O   O7        1.0  0.19400  0.18500  0.54200  1.0000
  O   O8        1.0  0.60600  0.03340  0.75000  1.0000
  O   O9        1.0  0.87500  0.54400  0.75000  1.0000
  O   O10       1.0  0.19400  0.18500  0.95800  1.0000
  O   O11       1.0  0.29200  0.66100  0.96300  1.0000
  Tb  Tb1       1.0  0.96500  0.08080  0.25000  1.0000
  Tb  Tb2       1.0  0.53400  0.60400  0.25000  1.0000
  Tb  Tb3       1.0  0.48100  0.41000  0.75000  1.0000
  Tb  Tb4       1.0  0.02120  0.90300  0.75000  1.0000
