data_image0
_chemical_formula_structural       La4Li2O16Ru2Sr4
_chemical_formula_sum              "La4 Li2 O16 Ru2 Sr4"
_cell_length_a       5.45155
_cell_length_b       5.43548
_cell_length_c       13.2516
_cell_angle_alpha    101.835
_cell_angle_beta     101.87
_cell_angle_gamma    90

_space_group_name_H-M_alt    "P 1"
_space_group_IT_number       1

loop_
  _space_group_symop_operation_xyz
  'x, y, z'

loop_
  _atom_site_type_symbol
  _atom_site_label
  _atom_site_symmetry_multiplicity
  _atom_site_fract_x
  _atom_site_fract_y
  _atom_site_fract_z
  _atom_site_occupancy
  La  La1       1.0  0.57000  0.57000  0.14100  1.0000
  La  La2       1.0  0.68000  0.18000  0.36000  1.0000
  La  La3       1.0  0.31900  0.81900  0.63800  1.0000
  La  La4       1.0  0.43000  0.43000  0.86000  1.0000
  Li  Li1       1.0  0.50200  0.00200  0.00399  1.0000
  Li  Li2       1.0  0.75500  0.75500  0.51100  1.0000
  O   O1        1.0  0.07940  0.57900  0.15900  1.0000
  O   O2        1.0  0.59100  0.09110  0.18200  1.0000
  O   O3        1.0  0.65800  0.65800  0.31500  1.0000
  O   O4        1.0  0.16900  0.16900  0.33800  1.0000
  O   O5        1.0  0.49800  0.49800  0.49700  1.0000
  O   O6        1.0  0.99900  0.49800  0.49700  1.0000
  O   O7        1.0  0.49800  0.00000  0.49700  1.0000
  O   O8        1.0  0.99900  0.00000  0.49700  1.0000
  O   O9        1.0  0.33300  0.33300  0.66500  1.0000
  O   O10       1.0  0.83500  0.83500  0.67100  1.0000
  O   O11       1.0  0.40700  0.90700  0.81400  1.0000
  O   O12       1.0  0.91900  0.41900  0.83800  1.0000
  O   O13       1.0  0.25600  0.25400  0.99800  1.0000
  O   O14       1.0  0.74200  0.25400  0.99800  1.0000
  O   O15       1.0  0.25600  0.74300  0.99800  1.0000
  O   O16       1.0  0.74200  0.74300  0.99800  1.0000
  Ru  Ru1       1.0  0.24900  0.24900  0.49800  1.0000
  Ru  Ru2       1.0  0.99900  0.49900  0.99800  1.0000
  Sr  Sr1       1.0  0.06910  0.06910  0.13800  1.0000
  Sr  Sr2       1.0  0.17800  0.67800  0.35700  1.0000
  Sr  Sr3       1.0  0.82100  0.32100  0.64100  1.0000
  Sr  Sr4       1.0  0.92800  0.92800  0.85600  1.0000
