data_image0
_chemical_formula_structural       Ga4O11Pu4
_chemical_formula_sum              "Ga4 O11 Pu4"
_cell_length_a       5.52898
_cell_length_b       5.58764
_cell_length_c       7.52164
_cell_angle_alpha    90
_cell_angle_beta     90
_cell_angle_gamma    90.2609

_space_group_name_H-M_alt    "P 1"
_space_group_IT_number       1

loop_
  _space_group_symop_operation_xyz
  'x, y, z'

loop_
  _atom_site_type_symbol
  _atom_site_label
  _atom_site_symmetry_multiplicity
  _atom_site_fract_x
  _atom_site_fract_y
  _atom_site_fract_z
  _atom_site_occupancy
  Ga  Ga1       1.0  0.49900  0.00000  0.00072  1.0000
  Ga  Ga2       1.0  0.00396  0.50200  0.01720  1.0000
  Ga  Ga3       1.0  0.00396  0.50200  0.48300  1.0000
  Ga  Ga4       1.0  0.49900  0.00000  0.49900  1.0000
  O   O1        1.0  0.70600  0.29200  0.04160  1.0000
  O   O2        1.0  0.79000  0.79400  0.04170  1.0000
  O   O3        1.0  0.41800  0.98100  0.25000  1.0000
  O   O4        1.0  0.79000  0.79400  0.45800  1.0000
  O   O5        1.0  0.70600  0.29200  0.45800  1.0000
  O   O6        1.0  0.20900  0.20600  0.53500  1.0000
  O   O7        1.0  0.29500  0.70600  0.53600  1.0000
  O   O8        1.0  0.57800  0.01740  0.75000  1.0000
  O   O9        1.0  0.92700  0.51800  0.75000  1.0000
  O   O10       1.0  0.29500  0.70600  0.96400  1.0000
  O   O11       1.0  0.20900  0.20600  0.96500  1.0000
  Pu  Pu1       1.0  0.99200  0.04460  0.25000  1.0000
  Pu  Pu2       1.0  0.49900  0.53800  0.25000  1.0000
  Pu  Pu3       1.0  0.50000  0.46100  0.75000  1.0000
  Pu  Pu4       1.0  0.00449  0.95600  0.75000  1.0000
