data_image0
_chemical_formula_structural       Co4Nd4O11
_chemical_formula_sum              "Co4 Nd4 O11"
_cell_length_a       5.38587
_cell_length_b       5.55218
_cell_length_c       7.7002
_cell_angle_alpha    89.2491
_cell_angle_beta     88.6395
_cell_angle_gamma    90.5873

_space_group_name_H-M_alt    "P 1"
_space_group_IT_number       1

loop_
  _space_group_symop_operation_xyz
  'x, y, z'

loop_
  _atom_site_type_symbol
  _atom_site_label
  _atom_site_symmetry_multiplicity
  _atom_site_fract_x
  _atom_site_fract_y
  _atom_site_fract_z
  _atom_site_occupancy
  Co  Co1       1.0  0.50100  0.00794  0.50100  1.0000
  Co  Co2       1.0  0.98700  0.49600  0.50100  1.0000
  Co  Co3       1.0  0.49900  0.98900  0.99500  1.0000
  Co  Co4       1.0  0.01030  0.49700  0.99900  1.0000
  Nd  Nd1       1.0  0.50400  0.57300  0.25700  1.0000
  Nd  Nd2       1.0  0.00734  0.04430  0.26400  1.0000
  Nd  Nd3       1.0  0.47400  0.44600  0.73200  1.0000
  Nd  Nd4       1.0  0.01220  0.93400  0.75500  1.0000
  O   O1        1.0  0.79800  0.80800  0.05160  1.0000
  O   O2        1.0  0.43800  0.00780  0.23600  1.0000
  O   O3        1.0  0.06570  0.47300  0.24500  1.0000
  O   O4        1.0  0.69800  0.29500  0.44900  1.0000
  O   O5        1.0  0.78400  0.79500  0.46500  1.0000
  O   O6        1.0  0.28900  0.71100  0.52700  1.0000
  O   O7        1.0  0.20200  0.20100  0.54400  1.0000
  O   O8        1.0  0.90200  0.50900  0.76200  1.0000
  O   O9        1.0  0.59500  0.03590  0.76400  1.0000
  O   O10       1.0  0.20500  0.19500  0.95600  1.0000
  O   O11       1.0  0.31900  0.68800  0.95700  1.0000
