data_image0
_chemical_formula_structural       Er6Zn23
_chemical_formula_sum              "Er6 Zn23"
_cell_length_a       8.8953
_cell_length_b       8.8953
_cell_length_c       8.8953
_cell_angle_alpha    120
_cell_angle_beta     90
_cell_angle_gamma    120

_space_group_name_H-M_alt    "P 1"
_space_group_IT_number       1

loop_
  _space_group_symop_operation_xyz
  'x, y, z'

loop_
  _atom_site_type_symbol
  _atom_site_label
  _atom_site_symmetry_multiplicity
  _atom_site_fract_x
  _atom_site_fract_y
  _atom_site_fract_z
  _atom_site_occupancy
  Er  Er1       1.0  0.20400  0.00000  0.20400  1.0000
  Er  Er2       1.0  0.20400  0.40900  0.20400  1.0000
  Er  Er3       1.0  0.79600  0.00000  0.20400  1.0000
  Er  Er4       1.0  0.20400  0.00000  0.79600  1.0000
  Er  Er5       1.0  0.79600  0.59100  0.79600  1.0000
  Er  Er6       1.0  0.79600  1.00000  0.79600  1.0000
  Zn  Zn1       1.0  0.50000  0.00000  0.00000  1.0000
  Zn  Zn2       1.0  0.00000  0.50000  0.00000  1.0000
  Zn  Zn3       1.0  0.50000  0.50000  0.00000  1.0000
  Zn  Zn4       1.0  0.37700  0.75500  0.13200  1.0000
  Zn  Zn5       1.0  0.51100  0.34100  0.17000  1.0000
  Zn  Zn6       1.0  0.83000  0.34100  0.17000  1.0000
  Zn  Zn7       1.0  0.83000  0.65900  0.17000  1.0000
  Zn  Zn8       1.0  0.62300  0.24500  0.37700  1.0000
  Zn  Zn9       1.0  0.13200  0.75500  0.37700  1.0000
  Zn  Zn10      1.0  0.62300  0.75500  0.37700  1.0000
  Zn  Zn11      1.0  0.83000  0.65900  0.48900  1.0000
  Zn  Zn12      1.0  0.00000  0.00000  0.50000  1.0000
  Zn  Zn13      1.0  0.50000  0.00000  0.50000  1.0000
  Zn  Zn14      1.0  0.00000  0.50000  0.50000  1.0000
  Zn  Zn15      1.0  0.50000  0.50000  0.50000  1.0000
  Zn  Zn16      1.0  0.17000  0.34100  0.51100  1.0000
  Zn  Zn17      1.0  0.37700  0.24500  0.62300  1.0000
  Zn  Zn18      1.0  0.37700  0.75500  0.62300  1.0000
  Zn  Zn19      1.0  0.86800  0.24500  0.62300  1.0000
  Zn  Zn20      1.0  0.17000  0.34100  0.83000  1.0000
  Zn  Zn21      1.0  0.17000  0.65900  0.83000  1.0000
  Zn  Zn22      1.0  0.48900  0.65900  0.83000  1.0000
  Zn  Zn23      1.0  0.62300  0.24500  0.86800  1.0000
