data_image0
_chemical_formula_structural       B6Ga3Ni20
_chemical_formula_sum              "B6 Ga3 Ni20"
_cell_length_a       7.4439
_cell_length_b       7.4439
_cell_length_c       7.4439
_cell_angle_alpha    120
_cell_angle_beta     90
_cell_angle_gamma    120

_space_group_name_H-M_alt    "P 1"
_space_group_IT_number       1

loop_
  _space_group_symop_operation_xyz
  'x, y, z'

loop_
  _atom_site_type_symbol
  _atom_site_label
  _atom_site_symmetry_multiplicity
  _atom_site_fract_x
  _atom_site_fract_y
  _atom_site_fract_z
  _atom_site_occupancy
  B   B1        1.0  0.27600  0.00000  0.27600  1.0000
  B   B2        1.0  0.72400  0.00000  0.27600  1.0000
  B   B3        1.0  0.27600  0.55200  0.27600  1.0000
  B   B4        1.0  0.27600  0.00000  0.72400  1.0000
  B   B5        1.0  0.72400  0.44800  0.72400  1.0000
  B   B6        1.0  0.72400  0.00000  0.72400  1.0000
  Ga  Ga1       1.0  0.00000  0.00000  0.00000  1.0000
  Ga  Ga2       1.0  0.75000  0.50000  0.25000  1.0000
  Ga  Ga3       1.0  0.25000  0.50000  0.75000  1.0000
  Ni  Ni1       1.0  0.33700  0.00000  0.00000  1.0000
  Ni  Ni2       1.0  0.66300  0.00000  0.00000  1.0000
  Ni  Ni3       1.0  0.00000  0.33700  0.00000  1.0000
  Ni  Ni4       1.0  0.33700  0.33700  0.00000  1.0000
  Ni  Ni5       1.0  0.00000  0.66300  0.00000  1.0000
  Ni  Ni6       1.0  0.66300  0.66300  0.00000  1.0000
  Ni  Ni7       1.0  0.38200  0.76500  0.14700  1.0000
  Ni  Ni8       1.0  0.00000  0.00000  0.33700  1.0000
  Ni  Ni9       1.0  0.00000  0.33700  0.33700  1.0000
  Ni  Ni10      1.0  0.33700  0.33700  0.33700  1.0000
  Ni  Ni11      1.0  0.61800  0.23500  0.38200  1.0000
  Ni  Ni12      1.0  0.14700  0.76500  0.38200  1.0000
  Ni  Ni13      1.0  0.61800  0.76500  0.38200  1.0000
  Ni  Ni14      1.0  0.38200  0.23500  0.61800  1.0000
  Ni  Ni15      1.0  0.38200  0.76500  0.61800  1.0000
  Ni  Ni16      1.0  0.85300  0.23500  0.61800  1.0000
  Ni  Ni17      1.0  0.00000  0.00000  0.66300  1.0000
  Ni  Ni18      1.0  0.00000  0.66300  0.66300  1.0000
  Ni  Ni19      1.0  0.66300  0.66300  0.66300  1.0000
  Ni  Ni20      1.0  0.61800  0.23500  0.85300  1.0000
