data_image0
_chemical_formula_structural       Mo2S4V
_chemical_formula_sum              "Mo2 S4 V1"
_cell_length_a       3.20958
_cell_length_b       6.02944
_cell_length_c       6.57758
_cell_angle_alpha    113.575
_cell_angle_beta     104.121
_cell_angle_gamma    90

_space_group_name_H-M_alt    "P 1"
_space_group_IT_number       1

loop_
  _space_group_symop_operation_xyz
  'x, y, z'

loop_
  _atom_site_type_symbol
  _atom_site_label
  _atom_site_symmetry_multiplicity
  _atom_site_fract_x
  _atom_site_fract_y
  _atom_site_fract_z
  _atom_site_occupancy
  Mo  Mo1       1.0  0.74100  0.68400  0.48200  1.0000
  Mo  Mo2       1.0  0.25900  0.31600  0.51800  1.0000
  S   S1        1.0  0.10400  0.43800  0.20800  1.0000
  S   S2        1.0  0.63600  0.97200  0.27200  1.0000
  S   S3        1.0  0.36400  0.02820  0.72800  1.0000
  S   S4        1.0  0.89600  0.56200  0.79200  1.0000
  V   V1        1.0  0.00000  0.00000  0.00000  1.0000
