data_image0
_chemical_formula_structural       Cd6Sb12Sr11
_chemical_formula_sum              "Cd6 Sb12 Sr11"
_cell_length_a       4.80776
_cell_length_b       12.6763
_cell_length_c       16.7602
_cell_angle_alpha    109.713
_cell_angle_beta     98.2463
_cell_angle_gamma    90

_space_group_name_H-M_alt    "P 1"
_space_group_IT_number       1

loop_
  _space_group_symop_operation_xyz
  'x, y, z'

loop_
  _atom_site_type_symbol
  _atom_site_label
  _atom_site_symmetry_multiplicity
  _atom_site_fract_x
  _atom_site_fract_y
  _atom_site_fract_z
  _atom_site_occupancy
  Cd  Cd1       1.0  0.54800  0.24500  0.09500  1.0000
  Cd  Cd2       1.0  0.60000  0.74500  0.20100  1.0000
  Cd  Cd3       1.0  0.21900  0.66700  0.43900  1.0000
  Cd  Cd4       1.0  0.78100  0.33300  0.56100  1.0000
  Cd  Cd5       1.0  0.40000  0.25500  0.79900  1.0000
  Cd  Cd6       1.0  0.45200  0.75500  0.90500  1.0000
  Sb  Sb1       1.0  0.54300  0.50000  0.08620  1.0000
  Sb  Sb2       1.0  0.54700  0.88500  0.09340  1.0000
  Sb  Sb3       1.0  0.09020  0.23300  0.18000  1.0000
  Sb  Sb4       1.0  0.15000  0.78400  0.30000  1.0000
  Sb  Sb5       1.0  0.69100  0.52900  0.38100  1.0000
  Sb  Sb6       1.0  0.70400  0.13400  0.40900  1.0000
  Sb  Sb7       1.0  0.29600  0.86600  0.59100  1.0000
  Sb  Sb8       1.0  0.30900  0.47100  0.61900  1.0000
  Sb  Sb9       1.0  0.85000  0.21600  0.70000  1.0000
  Sb  Sb10      1.0  0.91000  0.76700  0.82000  1.0000
  Sb  Sb11      1.0  0.45300  0.11500  0.90700  1.0000
  Sb  Sb12      1.0  0.45700  0.50000  0.91400  1.0000
  Sr  Sr1       1.0  0.00000  0.00000  0.00000  1.0000
  Sr  Sr2       1.0  0.01900  0.68100  0.03790  1.0000
  Sr  Sr3       1.0  0.11400  0.50600  0.22800  1.0000
  Sr  Sr4       1.0  0.12600  0.01550  0.25200  1.0000
  Sr  Sr5       1.0  0.20100  0.34300  0.40100  1.0000
  Sr  Sr6       1.0  0.72200  0.86800  0.44400  1.0000
  Sr  Sr7       1.0  0.27800  0.13200  0.55600  1.0000
  Sr  Sr8       1.0  0.79900  0.65700  0.59900  1.0000
  Sr  Sr9       1.0  0.87400  0.98500  0.74800  1.0000
  Sr  Sr10      1.0  0.88600  0.49400  0.77200  1.0000
  Sr  Sr11      1.0  0.98100  0.31900  0.96200  1.0000
