data_image0
_chemical_formula_structural       Cr4O11Tb4
_chemical_formula_sum              "Cr4 O11 Tb4"
_cell_length_a       5.28085
_cell_length_b       5.58533
_cell_length_c       7.59783
_cell_angle_alpha    90.2105
_cell_angle_beta     89.6765
_cell_angle_gamma    90.4796

_space_group_name_H-M_alt    "P 1"
_space_group_IT_number       1

loop_
  _space_group_symop_operation_xyz
  'x, y, z'

loop_
  _atom_site_type_symbol
  _atom_site_label
  _atom_site_symmetry_multiplicity
  _atom_site_fract_x
  _atom_site_fract_y
  _atom_site_fract_z
  _atom_site_occupancy
  Cr  Cr1       1.0  0.99300  0.49300  0.00074  1.0000
  Cr  Cr2       1.0  0.99300  0.49700  0.49900  1.0000
  Cr  Cr3       1.0  0.50300  0.00289  0.50100  1.0000
  Cr  Cr4       1.0  0.50900  0.00577  0.99900  1.0000
  O   O1        1.0  0.81100  0.80400  0.05760  1.0000
  O   O2        1.0  0.10600  0.45900  0.25100  1.0000
  O   O3        1.0  0.40000  0.96700  0.25200  1.0000
  O   O4        1.0  0.69100  0.30200  0.43200  1.0000
  O   O5        1.0  0.80400  0.80000  0.44500  1.0000
  O   O6        1.0  0.30300  0.70000  0.55300  1.0000
  O   O7        1.0  0.18900  0.19500  0.55700  1.0000
  O   O8        1.0  0.61800  0.04960  0.74900  1.0000
  O   O9        1.0  0.88200  0.53500  0.75000  1.0000
  O   O10       1.0  0.19400  0.19600  0.94700  1.0000
  O   O11       1.0  0.31600  0.69000  0.94900  1.0000
  Tb  Tb1       1.0  0.51200  0.57700  0.24500  1.0000
  Tb  Tb2       1.0  0.99400  0.05850  0.25500  1.0000
  Tb  Tb3       1.0  0.47100  0.43600  0.74400  1.0000
  Tb  Tb4       1.0  0.01970  0.92900  0.75600  1.0000
