data_image0
_chemical_formula_structural       Cu4O11Tm4
_chemical_formula_sum              "Cu4 O11 Tm4"
_cell_length_a       5.14836
_cell_length_b       5.84791
_cell_length_c       7.0368
_cell_angle_alpha    90
_cell_angle_beta     90
_cell_angle_gamma    88.3024

_space_group_name_H-M_alt    "P 1"
_space_group_IT_number       1

loop_
  _space_group_symop_operation_xyz
  'x, y, z'

loop_
  _atom_site_type_symbol
  _atom_site_label
  _atom_site_symmetry_multiplicity
  _atom_site_fract_x
  _atom_site_fract_y
  _atom_site_fract_z
  _atom_site_occupancy
  Cu  Cu1       1.0  0.49800  0.00276  0.00077  1.0000
  Cu  Cu2       1.0  0.49800  0.00276  0.49900  1.0000
  Cu  Cu3       1.0  0.00401  0.48800  0.50000  1.0000
  Cu  Cu4       1.0  0.00401  0.48800  0.00000  1.0000
  O   O1        1.0  0.80700  0.82200  0.05740  1.0000
  O   O2        1.0  0.71200  0.33400  0.06360  1.0000
  O   O3        1.0  0.37800  0.97000  0.25000  1.0000
  O   O4        1.0  0.71200  0.33400  0.43600  1.0000
  O   O5        1.0  0.80700  0.82200  0.44300  1.0000
  O   O6        1.0  0.29800  0.65700  0.54000  1.0000
  O   O7        1.0  0.18900  0.18100  0.54500  1.0000
  O   O8        1.0  0.61900  0.04320  0.75000  1.0000
  O   O9        1.0  0.86100  0.55400  0.75000  1.0000
  O   O10       1.0  0.18900  0.18100  0.95500  1.0000
  O   O11       1.0  0.29800  0.65700  0.96000  1.0000
  Tm  Tm1       1.0  0.96300  0.08450  0.25000  1.0000
  Tm  Tm2       1.0  0.54000  0.60900  0.25000  1.0000
  Tm  Tm3       1.0  0.48000  0.40800  0.75000  1.0000
  Tm  Tm4       1.0  0.02100  0.89900  0.75000  1.0000
