data_image0
_chemical_formula_structural       Al13La16
_chemical_formula_sum              "Al13 La16"
_cell_length_a       9.14262
_cell_length_b       9.14262
_cell_length_c       11.2131
_cell_angle_alpha    90
_cell_angle_beta     90
_cell_angle_gamma    120.001

_space_group_name_H-M_alt    "P 1"
_space_group_IT_number       1

loop_
  _space_group_symop_operation_xyz
  'x, y, z'

loop_
  _atom_site_type_symbol
  _atom_site_label
  _atom_site_symmetry_multiplicity
  _atom_site_fract_x
  _atom_site_fract_y
  _atom_site_fract_z
  _atom_site_occupancy
  Al  Al1       1.0  0.66700  0.33300  0.00000  1.0000
  Al  Al2       1.0  0.33300  0.66700  0.00000  1.0000
  Al  Al3       1.0  0.00000  0.00000  0.23600  1.0000
  Al  Al4       1.0  0.71400  0.71400  0.29000  1.0000
  Al  Al5       1.0  0.28600  0.00000  0.29000  1.0000
  Al  Al6       1.0  0.00000  0.28600  0.29000  1.0000
  Al  Al7       1.0  0.42100  0.00000  0.50000  1.0000
  Al  Al8       1.0  0.00000  0.42100  0.50000  1.0000
  Al  Al9       1.0  0.57900  0.57900  0.50000  1.0000
  Al  Al10      1.0  0.28600  0.00000  0.71000  1.0000
  Al  Al11      1.0  0.00000  0.28600  0.71000  1.0000
  Al  Al12      1.0  0.71400  0.71400  0.71000  1.0000
  Al  Al13      1.0  0.00000  0.00000  0.76400  1.0000
  La  La1       1.0  0.26100  0.00000  0.00000  1.0000
  La  La2       1.0  0.00000  0.26100  0.00000  1.0000
  La  La3       1.0  0.73900  0.73900  0.00000  1.0000
  La  La4       1.0  0.38700  0.38700  0.16300  1.0000
  La  La5       1.0  0.61300  0.00000  0.16300  1.0000
  La  La6       1.0  0.00000  0.61300  0.16300  1.0000
  La  La7       1.0  0.66700  0.33300  0.33700  1.0000
  La  La8       1.0  0.33300  0.66700  0.33700  1.0000
  La  La9       1.0  0.77100  0.00000  0.50000  1.0000
  La  La10      1.0  0.22900  0.22900  0.50000  1.0000
  La  La11      1.0  0.00000  0.77100  0.50000  1.0000
  La  La12      1.0  0.66700  0.33300  0.66300  1.0000
  La  La13      1.0  0.33300  0.66700  0.66300  1.0000
  La  La14      1.0  0.61300  0.00000  0.83700  1.0000
  La  La15      1.0  0.00000  0.61300  0.83700  1.0000
  La  La16      1.0  0.38700  0.38700  0.83700  1.0000
