data_image0
_chemical_formula_structural       Co4O11Sm4
_chemical_formula_sum              "Co4 O11 Sm4"
_cell_length_a       5.29843
_cell_length_b       5.63435
_cell_length_c       7.58806
_cell_angle_alpha    90
_cell_angle_beta     90
_cell_angle_gamma    90.0434

_space_group_name_H-M_alt    "P 1"
_space_group_IT_number       1

loop_
  _space_group_symop_operation_xyz
  'x, y, z'

loop_
  _atom_site_type_symbol
  _atom_site_label
  _atom_site_symmetry_multiplicity
  _atom_site_fract_x
  _atom_site_fract_y
  _atom_site_fract_z
  _atom_site_occupancy
  Co  Co1       1.0  0.50500  0.00140  0.00213  1.0000
  Co  Co2       1.0  0.50500  0.00140  0.49800  1.0000
  Co  Co3       1.0  0.99500  0.49800  0.50900  1.0000
  Co  Co4       1.0  0.99500  0.49800  0.99100  1.0000
  O   O1        1.0  0.72000  0.30700  0.06120  1.0000
  O   O2        1.0  0.81700  0.77800  0.06290  1.0000
  O   O3        1.0  0.40200  0.97900  0.25000  1.0000
  O   O4        1.0  0.81700  0.77800  0.43700  1.0000
  O   O5        1.0  0.72000  0.30700  0.43900  1.0000
  O   O6        1.0  0.29300  0.68500  0.53800  1.0000
  O   O7        1.0  0.18700  0.21200  0.54100  1.0000
  O   O8        1.0  0.59900  0.02940  0.75000  1.0000
  O   O9        1.0  0.88300  0.54300  0.75000  1.0000
  O   O10       1.0  0.18700  0.21200  0.95900  1.0000
  O   O11       1.0  0.29300  0.68500  0.96200  1.0000
  Sm  Sm1       1.0  0.98000  0.05800  0.25000  1.0000
  Sm  Sm2       1.0  0.52600  0.57700  0.25000  1.0000
  Sm  Sm3       1.0  0.47300  0.43000  0.75000  1.0000
  Sm  Sm4       1.0  0.01890  0.93900  0.75000  1.0000
