data_image0
_chemical_formula_structural       Al7Cu16Dy6
_chemical_formula_sum              "Al7 Cu16 Dy6"
_cell_length_a       8.69117
_cell_length_b       8.69117
_cell_length_c       8.69117
_cell_angle_alpha    120
_cell_angle_beta     90
_cell_angle_gamma    120

_space_group_name_H-M_alt    "P 1"
_space_group_IT_number       1

loop_
  _space_group_symop_operation_xyz
  'x, y, z'

loop_
  _atom_site_type_symbol
  _atom_site_label
  _atom_site_symmetry_multiplicity
  _atom_site_fract_x
  _atom_site_fract_y
  _atom_site_fract_z
  _atom_site_occupancy
  Al  Al1       1.0  0.00000  0.00000  0.00000  1.0000
  Al  Al2       1.0  0.50000  0.00000  0.00000  1.0000
  Al  Al3       1.0  0.00000  0.50000  0.00000  1.0000
  Al  Al4       1.0  0.50000  0.50000  0.00000  1.0000
  Al  Al5       1.0  0.00000  0.00000  0.50000  1.0000
  Al  Al6       1.0  0.00000  0.50000  0.50000  1.0000
  Al  Al7       1.0  0.50000  0.50000  0.50000  1.0000
  Cu  Cu1       1.0  0.67300  0.34600  0.01960  1.0000
  Cu  Cu2       1.0  0.36500  0.24300  0.12200  1.0000
  Cu  Cu3       1.0  0.87800  0.24300  0.12200  1.0000
  Cu  Cu4       1.0  0.87800  0.75700  0.12200  1.0000
  Cu  Cu5       1.0  0.67300  0.34600  0.32700  1.0000
  Cu  Cu6       1.0  0.67300  0.65400  0.32700  1.0000
  Cu  Cu7       1.0  0.98000  0.65400  0.32700  1.0000
  Cu  Cu8       1.0  0.12200  0.24300  0.36500  1.0000
  Cu  Cu9       1.0  0.87800  0.75700  0.63500  1.0000
  Cu  Cu10      1.0  0.01960  0.34600  0.67300  1.0000
  Cu  Cu11      1.0  0.32700  0.34600  0.67300  1.0000
  Cu  Cu12      1.0  0.32700  0.65400  0.67300  1.0000
  Cu  Cu13      1.0  0.12200  0.24300  0.87800  1.0000
  Cu  Cu14      1.0  0.12200  0.75700  0.87800  1.0000
  Cu  Cu15      1.0  0.63500  0.75700  0.87800  1.0000
  Cu  Cu16      1.0  0.32700  0.65400  0.98000  1.0000
  Dy  Dy1       1.0  0.28700  0.00000  0.28700  1.0000
  Dy  Dy2       1.0  0.28700  0.57500  0.28700  1.0000
  Dy  Dy3       1.0  0.71300  0.00000  0.28700  1.0000
  Dy  Dy4       1.0  0.71300  0.00000  0.71300  1.0000
  Dy  Dy5       1.0  0.28700  0.00000  0.71300  1.0000
  Dy  Dy6       1.0  0.71300  0.42500  0.71300  1.0000
