data_image0
_chemical_formula_structural       K5Pb24
_chemical_formula_sum              "K5 Pb24"
_cell_length_a       10.8923
_cell_length_b       10.8923
_cell_length_c       10.8923
_cell_angle_alpha    109.471
_cell_angle_beta     109.471
_cell_angle_gamma    109.471

_space_group_name_H-M_alt    "P 1"
_space_group_IT_number       1

loop_
  _space_group_symop_operation_xyz
  'x, y, z'

loop_
  _atom_site_type_symbol
  _atom_site_label
  _atom_site_symmetry_multiplicity
  _atom_site_fract_x
  _atom_site_fract_y
  _atom_site_fract_z
  _atom_site_occupancy
  K   K1        1.0  0.00000  0.00000  0.00000  1.0000
  K   K2        1.0  0.36300  0.00000  0.00000  1.0000
  K   K3        1.0  0.00000  0.36300  0.00000  1.0000
  K   K4        1.0  0.00000  0.00000  0.36300  1.0000
  K   K5        1.0  0.63700  0.63700  0.63700  1.0000
  Pb  Pb1       1.0  0.59800  0.32100  0.00000  1.0000
  Pb  Pb2       1.0  0.32100  0.59800  0.00000  1.0000
  Pb  Pb3       1.0  0.80100  0.61000  0.00000  1.0000
  Pb  Pb4       1.0  0.61000  0.80100  0.00000  1.0000
  Pb  Pb5       1.0  0.39000  0.39000  0.19100  1.0000
  Pb  Pb6       1.0  0.80900  0.19900  0.19900  1.0000
  Pb  Pb7       1.0  0.19900  0.80900  0.19900  1.0000
  Pb  Pb8       1.0  0.67900  0.67900  0.27800  1.0000
  Pb  Pb9       1.0  0.59800  0.00000  0.32100  1.0000
  Pb  Pb10      1.0  1.00000  0.59800  0.32100  1.0000
  Pb  Pb11      1.0  0.39000  0.19100  0.39000  1.0000
  Pb  Pb12      1.0  0.19100  0.39000  0.39000  1.0000
  Pb  Pb13      1.0  0.72200  0.40200  0.40200  1.0000
  Pb  Pb14      1.0  0.40200  0.72200  0.40200  1.0000
  Pb  Pb15      1.0  0.32100  0.00000  0.59800  1.0000
  Pb  Pb16      1.0  0.00000  0.32100  0.59800  1.0000
  Pb  Pb17      1.0  0.80100  0.00000  0.61000  1.0000
  Pb  Pb18      1.0  0.00000  0.80100  0.61000  1.0000
  Pb  Pb19      1.0  0.67900  0.27800  0.67900  1.0000
  Pb  Pb20      1.0  0.27800  0.67900  0.67900  1.0000
  Pb  Pb21      1.0  0.40200  0.40200  0.72200  1.0000
  Pb  Pb22      1.0  0.61000  0.00000  0.80100  1.0000
  Pb  Pb23      1.0  1.00000  0.61000  0.80100  1.0000
  Pb  Pb24      1.0  0.19900  0.19900  0.80900  1.0000
