data_image0
_chemical_formula_structural       Al16Ni7Zr6
_chemical_formula_sum              "Al16 Ni7 Zr6"
_cell_length_a       8.54045
_cell_length_b       8.54045
_cell_length_c       8.54045
_cell_angle_alpha    120
_cell_angle_beta     90
_cell_angle_gamma    120

_space_group_name_H-M_alt    "P 1"
_space_group_IT_number       1

loop_
  _space_group_symop_operation_xyz
  'x, y, z'

loop_
  _atom_site_type_symbol
  _atom_site_label
  _atom_site_symmetry_multiplicity
  _atom_site_fract_x
  _atom_site_fract_y
  _atom_site_fract_z
  _atom_site_occupancy
  Al  Al1       1.0  0.33400  0.66700  0.00065  1.0000
  Al  Al2       1.0  0.88100  0.76200  0.11900  1.0000
  Al  Al3       1.0  0.35700  0.23800  0.11900  1.0000
  Al  Al4       1.0  0.88100  0.23800  0.11900  1.0000
  Al  Al5       1.0  0.66600  0.33300  0.33400  1.0000
  Al  Al6       1.0  0.00065  0.66700  0.33400  1.0000
  Al  Al7       1.0  0.66600  0.66700  0.33400  1.0000
  Al  Al8       1.0  0.11900  0.23800  0.35700  1.0000
  Al  Al9       1.0  0.88100  0.76200  0.64300  1.0000
  Al  Al10      1.0  0.33400  0.33300  0.66600  1.0000
  Al  Al11      1.0  0.99900  0.33300  0.66600  1.0000
  Al  Al12      1.0  0.33400  0.66700  0.66600  1.0000
  Al  Al13      1.0  0.11900  0.23800  0.88100  1.0000
  Al  Al14      1.0  0.11900  0.76200  0.88100  1.0000
  Al  Al15      1.0  0.64300  0.76200  0.88100  1.0000
  Al  Al16      1.0  0.66600  0.33300  0.99900  1.0000
  Ni  Ni1       1.0  0.00000  0.00000  0.00000  1.0000
  Ni  Ni2       1.0  0.50000  0.00000  0.00000  1.0000
  Ni  Ni3       1.0  0.00000  0.50000  0.00000  1.0000
  Ni  Ni4       1.0  0.50000  0.50000  0.00000  1.0000
  Ni  Ni5       1.0  0.00000  0.00000  0.50000  1.0000
  Ni  Ni6       1.0  0.00000  0.50000  0.50000  1.0000
  Ni  Ni7       1.0  0.50000  0.50000  0.50000  1.0000
  Zr  Zr1       1.0  0.30900  0.00000  0.30900  1.0000
  Zr  Zr2       1.0  0.69100  0.00000  0.30900  1.0000
  Zr  Zr3       1.0  0.30900  0.61700  0.30900  1.0000
  Zr  Zr4       1.0  0.30900  0.00000  0.69100  1.0000
  Zr  Zr5       1.0  0.69100  0.00000  0.69100  1.0000
  Zr  Zr6       1.0  0.69100  0.38300  0.69100  1.0000
