data_image0
_chemical_formula_structural       O11Sr4Zr4
_chemical_formula_sum              "O11 Sr4 Zr4"
_cell_length_a       5.80768
_cell_length_b       5.863
_cell_length_c       8.2114
_cell_angle_alpha    90
_cell_angle_beta     90
_cell_angle_gamma    90.075

_space_group_name_H-M_alt    "P 1"
_space_group_IT_number       1

loop_
  _space_group_symop_operation_xyz
  'x, y, z'

loop_
  _atom_site_type_symbol
  _atom_site_label
  _atom_site_symmetry_multiplicity
  _atom_site_fract_x
  _atom_site_fract_y
  _atom_site_fract_z
  _atom_site_occupancy
  O   O1        1.0  0.78700  0.78800  0.03750  1.0000
  O   O2        1.0  0.71400  0.28800  0.04100  1.0000
  O   O3        1.0  0.42500  0.97900  0.25000  1.0000
  O   O4        1.0  0.71400  0.28800  0.45900  1.0000
  O   O5        1.0  0.78700  0.78800  0.46300  1.0000
  O   O6        1.0  0.20900  0.21400  0.53600  1.0000
  O   O7        1.0  0.28700  0.71100  0.53800  1.0000
  O   O8        1.0  0.57300  0.02490  0.75000  1.0000
  O   O9        1.0  0.91700  0.52900  0.75000  1.0000
  O   O10       1.0  0.28700  0.71100  0.96200  1.0000
  O   O11       1.0  0.20900  0.21400  0.96400  1.0000
  Sr  Sr1       1.0  0.99800  0.02020  0.25000  1.0000
  Sr  Sr2       1.0  0.51500  0.53400  0.25000  1.0000
  Sr  Sr3       1.0  0.49300  0.46900  0.75000  1.0000
  Sr  Sr4       1.0  0.00467  0.96500  0.75000  1.0000
  Zr  Zr1       1.0  0.00000  0.49800  0.00046  1.0000
  Zr  Zr2       1.0  0.50200  0.00000  0.00108  1.0000
  Zr  Zr3       1.0  0.50200  0.00000  0.49900  1.0000
  Zr  Zr4       1.0  0.00000  0.49800  0.50000  1.0000
