data_image0
_chemical_formula_structural       O11Sn4Sr4
_chemical_formula_sum              "O11 Sn4 Sr4"
_cell_length_a       5.7899
_cell_length_b       5.83965
_cell_length_c       7.93646
_cell_angle_alpha    90
_cell_angle_beta     90
_cell_angle_gamma    90.1318

_space_group_name_H-M_alt    "P 1"
_space_group_IT_number       1

loop_
  _space_group_symop_operation_xyz
  'x, y, z'

loop_
  _atom_site_type_symbol
  _atom_site_label
  _atom_site_symmetry_multiplicity
  _atom_site_fract_x
  _atom_site_fract_y
  _atom_site_fract_z
  _atom_site_occupancy
  O   O1        1.0  0.78300  0.78700  0.04200  1.0000
  O   O2        1.0  0.71100  0.28500  0.04430  1.0000
  O   O3        1.0  0.41500  0.97700  0.25000  1.0000
  O   O4        1.0  0.71100  0.28500  0.45600  1.0000
  O   O5        1.0  0.78300  0.78700  0.45800  1.0000
  O   O6        1.0  0.21300  0.21100  0.53400  1.0000
  O   O7        1.0  0.29200  0.71300  0.53700  1.0000
  O   O8        1.0  0.57900  0.02320  0.75000  1.0000
  O   O9        1.0  0.93100  0.51800  0.75000  1.0000
  O   O10       1.0  0.29200  0.71300  0.96300  1.0000
  O   O11       1.0  0.21300  0.21100  0.96600  1.0000
  Sn  Sn1       1.0  0.49900  0.00080  0.00075  1.0000
  Sn  Sn2       1.0  0.00249  0.50100  0.01000  1.0000
  Sn  Sn3       1.0  0.00249  0.50100  0.49000  1.0000
  Sn  Sn4       1.0  0.49900  0.00080  0.49900  1.0000
  Sr  Sr1       1.0  0.98800  0.03520  0.25000  1.0000
  Sr  Sr2       1.0  0.50400  0.53700  0.25000  1.0000
  Sr  Sr3       1.0  0.49900  0.46800  0.75000  1.0000
  Sr  Sr4       1.0  0.00777  0.96400  0.75000  1.0000
