data_image0
_chemical_formula_structural       O11Pt4Sr4
_chemical_formula_sum              "O11 Pt4 Sr4"
_cell_length_a       5.53179
_cell_length_b       5.67912
_cell_length_c       8.01129
_cell_angle_alpha    90
_cell_angle_beta     90
_cell_angle_gamma    90.1798

_space_group_name_H-M_alt    "P 1"
_space_group_IT_number       1

loop_
  _space_group_symop_operation_xyz
  'x, y, z'

loop_
  _atom_site_type_symbol
  _atom_site_label
  _atom_site_symmetry_multiplicity
  _atom_site_fract_x
  _atom_site_fract_y
  _atom_site_fract_z
  _atom_site_occupancy
  O   O1        1.0  0.69500  0.30600  0.05140  1.0000
  O   O2        1.0  0.79900  0.79400  0.05670  1.0000
  O   O3        1.0  0.40000  0.99200  0.25000  1.0000
  O   O4        1.0  0.79900  0.79400  0.44300  1.0000
  O   O5        1.0  0.69500  0.30600  0.44900  1.0000
  O   O6        1.0  0.19300  0.19900  0.53400  1.0000
  O   O7        1.0  0.30600  0.69900  0.53600  1.0000
  O   O8        1.0  0.59100  0.01270  0.75000  1.0000
  O   O9        1.0  0.95100  0.49700  0.75000  1.0000
  O   O10       1.0  0.30600  0.69900  0.96400  1.0000
  O   O11       1.0  0.19300  0.19900  0.96600  1.0000
  Pt  Pt1       1.0  0.50000  0.00210  0.00290  1.0000
  Pt  Pt2       1.0  0.99900  0.50400  0.01080  1.0000
  Pt  Pt3       1.0  0.99900  0.50400  0.48900  1.0000
  Pt  Pt4       1.0  0.50000  0.00210  0.49700  1.0000
  Sr  Sr1       1.0  0.97500  0.06530  0.25000  1.0000
  Sr  Sr2       1.0  0.49100  0.55400  0.25000  1.0000
  Sr  Sr3       1.0  0.49600  0.45100  0.75000  1.0000
  Sr  Sr4       1.0  0.02080  0.94400  0.75000  1.0000
