data_image0
_chemical_formula_structural       O11Sm4V4
_chemical_formula_sum              "O11 Sm4 V4"
_cell_length_a       5.38472
_cell_length_b       5.6816
_cell_length_c       7.65569
_cell_angle_alpha    90
_cell_angle_beta     90
_cell_angle_gamma    90.4201

_space_group_name_H-M_alt    "P 1"
_space_group_IT_number       1

loop_
  _space_group_symop_operation_xyz
  'x, y, z'

loop_
  _atom_site_type_symbol
  _atom_site_label
  _atom_site_symmetry_multiplicity
  _atom_site_fract_x
  _atom_site_fract_y
  _atom_site_fract_z
  _atom_site_occupancy
  O   O1        1.0  0.69600  0.29900  0.05300  1.0000
  O   O2        1.0  0.80500  0.79500  0.05420  1.0000
  O   O3        1.0  0.39700  0.96900  0.25000  1.0000
  O   O4        1.0  0.80500  0.79500  0.44600  1.0000
  O   O5        1.0  0.69600  0.29900  0.44700  1.0000
  O   O6        1.0  0.30600  0.69700  0.54600  1.0000
  O   O7        1.0  0.19200  0.20400  0.54600  1.0000
  O   O8        1.0  0.59900  0.03300  0.75000  1.0000
  O   O9        1.0  0.89500  0.53600  0.75000  1.0000
  O   O10       1.0  0.19200  0.20400  0.95400  1.0000
  O   O11       1.0  0.30600  0.69700  0.95400  1.0000
  Sm  Sm1       1.0  0.98400  0.06290  0.25000  1.0000
  Sm  Sm2       1.0  0.52200  0.56300  0.25000  1.0000
  Sm  Sm3       1.0  0.48300  0.44000  0.75000  1.0000
  Sm  Sm4       1.0  0.01600  0.93300  0.75000  1.0000
  V   V1        1.0  0.50000  0.00069  0.00116  1.0000
  V   V2        1.0  0.00046  0.50100  0.00954  1.0000
  V   V3        1.0  0.00046  0.50100  0.49000  1.0000
  V   V4        1.0  0.50000  0.00069  0.49900  1.0000
