data_image0
_chemical_formula_structural       K4O11Pu4
_chemical_formula_sum              "K4 O11 Pu4"
_cell_length_a       6.09445
_cell_length_b       6.10782
_cell_length_c       8.61561
_cell_angle_alpha    90
_cell_angle_beta     90
_cell_angle_gamma    90.1868

_space_group_name_H-M_alt    "P 1"
_space_group_IT_number       1

loop_
  _space_group_symop_operation_xyz
  'x, y, z'

loop_
  _atom_site_type_symbol
  _atom_site_label
  _atom_site_symmetry_multiplicity
  _atom_site_fract_x
  _atom_site_fract_y
  _atom_site_fract_z
  _atom_site_occupancy
  K   K1        1.0  0.00087  0.00344  0.25000  1.0000
  K   K2        1.0  0.49600  0.50300  0.25000  1.0000
  K   K3        1.0  0.49500  0.50000  0.75000  1.0000
  K   K4        1.0  0.00372  0.99800  0.75000  1.0000
  O   O1        1.0  0.24200  0.23200  0.00630  1.0000
  O   O2        1.0  0.74500  0.26700  0.02890  1.0000
  O   O3        1.0  0.75300  0.76400  0.03400  1.0000
  O   O4        1.0  0.02970  0.50100  0.25000  1.0000
  O   O5        1.0  0.75300  0.76400  0.46600  1.0000
  O   O6        1.0  0.74500  0.26700  0.47100  1.0000
  O   O7        1.0  0.24200  0.23200  0.49400  1.0000
  O   O8        1.0  0.25300  0.73300  0.50100  1.0000
  O   O9        1.0  0.97300  0.49900  0.75000  1.0000
  O   O10       1.0  0.53600  0.99800  0.75000  1.0000
  O   O11       1.0  0.25300  0.73300  0.99900  1.0000
  Pu  Pu1       1.0  0.99700  0.50100  0.00400  1.0000
  Pu  Pu2       1.0  0.99700  0.50100  0.49600  1.0000
  Pu  Pu3       1.0  0.50200  0.00114  0.50700  1.0000
  Pu  Pu4       1.0  0.50200  0.00114  0.99300  1.0000
