data_image0
_chemical_formula_structural       Al16Ir7Sc6
_chemical_formula_sum              "Al16 Ir7 Sc6"
_cell_length_a       8.74719
_cell_length_b       8.74719
_cell_length_c       8.74719
_cell_angle_alpha    120
_cell_angle_beta     90
_cell_angle_gamma    120

_space_group_name_H-M_alt    "P 1"
_space_group_IT_number       1

loop_
  _space_group_symop_operation_xyz
  'x, y, z'

loop_
  _atom_site_type_symbol
  _atom_site_label
  _atom_site_symmetry_multiplicity
  _atom_site_fract_x
  _atom_site_fract_y
  _atom_site_fract_z
  _atom_site_occupancy
  Al  Al1       1.0  0.33500  0.67000  0.00533  1.0000
  Al  Al2       1.0  0.88000  0.76000  0.12000  1.0000
  Al  Al3       1.0  0.36000  0.24000  0.12000  1.0000
  Al  Al4       1.0  0.88000  0.24000  0.12000  1.0000
  Al  Al5       1.0  0.00533  0.67000  0.33500  1.0000
  Al  Al6       1.0  0.66500  0.67000  0.33500  1.0000
  Al  Al7       1.0  0.66500  0.33000  0.33500  1.0000
  Al  Al8       1.0  0.12000  0.24000  0.36000  1.0000
  Al  Al9       1.0  0.88000  0.76000  0.64000  1.0000
  Al  Al10      1.0  0.33500  0.33000  0.66500  1.0000
  Al  Al11      1.0  0.99500  0.33000  0.66500  1.0000
  Al  Al12      1.0  0.33500  0.67000  0.66500  1.0000
  Al  Al13      1.0  0.12000  0.76000  0.88000  1.0000
  Al  Al14      1.0  0.64000  0.76000  0.88000  1.0000
  Al  Al15      1.0  0.12000  0.24000  0.88000  1.0000
  Al  Al16      1.0  0.66500  0.33000  0.99500  1.0000
  Ir  Ir1       1.0  0.00000  0.00000  0.00000  1.0000
  Ir  Ir2       1.0  0.50000  0.00000  0.00000  1.0000
  Ir  Ir3       1.0  0.00000  0.50000  0.00000  1.0000
  Ir  Ir4       1.0  0.50000  0.50000  0.00000  1.0000
  Ir  Ir5       1.0  0.00000  0.00000  0.50000  1.0000
  Ir  Ir6       1.0  0.00000  0.50000  0.50000  1.0000
  Ir  Ir7       1.0  0.50000  0.50000  0.50000  1.0000
  Sc  Sc1       1.0  0.29300  0.58700  0.29300  1.0000
  Sc  Sc2       1.0  0.29300  0.00000  0.29300  1.0000
  Sc  Sc3       1.0  0.70700  0.00000  0.29300  1.0000
  Sc  Sc4       1.0  0.29300  0.00000  0.70700  1.0000
  Sc  Sc5       1.0  0.70700  0.00000  0.70700  1.0000
  Sc  Sc6       1.0  0.70700  0.41300  0.70700  1.0000
