data_image0
_chemical_formula_structural       Al16Os7Sc6
_chemical_formula_sum              "Al16 Os7 Sc6"
_cell_length_a       8.76397
_cell_length_b       8.76397
_cell_length_c       8.76397
_cell_angle_alpha    120
_cell_angle_beta     90
_cell_angle_gamma    120

_space_group_name_H-M_alt    "P 1"
_space_group_IT_number       1

loop_
  _space_group_symop_operation_xyz
  'x, y, z'

loop_
  _atom_site_type_symbol
  _atom_site_label
  _atom_site_symmetry_multiplicity
  _atom_site_fract_x
  _atom_site_fract_y
  _atom_site_fract_z
  _atom_site_occupancy
  Al  Al1       1.0  0.33700  0.67500  0.01190  1.0000
  Al  Al2       1.0  0.87900  0.75800  0.12100  1.0000
  Al  Al3       1.0  0.36300  0.24200  0.12100  1.0000
  Al  Al4       1.0  0.87900  0.24200  0.12100  1.0000
  Al  Al5       1.0  0.66300  0.32500  0.33700  1.0000
  Al  Al6       1.0  0.01190  0.67500  0.33700  1.0000
  Al  Al7       1.0  0.66300  0.67500  0.33700  1.0000
  Al  Al8       1.0  0.12100  0.24200  0.36300  1.0000
  Al  Al9       1.0  0.87900  0.75800  0.63700  1.0000
  Al  Al10      1.0  0.33700  0.32500  0.66300  1.0000
  Al  Al11      1.0  0.98800  0.32500  0.66300  1.0000
  Al  Al12      1.0  0.33700  0.67500  0.66300  1.0000
  Al  Al13      1.0  0.12100  0.24200  0.87900  1.0000
  Al  Al14      1.0  0.12100  0.75800  0.87900  1.0000
  Al  Al15      1.0  0.63700  0.75800  0.87900  1.0000
  Al  Al16      1.0  0.66300  0.32500  0.98800  1.0000
  Os  Os1       1.0  0.00000  0.00000  0.00000  1.0000
  Os  Os2       1.0  0.50000  0.00000  0.00000  1.0000
  Os  Os3       1.0  0.00000  0.50000  0.00000  1.0000
  Os  Os4       1.0  0.50000  0.50000  0.00000  1.0000
  Os  Os5       1.0  0.00000  0.00000  0.50000  1.0000
  Os  Os6       1.0  0.00000  0.50000  0.50000  1.0000
  Os  Os7       1.0  0.50000  0.50000  0.50000  1.0000
  Sc  Sc1       1.0  0.71300  0.00000  0.28700  1.0000
  Sc  Sc2       1.0  0.28700  0.00000  0.28700  1.0000
  Sc  Sc3       1.0  0.28700  0.57300  0.28700  1.0000
  Sc  Sc4       1.0  0.28700  0.00000  0.71300  1.0000
  Sc  Sc5       1.0  0.71300  0.42700  0.71300  1.0000
  Sc  Sc6       1.0  0.71300  0.00000  0.71300  1.0000
