data_image0
_chemical_formula_structural       O11Pu4Rb4
_chemical_formula_sum              "O11 Pu4 Rb4"
_cell_length_a       6.15047
_cell_length_b       6.15249
_cell_length_c       8.74488
_cell_angle_alpha    90
_cell_angle_beta     90
_cell_angle_gamma    89.7146

_space_group_name_H-M_alt    "P 1"
_space_group_IT_number       1

loop_
  _space_group_symop_operation_xyz
  'x, y, z'

loop_
  _atom_site_type_symbol
  _atom_site_label
  _atom_site_symmetry_multiplicity
  _atom_site_fract_x
  _atom_site_fract_y
  _atom_site_fract_z
  _atom_site_occupancy
  O   O1        1.0  0.74300  0.24100  0.01060  1.0000
  O   O2        1.0  0.75900  0.73900  0.01080  1.0000
  O   O3        1.0  0.25700  0.75900  0.01340  1.0000
  O   O4        1.0  0.24100  0.26100  0.01390  1.0000
  O   O5        1.0  0.99700  0.50000  0.25000  1.0000
  O   O6        1.0  0.24100  0.26100  0.48600  1.0000
  O   O7        1.0  0.25700  0.75900  0.48700  1.0000
  O   O8        1.0  0.75900  0.73900  0.48900  1.0000
  O   O9        1.0  0.74300  0.24100  0.48900  1.0000
  O   O10       1.0  0.00276  0.49900  0.75000  1.0000
  O   O11       1.0  0.49600  0.99900  0.75000  1.0000
  Pu  Pu1       1.0  0.00017  0.50000  0.00261  1.0000
  Pu  Pu2       1.0  0.00017  0.50000  0.49700  1.0000
  Pu  Pu3       1.0  0.50000  0.00000  0.50900  1.0000
  Pu  Pu4       1.0  0.50000  0.00000  0.99100  1.0000
  Rb  Rb1       1.0  0.99900  0.00020  0.25000  1.0000
  Rb  Rb2       1.0  0.50000  0.50000  0.25000  1.0000
  Rb  Rb3       1.0  0.50000  0.50000  0.75000  1.0000
  Rb  Rb4       1.0  0.00000  0.00000  0.75000  1.0000
