data_image0
_chemical_formula_structural       O11Sr4Ti4
_chemical_formula_sum              "O11 Sr4 Ti4"
_cell_length_a       5.55577
_cell_length_b       5.54724
_cell_length_c       7.80075
_cell_angle_alpha    90
_cell_angle_beta     90
_cell_angle_gamma    90.0015

_space_group_name_H-M_alt    "P 1"
_space_group_IT_number       1

loop_
  _space_group_symop_operation_xyz
  'x, y, z'

loop_
  _atom_site_type_symbol
  _atom_site_label
  _atom_site_symmetry_multiplicity
  _atom_site_fract_x
  _atom_site_fract_y
  _atom_site_fract_z
  _atom_site_occupancy
  O   O1        1.0  0.76500  0.75900  0.02390  1.0000
  O   O2        1.0  0.74300  0.26300  0.02410  1.0000
  O   O3        1.0  0.46900  0.99800  0.25000  1.0000
  O   O4        1.0  0.74300  0.26300  0.47600  1.0000
  O   O5        1.0  0.76500  0.75900  0.47600  1.0000
  O   O6        1.0  0.23700  0.24300  0.50500  1.0000
  O   O7        1.0  0.25900  0.73500  0.50500  1.0000
  O   O8        1.0  0.52700  0.00129  0.75000  1.0000
  O   O9        1.0  0.96500  0.50100  0.75000  1.0000
  O   O10       1.0  0.25900  0.73500  0.99500  1.0000
  O   O11       1.0  0.23700  0.24300  0.99500  1.0000
  Sr  Sr1       1.0  0.00163  0.00509  0.25000  1.0000
  Sr  Sr2       1.0  0.50000  0.50500  0.25000  1.0000
  Sr  Sr3       1.0  0.49600  0.49500  0.75000  1.0000
  Sr  Sr4       1.0  0.00249  0.99600  0.75000  1.0000
  Ti  Ti1       1.0  0.50200  0.00000  0.00432  1.0000
  Ti  Ti2       1.0  0.50200  0.00000  0.49600  1.0000
  Ti  Ti3       1.0  0.99800  0.50000  0.50700  1.0000
  Ti  Ti4       1.0  0.99800  0.50000  0.99300  1.0000
