data_image0
_chemical_formula_structural       O11Pa4Sr4
_chemical_formula_sum              "O11 Pa4 Sr4"
_cell_length_a       6.1018
_cell_length_b       6.24962
_cell_length_c       8.79406
_cell_angle_alpha    90
_cell_angle_beta     90
_cell_angle_gamma    89.9785

_space_group_name_H-M_alt    "P 1"
_space_group_IT_number       1

loop_
  _space_group_symop_operation_xyz
  'x, y, z'

loop_
  _atom_site_type_symbol
  _atom_site_label
  _atom_site_symmetry_multiplicity
  _atom_site_fract_x
  _atom_site_fract_y
  _atom_site_fract_z
  _atom_site_occupancy
  O   O1        1.0  0.80400  0.80200  0.05620  1.0000
  O   O2        1.0  0.69800  0.30300  0.05960  1.0000
  O   O3        1.0  0.39500  0.94600  0.25000  1.0000
  O   O4        1.0  0.69800  0.30300  0.44000  1.0000
  O   O5        1.0  0.80400  0.80200  0.44400  1.0000
  O   O6        1.0  0.19200  0.20000  0.56200  1.0000
  O   O7        1.0  0.30100  0.69900  0.56400  1.0000
  O   O8        1.0  0.61100  0.05350  0.75000  1.0000
  O   O9        1.0  0.87900  0.55800  0.75000  1.0000
  O   O10       1.0  0.30100  0.69900  0.93600  1.0000
  O   O11       1.0  0.19200  0.20000  0.93800  1.0000
  Pa  Pa1       1.0  0.49900  0.00165  0.50000  1.0000
  Pa  Pa2       1.0  0.99800  0.49900  0.50400  1.0000
  Pa  Pa3       1.0  0.99800  0.49900  0.99600  1.0000
  Pa  Pa4       1.0  0.49900  0.00165  0.00000  1.0000
  Sr  Sr1       1.0  0.99300  0.02540  0.25000  1.0000
  Sr  Sr2       1.0  0.52800  0.54700  0.25000  1.0000
  Sr  Sr3       1.0  0.48600  0.45700  0.75000  1.0000
  Sr  Sr4       1.0  0.00925  0.95600  0.75000  1.0000
