data_image0
_chemical_formula_structural       Al4O11Pm4
_chemical_formula_sum              "Al4 O11 Pm4"
_cell_length_a       5.31136
_cell_length_b       5.28786
_cell_length_c       7.43314
_cell_angle_alpha    90
_cell_angle_beta     90
_cell_angle_gamma    90.1458

_space_group_name_H-M_alt    "P 1"
_space_group_IT_number       1

loop_
  _space_group_symop_operation_xyz
  'x, y, z'

loop_
  _atom_site_type_symbol
  _atom_site_label
  _atom_site_symmetry_multiplicity
  _atom_site_fract_x
  _atom_site_fract_y
  _atom_site_fract_z
  _atom_site_occupancy
  Al  Al1       1.0  0.50000  0.00018  0.00155  1.0000
  Al  Al2       1.0  0.99900  0.50000  0.00296  1.0000
  Al  Al3       1.0  0.99900  0.50000  0.49700  1.0000
  Al  Al4       1.0  0.50000  0.00018  0.49800  1.0000
  O   O1        1.0  0.76800  0.76800  0.03160  1.0000
  O   O2        1.0  0.73300  0.26800  0.03540  1.0000
  O   O3        1.0  0.43700  0.99100  0.25000  1.0000
  O   O4        1.0  0.73300  0.26800  0.46500  1.0000
  O   O5        1.0  0.76800  0.76800  0.46800  1.0000
  O   O6        1.0  0.23300  0.23300  0.53000  1.0000
  O   O7        1.0  0.26700  0.73200  0.53300  1.0000
  O   O8        1.0  0.56300  0.00983  0.75000  1.0000
  O   O9        1.0  0.93700  0.50300  0.75000  1.0000
  O   O10       1.0  0.26700  0.73200  0.96700  1.0000
  O   O11       1.0  0.23300  0.23300  0.97000  1.0000
  Pm  Pm1       1.0  0.99600  0.01920  0.25000  1.0000
  Pm  Pm2       1.0  0.50000  0.51700  0.25000  1.0000
  Pm  Pm3       1.0  0.49700  0.48300  0.75000  1.0000
  Pm  Pm4       1.0  0.00461  0.98100  0.75000  1.0000
