data_image0
_chemical_formula_structural       Li2O20P4U3
_chemical_formula_sum              "Li2 O20 P4 U3"
_cell_length_a       5.26338
_cell_length_b       6.66813
_cell_length_c       12.483
_cell_angle_alpha    95.089
_cell_angle_beta     99.5046
_cell_angle_gamma    110.574

_space_group_name_H-M_alt    "P 1"
_space_group_IT_number       1

loop_
  _space_group_symop_operation_xyz
  'x, y, z'

loop_
  _atom_site_type_symbol
  _atom_site_label
  _atom_site_symmetry_multiplicity
  _atom_site_fract_x
  _atom_site_fract_y
  _atom_site_fract_z
  _atom_site_occupancy
  Li  Li1       1.0  0.39500  0.92400  0.18400  1.0000
  Li  Li2       1.0  0.60500  0.07570  0.81600  1.0000
  O   O1        1.0  0.04810  0.77800  0.04130  1.0000
  O   O2        1.0  0.71800  0.37600  0.12100  1.0000
  O   O3        1.0  0.39200  0.57900  0.13500  1.0000
  O   O4        1.0  0.30500  0.21700  0.20700  1.0000
  O   O5        1.0  0.15300  0.82300  0.28200  1.0000
  O   O6        1.0  0.77000  0.05340  0.29000  1.0000
  O   O7        1.0  0.68800  0.55900  0.30500  1.0000
  O   O8        1.0  0.12600  0.49500  0.37700  1.0000
  O   O9        1.0  0.46300  0.24600  0.44600  1.0000
  O   O10       1.0  0.02370  0.81800  0.46000  1.0000
  O   O11       1.0  0.97600  0.18200  0.54000  1.0000
  O   O12       1.0  0.53700  0.75400  0.55400  1.0000
  O   O13       1.0  0.87400  0.50500  0.62300  1.0000
  O   O14       1.0  0.31200  0.44100  0.69500  1.0000
  O   O15       1.0  0.23000  0.94700  0.71000  1.0000
  O   O16       1.0  0.84700  0.17700  0.71800  1.0000
  O   O17       1.0  0.69500  0.78300  0.79300  1.0000
  O   O18       1.0  0.60800  0.42100  0.86500  1.0000
  O   O19       1.0  0.28200  0.62400  0.87900  1.0000
  O   O20       1.0  0.95200  0.22200  0.95900  1.0000
  P   P1        1.0  0.52000  0.42600  0.18600  1.0000
  P   P2        1.0  0.01390  0.67000  0.35700  1.0000
  P   P3        1.0  0.98600  0.33000  0.64300  1.0000
  P   P4        1.0  0.48000  0.57400  0.81400  1.0000
  U   U1        1.0  0.00000  0.50000  0.00000  1.0000
  U   U2        1.0  0.12000  0.15300  0.36900  1.0000
  U   U3        1.0  0.88000  0.84700  0.63100  1.0000
