data_image0
_chemical_formula_structural       Al4O11Tm4
_chemical_formula_sum              "Al4 O11 Tm4"
_cell_length_a       5.10407
_cell_length_b       5.33421
_cell_length_c       7.25791
_cell_angle_alpha    90
_cell_angle_beta     90
_cell_angle_gamma    90.1347

_space_group_name_H-M_alt    "P 1"
_space_group_IT_number       1

loop_
  _space_group_symop_operation_xyz
  'x, y, z'

loop_
  _atom_site_type_symbol
  _atom_site_label
  _atom_site_symmetry_multiplicity
  _atom_site_fract_x
  _atom_site_fract_y
  _atom_site_fract_z
  _atom_site_occupancy
  Al  Al1       1.0  0.50000  0.00000  0.00125  1.0000
  Al  Al2       1.0  0.00034  0.50100  0.00604  1.0000
  Al  Al3       1.0  0.00034  0.50100  0.49400  1.0000
  Al  Al4       1.0  0.50000  0.00000  0.49900  1.0000
  O   O1        1.0  0.80000  0.80000  0.04850  1.0000
  O   O2        1.0  0.69900  0.29800  0.04970  1.0000
  O   O3        1.0  0.40500  0.97200  0.25000  1.0000
  O   O4        1.0  0.69900  0.29800  0.45000  1.0000
  O   O5        1.0  0.80000  0.80000  0.45100  1.0000
  O   O6        1.0  0.19900  0.20100  0.54600  1.0000
  O   O7        1.0  0.30200  0.70000  0.54600  1.0000
  O   O8        1.0  0.59200  0.02710  0.75000  1.0000
  O   O9        1.0  0.90700  0.52700  0.75000  1.0000
  O   O10       1.0  0.30200  0.70000  0.95400  1.0000
  O   O11       1.0  0.19900  0.20100  0.95400  1.0000
  Tm  Tm1       1.0  0.98700  0.06640  0.25000  1.0000
  Tm  Tm2       1.0  0.51200  0.56000  0.25000  1.0000
  Tm  Tm3       1.0  0.48600  0.43800  0.75000  1.0000
  Tm  Tm4       1.0  0.01280  0.93600  0.75000  1.0000
