data_image0
_chemical_formula_structural       Al4O11Y4
_chemical_formula_sum              "Al4 O11 Y4"
_cell_length_a       5.18559
_cell_length_b       5.31727
_cell_length_c       7.39092
_cell_angle_alpha    90.0707
_cell_angle_beta     89.9336
_cell_angle_gamma    90.2497

_space_group_name_H-M_alt    "P 1"
_space_group_IT_number       1

loop_
  _space_group_symop_operation_xyz
  'x, y, z'

loop_
  _atom_site_type_symbol
  _atom_site_label
  _atom_site_symmetry_multiplicity
  _atom_site_fract_x
  _atom_site_fract_y
  _atom_site_fract_z
  _atom_site_occupancy
  Al  Al1       1.0  0.50100  0.00000  0.00015  1.0000
  Al  Al2       1.0  0.99700  0.49700  0.00068  1.0000
  Al  Al3       1.0  0.50000  1.00000  0.49900  1.0000
  Al  Al4       1.0  0.00027  0.50000  0.50000  1.0000
  O   O1        1.0  0.79200  0.79300  0.04330  1.0000
  O   O2        1.0  0.42000  0.98300  0.24900  1.0000
  O   O3        1.0  0.08370  0.48100  0.25000  1.0000
  O   O4        1.0  0.70700  0.29300  0.45300  1.0000
  O   O5        1.0  0.79200  0.79200  0.45700  1.0000
  O   O6        1.0  0.20600  0.20700  0.54400  1.0000
  O   O7        1.0  0.29200  0.70900  0.54500  1.0000
  O   O8        1.0  0.91600  0.51800  0.75100  1.0000
  O   O9        1.0  0.58400  0.02310  0.75100  1.0000
  O   O10       1.0  0.29300  0.70600  0.95700  1.0000
  O   O11       1.0  0.20800  0.20800  0.95800  1.0000
  Y   Y1        1.0  0.51500  0.54800  0.24500  1.0000
  Y   Y2        1.0  0.98800  0.05110  0.25100  1.0000
  Y   Y3        1.0  0.48800  0.44900  0.74900  1.0000
  Y   Y4        1.0  0.01110  0.94800  0.75100  1.0000
