data_image0
_chemical_formula_structural       O11Pd4Sr4
_chemical_formula_sum              "O11 Pd4 Sr4"
_cell_length_a       5.54861
_cell_length_b       5.64052
_cell_length_c       7.99397
_cell_angle_alpha    90
_cell_angle_beta     90
_cell_angle_gamma    90.1602

_space_group_name_H-M_alt    "P 1"
_space_group_IT_number       1

loop_
  _space_group_symop_operation_xyz
  'x, y, z'

loop_
  _atom_site_type_symbol
  _atom_site_label
  _atom_site_symmetry_multiplicity
  _atom_site_fract_x
  _atom_site_fract_y
  _atom_site_fract_z
  _atom_site_occupancy
  O   O1        1.0  0.70500  0.30000  0.05220  1.0000
  O   O2        1.0  0.79400  0.78800  0.05560  1.0000
  O   O3        1.0  0.40700  0.99300  0.25000  1.0000
  O   O4        1.0  0.79400  0.78800  0.44400  1.0000
  O   O5        1.0  0.70500  0.30000  0.44800  1.0000
  O   O6        1.0  0.19500  0.20100  0.52700  1.0000
  O   O7        1.0  0.30400  0.69900  0.53000  1.0000
  O   O8        1.0  0.58600  0.01550  0.75000  1.0000
  O   O9        1.0  0.94700  0.50400  0.75000  1.0000
  O   O10       1.0  0.30400  0.69900  0.97000  1.0000
  O   O11       1.0  0.19500  0.20100  0.97300  1.0000
  Pd  Pd1       1.0  0.50100  0.00250  0.00236  1.0000
  Pd  Pd2       1.0  0.99800  0.50400  0.00354  1.0000
  Pd  Pd3       1.0  0.99800  0.50400  0.49600  1.0000
  Pd  Pd4       1.0  0.50100  0.00250  0.49800  1.0000
  Sr  Sr1       1.0  0.97800  0.05730  0.25000  1.0000
  Sr  Sr2       1.0  0.49300  0.54900  0.25000  1.0000
  Sr  Sr3       1.0  0.49400  0.45700  0.75000  1.0000
  Sr  Sr4       1.0  0.01870  0.95400  0.75000  1.0000
