data_image0
_chemical_formula_structural       Al4Sr
_chemical_formula_sum              "Al4 Sr1"
_cell_length_a       4.46045
_cell_length_b       4.46045
_cell_length_c       6.44192
_cell_angle_alpha    110.255
_cell_angle_beta     110.255
_cell_angle_gamma    90

_space_group_name_H-M_alt    "P 1"
_space_group_IT_number       1

loop_
  _space_group_symop_operation_xyz
  'x, y, z'

loop_
  _atom_site_type_symbol
  _atom_site_label
  _atom_site_symmetry_multiplicity
  _atom_site_fract_x
  _atom_site_fract_y
  _atom_site_fract_z
  _atom_site_occupancy
  Al  Al1       1.0  0.61600  0.61600  0.23200  1.0000
  Al  Al2       1.0  0.75000  0.25000  0.50000  1.0000
  Al  Al3       1.0  0.25000  0.75000  0.50000  1.0000
  Al  Al4       1.0  0.38400  0.38400  0.76800  1.0000
  Sr  Sr1       1.0  0.00000  0.00000  0.00000  1.0000
