data_image0
_chemical_formula_structural       Al4O11Tb4
_chemical_formula_sum              "Al4 O11 Tb4"
_cell_length_a       5.19515
_cell_length_b       5.32108
_cell_length_c       7.35762
_cell_angle_alpha    90
_cell_angle_beta     90
_cell_angle_gamma    90.1402

_space_group_name_H-M_alt    "P 1"
_space_group_IT_number       1

loop_
  _space_group_symop_operation_xyz
  'x, y, z'

loop_
  _atom_site_type_symbol
  _atom_site_label
  _atom_site_symmetry_multiplicity
  _atom_site_fract_x
  _atom_site_fract_y
  _atom_site_fract_z
  _atom_site_occupancy
  Al  Al1       1.0  0.50000  0.00000  0.00132  1.0000
  Al  Al2       1.0  0.00000  0.50100  0.00484  1.0000
  Al  Al3       1.0  0.00000  0.50100  0.49500  1.0000
  Al  Al4       1.0  0.50000  0.00000  0.49900  1.0000
  O   O1        1.0  0.79100  0.79200  0.04160  1.0000
  O   O2        1.0  0.70900  0.29100  0.04320  1.0000
  O   O3        1.0  0.42000  0.98100  0.25000  1.0000
  O   O4        1.0  0.70900  0.29100  0.45700  1.0000
  O   O5        1.0  0.79100  0.79200  0.45800  1.0000
  O   O6        1.0  0.20900  0.20900  0.53900  1.0000
  O   O7        1.0  0.29200  0.70800  0.54000  1.0000
  O   O8        1.0  0.57800  0.01930  0.75000  1.0000
  O   O9        1.0  0.92100  0.51800  0.75000  1.0000
  O   O10       1.0  0.29200  0.70800  0.96000  1.0000
  O   O11       1.0  0.20900  0.20900  0.96100  1.0000
  Tb  Tb1       1.0  0.99000  0.05250  0.25000  1.0000
  Tb  Tb2       1.0  0.50700  0.54800  0.25000  1.0000
  Tb  Tb3       1.0  0.49000  0.45100  0.75000  1.0000
  Tb  Tb4       1.0  0.00947  0.94900  0.75000  1.0000
