data_image0
_chemical_formula_structural       Co4La4O11
_chemical_formula_sum              "Co4 La4 O11"
_cell_length_a       5.48368
_cell_length_b       5.53906
_cell_length_c       7.72179
_cell_angle_alpha    90
_cell_angle_beta     90
_cell_angle_gamma    90.1995

_space_group_name_H-M_alt    "P 1"
_space_group_IT_number       1

loop_
  _space_group_symop_operation_xyz
  'x, y, z'

loop_
  _atom_site_type_symbol
  _atom_site_label
  _atom_site_symmetry_multiplicity
  _atom_site_fract_x
  _atom_site_fract_y
  _atom_site_fract_z
  _atom_site_occupancy
  Co  Co1       1.0  0.50500  0.00000  0.00324  1.0000
  Co  Co2       1.0  0.50500  0.00000  0.49700  1.0000
  Co  Co3       1.0  0.99500  0.49800  0.50500  1.0000
  Co  Co4       1.0  0.99500  0.49800  0.99500  1.0000
  La  La1       1.0  0.99400  0.03160  0.25000  1.0000
  La  La2       1.0  0.50800  0.54100  0.25000  1.0000
  La  La3       1.0  0.48300  0.46400  0.75000  1.0000
  La  La4       1.0  0.00847  0.96500  0.75000  1.0000
  O   O1        1.0  0.73800  0.28800  0.05610  1.0000
  O   O2        1.0  0.79400  0.76300  0.05870  1.0000
  O   O3        1.0  0.42300  0.98700  0.25000  1.0000
  O   O4        1.0  0.79400  0.76300  0.44100  1.0000
  O   O5        1.0  0.73800  0.28800  0.44400  1.0000
  O   O6        1.0  0.27500  0.70800  0.53000  1.0000
  O   O7        1.0  0.21100  0.23000  0.53000  1.0000
  O   O8        1.0  0.58000  0.01620  0.75000  1.0000
  O   O9        1.0  0.90400  0.53100  0.75000  1.0000
  O   O10       1.0  0.21100  0.23000  0.97000  1.0000
  O   O11       1.0  0.27500  0.70800  0.97000  1.0000
