data_image0
_chemical_formula_structural       Ba11Cd6Sb12
_chemical_formula_sum              "Ba11 Cd6 Sb12"
_cell_length_a       4.95211
_cell_length_b       13.3263
_cell_length_c       17.4311
_cell_angle_alpha    109.53
_cell_angle_beta     98.1664
_cell_angle_gamma    90

_space_group_name_H-M_alt    "P 1"
_space_group_IT_number       1

loop_
  _space_group_symop_operation_xyz
  'x, y, z'

loop_
  _atom_site_type_symbol
  _atom_site_label
  _atom_site_symmetry_multiplicity
  _atom_site_fract_x
  _atom_site_fract_y
  _atom_site_fract_z
  _atom_site_occupancy
  Ba  Ba1       1.0  0.00000  0.00000  0.00000  1.0000
  Ba  Ba2       1.0  0.01790  0.67900  0.03590  1.0000
  Ba  Ba3       1.0  0.11300  0.50900  0.22700  1.0000
  Ba  Ba4       1.0  0.12600  0.01950  0.25200  1.0000
  Ba  Ba5       1.0  0.19900  0.34700  0.39900  1.0000
  Ba  Ba6       1.0  0.72000  0.86600  0.43900  1.0000
  Ba  Ba7       1.0  0.28000  0.13400  0.56100  1.0000
  Ba  Ba8       1.0  0.80100  0.65300  0.60100  1.0000
  Ba  Ba9       1.0  0.87400  0.98000  0.74800  1.0000
  Ba  Ba10      1.0  0.88700  0.49100  0.77300  1.0000
  Ba  Ba11      1.0  0.98200  0.32100  0.96400  1.0000
  Cd  Cd1       1.0  0.54600  0.24100  0.09210  1.0000
  Cd  Cd2       1.0  0.59900  0.74600  0.19900  1.0000
  Cd  Cd3       1.0  0.21800  0.67100  0.43700  1.0000
  Cd  Cd4       1.0  0.78200  0.32900  0.56300  1.0000
  Cd  Cd5       1.0  0.40100  0.25400  0.80100  1.0000
  Cd  Cd6       1.0  0.45400  0.75900  0.90800  1.0000
  Sb  Sb1       1.0  0.54200  0.50600  0.08410  1.0000
  Sb  Sb2       1.0  0.54700  0.88000  0.09330  1.0000
  Sb  Sb3       1.0  0.08680  0.23600  0.17400  1.0000
  Sb  Sb4       1.0  0.14700  0.78300  0.29400  1.0000
  Sb  Sb5       1.0  0.69300  0.54300  0.38500  1.0000
  Sb  Sb6       1.0  0.70600  0.14300  0.41300  1.0000
  Sb  Sb7       1.0  0.29400  0.85700  0.58700  1.0000
  Sb  Sb8       1.0  0.30700  0.45700  0.61500  1.0000
  Sb  Sb9       1.0  0.85300  0.21700  0.70600  1.0000
  Sb  Sb10      1.0  0.91300  0.76400  0.82600  1.0000
  Sb  Sb11      1.0  0.45300  0.12000  0.90700  1.0000
  Sb  Sb12      1.0  0.45800  0.49400  0.91600  1.0000
