data_image0
_chemical_formula_structural       O11Ru4Sr4
_chemical_formula_sum              "O11 Ru4 Sr4"
_cell_length_a       5.572
_cell_length_b       5.56844
_cell_length_c       7.86599
_cell_angle_alpha    90
_cell_angle_beta     90
_cell_angle_gamma    90.0377

_space_group_name_H-M_alt    "P 1"
_space_group_IT_number       1

loop_
  _space_group_symop_operation_xyz
  'x, y, z'

loop_
  _atom_site_type_symbol
  _atom_site_label
  _atom_site_symmetry_multiplicity
  _atom_site_fract_x
  _atom_site_fract_y
  _atom_site_fract_z
  _atom_site_occupancy
  O   O1        1.0  0.78200  0.77700  0.03980  1.0000
  O   O2        1.0  0.72100  0.28300  0.04220  1.0000
  O   O3        1.0  0.42800  0.99000  0.25000  1.0000
  O   O4        1.0  0.72100  0.28300  0.45800  1.0000
  O   O5        1.0  0.78200  0.77700  0.46000  1.0000
  O   O6        1.0  0.21800  0.21900  0.52100  1.0000
  O   O7        1.0  0.28300  0.71600  0.52400  1.0000
  O   O8        1.0  0.57200  0.01330  0.75000  1.0000
  O   O9        1.0  0.94100  0.50600  0.75000  1.0000
  O   O10       1.0  0.28300  0.71600  0.97600  1.0000
  O   O11       1.0  0.21800  0.21900  0.97900  1.0000
  Ru  Ru1       1.0  0.50200  0.00030  0.00321  1.0000
  Ru  Ru2       1.0  0.99800  0.50100  0.00554  1.0000
  Ru  Ru3       1.0  0.99800  0.50100  0.49400  1.0000
  Ru  Ru4       1.0  0.50200  0.00030  0.49700  1.0000
  Sr  Sr1       1.0  0.99100  0.02930  0.25000  1.0000
  Sr  Sr2       1.0  0.49100  0.52500  0.25000  1.0000
  Sr  Sr3       1.0  0.49800  0.47400  0.75000  1.0000
  Sr  Sr4       1.0  0.01050  0.97400  0.75000  1.0000
