data_image0
_chemical_formula_structural       Ge4O11Yb4
_chemical_formula_sum              "Ge4 O11 Yb4"
_cell_length_a       5.24976
_cell_length_b       5.35533
_cell_length_c       7.22613
_cell_angle_alpha    90
_cell_angle_beta     90
_cell_angle_gamma    90.1743

_space_group_name_H-M_alt    "P 1"
_space_group_IT_number       1

loop_
  _space_group_symop_operation_xyz
  'x, y, z'

loop_
  _atom_site_type_symbol
  _atom_site_label
  _atom_site_symmetry_multiplicity
  _atom_site_fract_x
  _atom_site_fract_y
  _atom_site_fract_z
  _atom_site_occupancy
  Ge  Ge1       1.0  0.50000  0.00000  0.00154  1.0000
  Ge  Ge2       1.0  0.00200  0.50200  0.01040  1.0000
  Ge  Ge3       1.0  0.00200  0.50200  0.49000  1.0000
  Ge  Ge4       1.0  0.50000  0.00000  0.49800  1.0000
  O   O1        1.0  0.70500  0.28900  0.04550  1.0000
  O   O2        1.0  0.79100  0.79200  0.04610  1.0000
  O   O3        1.0  0.41200  0.98000  0.25000  1.0000
  O   O4        1.0  0.79100  0.79200  0.45400  1.0000
  O   O5        1.0  0.70500  0.28900  0.45500  1.0000
  O   O6        1.0  0.21000  0.20700  0.53700  1.0000
  O   O7        1.0  0.29700  0.70800  0.53900  1.0000
  O   O8        1.0  0.58300  0.01770  0.75000  1.0000
  O   O9        1.0  0.92500  0.51700  0.75000  1.0000
  O   O10       1.0  0.29700  0.70800  0.96100  1.0000
  O   O11       1.0  0.21000  0.20700  0.96300  1.0000
  Yb  Yb1       1.0  0.98300  0.05670  0.25000  1.0000
  Yb  Yb2       1.0  0.50300  0.55000  0.25000  1.0000
  Yb  Yb3       1.0  0.49300  0.45100  0.75000  1.0000
  Yb  Yb4       1.0  0.01210  0.94800  0.75000  1.0000
