data_image0
_chemical_formula_structural       Hf4O11Yb4
_chemical_formula_sum              "Hf4 O11 Yb4"
_cell_length_a       5.49875
_cell_length_b       5.68796
_cell_length_c       7.83247
_cell_angle_alpha    90
_cell_angle_beta     90
_cell_angle_gamma    90.0347

_space_group_name_H-M_alt    "P 1"
_space_group_IT_number       1

loop_
  _space_group_symop_operation_xyz
  'x, y, z'

loop_
  _atom_site_type_symbol
  _atom_site_label
  _atom_site_symmetry_multiplicity
  _atom_site_fract_x
  _atom_site_fract_y
  _atom_site_fract_z
  _atom_site_occupancy
  Hf  Hf1       1.0  0.50000  0.00174  0.00054  1.0000
  Hf  Hf2       1.0  0.00054  0.49900  0.00243  1.0000
  Hf  Hf3       1.0  0.00054  0.49900  0.49800  1.0000
  Hf  Hf4       1.0  0.50000  0.00174  0.49900  1.0000
  O   O1        1.0  0.80100  0.80100  0.05440  1.0000
  O   O2        1.0  0.69800  0.30100  0.05740  1.0000
  O   O3        1.0  0.39200  0.95700  0.25000  1.0000
  O   O4        1.0  0.69800  0.30100  0.44300  1.0000
  O   O5        1.0  0.80100  0.80100  0.44600  1.0000
  O   O6        1.0  0.19300  0.20000  0.55400  1.0000
  O   O7        1.0  0.30200  0.69900  0.55600  1.0000
  O   O8        1.0  0.60700  0.04480  0.75000  1.0000
  O   O9        1.0  0.88800  0.54600  0.75000  1.0000
  O   O10       1.0  0.30200  0.69900  0.94400  1.0000
  O   O11       1.0  0.19300  0.20000  0.94600  1.0000
  Yb  Yb1       1.0  0.98900  0.03930  0.25000  1.0000
  Yb  Yb2       1.0  0.52700  0.55700  0.25000  1.0000
  Yb  Yb3       1.0  0.48700  0.44900  0.75000  1.0000
  Yb  Yb4       1.0  0.01130  0.94400  0.75000  1.0000
