data_image0
_chemical_formula_structural       Co4Eu4O11
_chemical_formula_sum              "Co4 Eu4 O11"
_cell_length_a       5.31466
_cell_length_b       5.29192
_cell_length_c       7.43584
_cell_angle_alpha    90
_cell_angle_beta     90
_cell_angle_gamma    89.5618

_space_group_name_H-M_alt    "P 1"
_space_group_IT_number       1

loop_
  _space_group_symop_operation_xyz
  'x, y, z'

loop_
  _atom_site_type_symbol
  _atom_site_label
  _atom_site_symmetry_multiplicity
  _atom_site_fract_x
  _atom_site_fract_y
  _atom_site_fract_z
  _atom_site_occupancy
  Co  Co1       1.0  0.50400  0.00125  0.00318  1.0000
  Co  Co2       1.0  0.50400  0.00125  0.49700  1.0000
  Co  Co3       1.0  0.99300  0.50000  0.50900  1.0000
  Co  Co4       1.0  0.99300  0.50000  0.99100  1.0000
  Eu  Eu1       1.0  0.00343  0.00615  0.25000  1.0000
  Eu  Eu2       1.0  0.49000  0.50800  0.25000  1.0000
  Eu  Eu3       1.0  0.48700  0.49400  0.75000  1.0000
  Eu  Eu4       1.0  0.01030  0.99200  0.75000  1.0000
  O   O1        1.0  0.76600  0.75400  0.03800  1.0000
  O   O2        1.0  0.75300  0.27100  0.04170  1.0000
  O   O3        1.0  0.45500  0.99300  0.25000  1.0000
  O   O4        1.0  0.75300  0.27100  0.45800  1.0000
  O   O5        1.0  0.76600  0.75400  0.46200  1.0000
  O   O6        1.0  0.24900  0.73200  0.50700  1.0000
  O   O7        1.0  0.24100  0.24500  0.51200  1.0000
  O   O8        1.0  0.55400  0.00000  0.75000  1.0000
  O   O9        1.0  0.94100  0.50700  0.75000  1.0000
  O   O10       1.0  0.24100  0.24500  0.98800  1.0000
  O   O11       1.0  0.24900  0.73200  0.99300  1.0000
