data_image0
_chemical_formula_structural       Al16Ir7Ti6
_chemical_formula_sum              "Al16 Ir7 Ti6"
_cell_length_a       8.59696
_cell_length_b       8.59696
_cell_length_c       8.59696
_cell_angle_alpha    120
_cell_angle_beta     90
_cell_angle_gamma    120

_space_group_name_H-M_alt    "P 1"
_space_group_IT_number       1

loop_
  _space_group_symop_operation_xyz
  'x, y, z'

loop_
  _atom_site_type_symbol
  _atom_site_label
  _atom_site_symmetry_multiplicity
  _atom_site_fract_x
  _atom_site_fract_y
  _atom_site_fract_z
  _atom_site_occupancy
  Al  Al1       1.0  0.34200  0.68500  0.02730  1.0000
  Al  Al2       1.0  0.88000  0.75900  0.12000  1.0000
  Al  Al3       1.0  0.36100  0.24100  0.12000  1.0000
  Al  Al4       1.0  0.88000  0.24100  0.12000  1.0000
  Al  Al5       1.0  0.65800  0.31500  0.34200  1.0000
  Al  Al6       1.0  0.02730  0.68500  0.34200  1.0000
  Al  Al7       1.0  0.65800  0.68500  0.34200  1.0000
  Al  Al8       1.0  0.12000  0.24100  0.36100  1.0000
  Al  Al9       1.0  0.88000  0.75900  0.63900  1.0000
  Al  Al10      1.0  0.34200  0.31500  0.65800  1.0000
  Al  Al11      1.0  0.34200  0.68500  0.65800  1.0000
  Al  Al12      1.0  0.97300  0.31500  0.65800  1.0000
  Al  Al13      1.0  0.12000  0.24100  0.88000  1.0000
  Al  Al14      1.0  0.12000  0.75900  0.88000  1.0000
  Al  Al15      1.0  0.63900  0.75900  0.88000  1.0000
  Al  Al16      1.0  0.65800  0.31500  0.97300  1.0000
  Ir  Ir1       1.0  0.00000  0.00000  0.00000  1.0000
  Ir  Ir2       1.0  0.50000  0.00000  0.00000  1.0000
  Ir  Ir3       1.0  0.00000  0.50000  0.00000  1.0000
  Ir  Ir4       1.0  0.50000  0.50000  0.00000  1.0000
  Ir  Ir5       1.0  0.00000  0.00000  0.50000  1.0000
  Ir  Ir6       1.0  0.00000  0.50000  0.50000  1.0000
  Ir  Ir7       1.0  0.50000  0.50000  0.50000  1.0000
  Ti  Ti1       1.0  0.32400  0.00000  0.32400  1.0000
  Ti  Ti2       1.0  0.32400  0.64800  0.32400  1.0000
  Ti  Ti3       1.0  0.67600  0.00000  0.32400  1.0000
  Ti  Ti4       1.0  0.32400  0.00000  0.67600  1.0000
  Ti  Ti5       1.0  0.67600  0.00000  0.67600  1.0000
  Ti  Ti6       1.0  0.67600  0.35200  0.67600  1.0000
