data_image0
_chemical_formula_structural       Ir4O11Yb4
_chemical_formula_sum              "Ir4 O11 Yb4"
_cell_length_a       5.16021
_cell_length_b       5.69872
_cell_length_c       7.42204
_cell_angle_alpha    90
_cell_angle_beta     90
_cell_angle_gamma    90.2101

_space_group_name_H-M_alt    "P 1"
_space_group_IT_number       1

loop_
  _space_group_symop_operation_xyz
  'x, y, z'

loop_
  _atom_site_type_symbol
  _atom_site_label
  _atom_site_symmetry_multiplicity
  _atom_site_fract_x
  _atom_site_fract_y
  _atom_site_fract_z
  _atom_site_occupancy
  Ir  Ir1       1.0  0.50100  0.00017  0.00145  1.0000
  Ir  Ir2       1.0  0.00156  0.50100  0.01920  1.0000
  Ir  Ir3       1.0  0.00156  0.50100  0.48100  1.0000
  Ir  Ir4       1.0  0.50100  0.00017  0.49900  1.0000
  O   O1        1.0  0.67700  0.30800  0.06110  1.0000
  O   O2        1.0  0.81800  0.80600  0.06190  1.0000
  O   O3        1.0  0.37300  0.95700  0.25000  1.0000
  O   O4        1.0  0.81800  0.80600  0.43800  1.0000
  O   O5        1.0  0.67700  0.30800  0.43900  1.0000
  O   O6        1.0  0.32200  0.69000  0.54500  1.0000
  O   O7        1.0  0.18000  0.19500  0.54600  1.0000
  O   O8        1.0  0.62300  0.04860  0.75000  1.0000
  O   O9        1.0  0.89300  0.53800  0.75000  1.0000
  O   O10       1.0  0.18000  0.19500  0.95400  1.0000
  O   O11       1.0  0.32200  0.69000  0.95500  1.0000
  Yb  Yb1       1.0  0.96800  0.07880  0.25000  1.0000
  Yb  Yb2       1.0  0.51700  0.57900  0.25000  1.0000
  Yb  Yb3       1.0  0.47500  0.42700  0.75000  1.0000
  Yb  Yb4       1.0  0.03150  0.91900  0.75000  1.0000
