data_image0
_chemical_formula_structural       Ce2Pd21Si6
_chemical_formula_sum              "Ce2 Pd21 Si6"
_cell_length_a       8.67244
_cell_length_b       8.67244
_cell_length_c       8.67244
_cell_angle_alpha    120
_cell_angle_beta     90
_cell_angle_gamma    120

_space_group_name_H-M_alt    "P 1"
_space_group_IT_number       1

loop_
  _space_group_symop_operation_xyz
  'x, y, z'

loop_
  _atom_site_type_symbol
  _atom_site_label
  _atom_site_symmetry_multiplicity
  _atom_site_fract_x
  _atom_site_fract_y
  _atom_site_fract_z
  _atom_site_occupancy
  Ce  Ce1       1.0  0.75000  0.50000  0.25000  1.0000
  Ce  Ce2       1.0  0.25000  0.50000  0.75000  1.0000
  Pd  Pd1       1.0  0.00000  0.00000  0.00000  1.0000
  Pd  Pd2       1.0  0.34500  0.00000  0.00000  1.0000
  Pd  Pd3       1.0  0.65500  0.00000  0.00000  1.0000
  Pd  Pd4       1.0  0.00000  0.34500  0.00000  1.0000
  Pd  Pd5       1.0  0.34500  0.34500  0.00000  1.0000
  Pd  Pd6       1.0  0.00000  0.65500  0.00000  1.0000
  Pd  Pd7       1.0  0.65500  0.65500  0.00000  1.0000
  Pd  Pd8       1.0  0.38600  0.77200  0.15800  1.0000
  Pd  Pd9       1.0  0.00000  0.00000  0.34500  1.0000
  Pd  Pd10      1.0  0.00000  0.34500  0.34500  1.0000
  Pd  Pd11      1.0  0.34500  0.34500  0.34500  1.0000
  Pd  Pd12      1.0  0.61400  0.22800  0.38600  1.0000
  Pd  Pd13      1.0  0.15800  0.77200  0.38600  1.0000
  Pd  Pd14      1.0  0.61400  0.77200  0.38600  1.0000
  Pd  Pd15      1.0  0.38600  0.22800  0.61400  1.0000
  Pd  Pd16      1.0  0.84200  0.22800  0.61400  1.0000
  Pd  Pd17      1.0  0.38600  0.77200  0.61400  1.0000
  Pd  Pd18      1.0  0.00000  0.00000  0.65500  1.0000
  Pd  Pd19      1.0  0.00000  0.65500  0.65500  1.0000
  Pd  Pd20      1.0  0.65500  0.65500  0.65500  1.0000
  Pd  Pd21      1.0  0.61400  0.22800  0.84200  1.0000
  Si  Si1       1.0  0.26400  0.00000  0.26400  1.0000
  Si  Si2       1.0  0.73600  0.00000  0.26400  1.0000
  Si  Si3       1.0  0.26400  0.52700  0.26400  1.0000
  Si  Si4       1.0  0.73600  0.00000  0.73600  1.0000
  Si  Si5       1.0  0.26400  0.00000  0.73600  1.0000
  Si  Si6       1.0  0.73600  0.47300  0.73600  1.0000
