data_image0
_chemical_formula_structural       Co4K8O10Rb4
_chemical_formula_sum              "Co4 K8 O10 Rb4"
_cell_length_a       6.68887
_cell_length_b       6.68887
_cell_length_c       11.7226
_cell_angle_alpha    90
_cell_angle_beta     90
_cell_angle_gamma    90

_space_group_name_H-M_alt    "P 1"
_space_group_IT_number       1

loop_
  _space_group_symop_operation_xyz
  'x, y, z'

loop_
  _atom_site_type_symbol
  _atom_site_label
  _atom_site_symmetry_multiplicity
  _atom_site_fract_x
  _atom_site_fract_y
  _atom_site_fract_z
  _atom_site_occupancy
  Co  Co1       1.0  0.79400  0.20600  0.00000  1.0000
  Co  Co2       1.0  0.20600  0.79400  0.00000  1.0000
  Co  Co3       1.0  0.29400  0.29400  0.50000  1.0000
  Co  Co4       1.0  0.70600  0.70600  0.50000  1.0000
  K   K1        1.0  0.00000  0.00000  0.22100  1.0000
  K   K2        1.0  0.50000  0.00000  0.25000  1.0000
  K   K3        1.0  0.00000  0.50000  0.25000  1.0000
  K   K4        1.0  0.50000  0.50000  0.27900  1.0000
  K   K5        1.0  0.50000  0.50000  0.72100  1.0000
  K   K6        1.0  0.50000  0.00000  0.75000  1.0000
  K   K7        1.0  0.00000  0.50000  0.75000  1.0000
  K   K8        1.0  0.00000  0.00000  0.77900  1.0000
  O   O1        1.0  0.00000  0.00000  0.00000  1.0000
  O   O2        1.0  0.71500  0.28500  0.14100  1.0000
  O   O3        1.0  0.28500  0.71500  0.14100  1.0000
  O   O4        1.0  0.21500  0.21500  0.35900  1.0000
  O   O5        1.0  0.78500  0.78500  0.35900  1.0000
  O   O6        1.0  0.50000  0.50000  0.50000  1.0000
  O   O7        1.0  0.21500  0.21500  0.64100  1.0000
  O   O8        1.0  0.78500  0.78500  0.64100  1.0000
  O   O9        1.0  0.71500  0.28500  0.85900  1.0000
  O   O10       1.0  0.28500  0.71500  0.85900  1.0000
  Rb  Rb1       1.0  0.31200  0.31200  0.00000  1.0000
  Rb  Rb2       1.0  0.68800  0.68800  0.00000  1.0000
  Rb  Rb3       1.0  0.81200  0.18800  0.50000  1.0000
  Rb  Rb4       1.0  0.18800  0.81200  0.50000  1.0000
