data_image0
_chemical_formula_structural       Ce4Co4O11
_chemical_formula_sum              "Ce4 Co4 O11"
_cell_length_a       5.52067
_cell_length_b       5.50978
_cell_length_c       7.69867
_cell_angle_alpha    90
_cell_angle_beta     90
_cell_angle_gamma    89.9214

_space_group_name_H-M_alt    "P 1"
_space_group_IT_number       1

loop_
  _space_group_symop_operation_xyz
  'x, y, z'

loop_
  _atom_site_type_symbol
  _atom_site_label
  _atom_site_symmetry_multiplicity
  _atom_site_fract_x
  _atom_site_fract_y
  _atom_site_fract_z
  _atom_site_occupancy
  Ce  Ce1       1.0  0.99500  0.02780  0.25000  1.0000
  Ce  Ce2       1.0  0.50700  0.53600  0.25000  1.0000
  Ce  Ce3       1.0  0.48600  0.47000  0.75000  1.0000
  Ce  Ce4       1.0  0.00608  0.96500  0.75000  1.0000
  Co  Co1       1.0  0.50400  0.00062  0.00315  1.0000
  Co  Co2       1.0  0.50400  0.00062  0.49700  1.0000
  Co  Co3       1.0  0.99700  0.49700  0.50200  1.0000
  Co  Co4       1.0  0.99700  0.49700  0.99800  1.0000
  O   O1        1.0  0.74300  0.28100  0.05480  1.0000
  O   O2        1.0  0.78600  0.76200  0.05510  1.0000
  O   O3        1.0  0.42700  0.98900  0.25000  1.0000
  O   O4        1.0  0.78600  0.76200  0.44500  1.0000
  O   O5        1.0  0.74300  0.28100  0.44500  1.0000
  O   O6        1.0  0.21800  0.23200  0.52800  1.0000
  O   O7        1.0  0.26900  0.71600  0.52900  1.0000
  O   O8        1.0  0.57300  0.01480  0.75000  1.0000
  O   O9        1.0  0.90600  0.52700  0.75000  1.0000
  O   O10       1.0  0.26900  0.71600  0.97100  1.0000
  O   O11       1.0  0.21800  0.23200  0.97200  1.0000
