data_image0
_chemical_formula_structural       Ca4O11Ru4
_chemical_formula_sum              "Ca4 O11 Ru4"
_cell_length_a       5.31493
_cell_length_b       5.58292
_cell_length_c       7.65142
_cell_angle_alpha    90.4026
_cell_angle_beta     89.5548
_cell_angle_gamma    90.3899

_space_group_name_H-M_alt    "P 1"
_space_group_IT_number       1

loop_
  _space_group_symop_operation_xyz
  'x, y, z'

loop_
  _atom_site_type_symbol
  _atom_site_label
  _atom_site_symmetry_multiplicity
  _atom_site_fract_x
  _atom_site_fract_y
  _atom_site_fract_z
  _atom_site_occupancy
  Ca  Ca1       1.0  0.51000  0.57100  0.24600  1.0000
  Ca  Ca2       1.0  0.99300  0.05470  0.25700  1.0000
  Ca  Ca3       1.0  0.47100  0.44000  0.73900  1.0000
  Ca  Ca4       1.0  0.02100  0.93300  0.75500  1.0000
  O   O1        1.0  0.80900  0.80200  0.04890  1.0000
  O   O2        1.0  0.08840  0.46700  0.24900  1.0000
  O   O3        1.0  0.41000  0.98000  0.24900  1.0000
  O   O4        1.0  0.68800  0.30200  0.43700  1.0000
  O   O5        1.0  0.80300  0.79900  0.45100  1.0000
  O   O6        1.0  0.18700  0.19800  0.55100  1.0000
  O   O7        1.0  0.30200  0.70300  0.55300  1.0000
  O   O8        1.0  0.60600  0.03910  0.75100  1.0000
  O   O9        1.0  0.89400  0.52200  0.75300  1.0000
  O   O10       1.0  0.20200  0.20200  0.95400  1.0000
  O   O11       1.0  0.32400  0.68900  0.95800  1.0000
  Ru  Ru1       1.0  0.99300  0.49900  0.49900  1.0000
  Ru  Ru2       1.0  0.50100  0.00261  0.50000  1.0000
  Ru  Ru3       1.0  0.50800  0.00352  0.99800  1.0000
  Ru  Ru4       1.0  0.99700  0.49500  0.99900  1.0000
