data_image0
_chemical_formula_structural       Ho6Mn23
_chemical_formula_sum              "Ho6 Mn23"
_cell_length_a       8.38244
_cell_length_b       8.38244
_cell_length_c       8.38244
_cell_angle_alpha    120
_cell_angle_beta     90
_cell_angle_gamma    120

_space_group_name_H-M_alt    "P 1"
_space_group_IT_number       1

loop_
  _space_group_symop_operation_xyz
  'x, y, z'

loop_
  _atom_site_type_symbol
  _atom_site_label
  _atom_site_symmetry_multiplicity
  _atom_site_fract_x
  _atom_site_fract_y
  _atom_site_fract_z
  _atom_site_occupancy
  Ho  Ho1       1.0  0.79700  0.00000  0.20300  1.0000
  Ho  Ho2       1.0  0.20300  0.00000  0.20300  1.0000
  Ho  Ho3       1.0  0.20300  0.40600  0.20300  1.0000
  Ho  Ho4       1.0  0.20300  0.00000  0.79700  1.0000
  Ho  Ho5       1.0  0.79700  0.00000  0.79700  1.0000
  Ho  Ho6       1.0  0.79700  0.59400  0.79700  1.0000
  Mn  Mn1       1.0  0.50000  0.00000  0.00000  1.0000
  Mn  Mn2       1.0  0.00000  0.50000  0.00000  1.0000
  Mn  Mn3       1.0  0.50000  0.50000  0.00000  1.0000
  Mn  Mn4       1.0  0.37700  0.75300  0.13000  1.0000
  Mn  Mn5       1.0  0.53300  0.35500  0.17800  1.0000
  Mn  Mn6       1.0  0.82200  0.35500  0.17800  1.0000
  Mn  Mn7       1.0  0.82200  0.64500  0.17800  1.0000
  Mn  Mn8       1.0  0.62300  0.24700  0.37700  1.0000
  Mn  Mn9       1.0  0.13000  0.75300  0.37700  1.0000
  Mn  Mn10      1.0  0.62300  0.75300  0.37700  1.0000
  Mn  Mn11      1.0  0.82200  0.64500  0.46700  1.0000
  Mn  Mn12      1.0  0.00000  0.00000  0.50000  1.0000
  Mn  Mn13      1.0  0.50000  0.00000  0.50000  1.0000
  Mn  Mn14      1.0  0.00000  0.50000  0.50000  1.0000
  Mn  Mn15      1.0  0.50000  0.50000  0.50000  1.0000
  Mn  Mn16      1.0  0.17800  0.35500  0.53300  1.0000
  Mn  Mn17      1.0  0.37700  0.24700  0.62300  1.0000
  Mn  Mn18      1.0  0.87000  0.24700  0.62300  1.0000
  Mn  Mn19      1.0  0.37700  0.75300  0.62300  1.0000
  Mn  Mn20      1.0  0.17800  0.35500  0.82200  1.0000
  Mn  Mn21      1.0  0.17800  0.64500  0.82200  1.0000
  Mn  Mn22      1.0  0.46700  0.64500  0.82200  1.0000
  Mn  Mn23      1.0  0.62300  0.24700  0.87000  1.0000
