data_image0
_chemical_formula_structural       O11Sn4Yb4
_chemical_formula_sum              "O11 Sn4 Yb4"
_cell_length_a       5.4218
_cell_length_b       5.64418
_cell_length_c       7.90533
_cell_angle_alpha    90.221
_cell_angle_beta     90.0016
_cell_angle_gamma    92.2962

_space_group_name_H-M_alt    "P 1"
_space_group_IT_number       1

loop_
  _space_group_symop_operation_xyz
  'x, y, z'

loop_
  _atom_site_type_symbol
  _atom_site_label
  _atom_site_symmetry_multiplicity
  _atom_site_fract_x
  _atom_site_fract_y
  _atom_site_fract_z
  _atom_site_occupancy
  O   O1        1.0  0.80700  0.79900  0.05970  1.0000
  O   O2        1.0  0.11400  0.45300  0.25200  1.0000
  O   O3        1.0  0.39300  0.95700  0.25300  1.0000
  O   O4        1.0  0.69200  0.30000  0.41800  1.0000
  O   O5        1.0  0.80300  0.79800  0.44100  1.0000
  O   O6        1.0  0.19100  0.19600  0.56000  1.0000
  O   O7        1.0  0.30400  0.69900  0.56100  1.0000
  O   O8        1.0  0.87900  0.53900  0.74700  1.0000
  O   O9        1.0  0.62300  0.05370  0.74700  1.0000
  O   O10       1.0  0.20200  0.20000  0.94200  1.0000
  O   O11       1.0  0.30500  0.69900  0.95000  1.0000
  Sn  Sn1       1.0  0.97800  0.48100  0.00187  1.0000
  Sn  Sn2       1.0  0.51900  0.02080  0.00295  1.0000
  Sn  Sn3       1.0  0.99400  0.49600  0.49900  1.0000
  Sn  Sn4       1.0  0.50400  0.00441  0.50200  1.0000
  Yb  Yb1       1.0  0.51200  0.57500  0.24400  1.0000
  Yb  Yb2       1.0  0.99900  0.04690  0.25700  1.0000
  Yb  Yb3       1.0  0.46200  0.44900  0.75000  1.0000
  Yb  Yb4       1.0  0.02420  0.93100  0.75500  1.0000
