data_image0
_chemical_formula_structural       Eu4O11Te4
_chemical_formula_sum              "Eu4 O11 Te4"
_cell_length_a       5.86639
_cell_length_b       6.43396
_cell_length_c       8.11758
_cell_angle_alpha    90
_cell_angle_beta     90
_cell_angle_gamma    89.8897

_space_group_name_H-M_alt    "P 1"
_space_group_IT_number       1

loop_
  _space_group_symop_operation_xyz
  'x, y, z'

loop_
  _atom_site_type_symbol
  _atom_site_label
  _atom_site_symmetry_multiplicity
  _atom_site_fract_x
  _atom_site_fract_y
  _atom_site_fract_z
  _atom_site_occupancy
  Eu  Eu1       1.0  0.97500  0.51300  0.00107  1.0000
  Eu  Eu2       1.0  0.97500  0.51300  0.49900  1.0000
  Eu  Eu3       1.0  0.50400  0.98200  0.50100  1.0000
  Eu  Eu4       1.0  0.50400  0.98200  0.99900  1.0000
  O   O1        1.0  0.64600  0.31300  0.07510  1.0000
  O   O2        1.0  0.87900  0.86100  0.07870  1.0000
  O   O3        1.0  0.30100  0.91900  0.25000  1.0000
  O   O4        1.0  0.87900  0.86100  0.42100  1.0000
  O   O5        1.0  0.64600  0.31300  0.42500  1.0000
  O   O6        1.0  0.35200  0.64600  0.58000  1.0000
  O   O7        1.0  0.14600  0.18400  0.58000  1.0000
  O   O8        1.0  0.71100  0.08430  0.75000  1.0000
  O   O9        1.0  0.78400  0.58500  0.75000  1.0000
  O   O10       1.0  0.14600  0.18400  0.92000  1.0000
  O   O11       1.0  0.35200  0.64600  0.92000  1.0000
  Te  Te1       1.0  0.00204  0.02950  0.25000  1.0000
  Te  Te2       1.0  0.49800  0.47600  0.25000  1.0000
  Te  Te3       1.0  0.02190  0.00986  0.75000  1.0000
  Te  Te4       1.0  0.47900  0.47500  0.75000  1.0000
