data_image0
_chemical_formula_structural       O11Si4Yb4
_chemical_formula_sum              "O11 Si4 Yb4"
_cell_length_a       4.99473
_cell_length_b       4.97124
_cell_length_c       7.09548
_cell_angle_alpha    90.0615
_cell_angle_beta     89.9864
_cell_angle_gamma    91.5842

_space_group_name_H-M_alt    "P 1"
_space_group_IT_number       1

loop_
  _space_group_symop_operation_xyz
  'x, y, z'

loop_
  _atom_site_type_symbol
  _atom_site_label
  _atom_site_symmetry_multiplicity
  _atom_site_fract_x
  _atom_site_fract_y
  _atom_site_fract_z
  _atom_site_occupancy
  O   O1        1.0  0.75100  0.75100  0.01430  1.0000
  O   O2        1.0  0.47000  0.99700  0.25100  1.0000
  O   O3        1.0  0.03020  0.50200  0.25100  1.0000
  O   O4        1.0  0.74400  0.25600  0.47700  1.0000
  O   O5        1.0  0.75600  0.75600  0.48600  1.0000
  O   O6        1.0  0.24400  0.24400  0.51500  1.0000
  O   O7        1.0  0.25600  0.74400  0.52100  1.0000
  O   O8        1.0  0.96200  0.48800  0.75000  1.0000
  O   O9        1.0  0.53900  0.01200  0.75000  1.0000
  O   O10       1.0  0.25100  0.74900  0.97900  1.0000
  O   O11       1.0  0.25000  0.24900  0.98700  1.0000
  Si  Si1       1.0  0.50700  0.00674  0.00021  1.0000
  Si  Si2       1.0  0.99300  0.49200  0.00021  1.0000
  Si  Si3       1.0  0.99800  0.49800  0.50000  1.0000
  Si  Si4       1.0  0.50200  0.00176  0.50000  1.0000
  Yb  Yb1       1.0  0.50000  0.50200  0.24800  1.0000
  Yb  Yb2       1.0  0.00000  0.00131  0.24800  1.0000
  Yb  Yb3       1.0  0.49600  0.50100  0.75100  1.0000
  Yb  Yb4       1.0  0.00479  0.99400  0.75100  1.0000
