data_image0
_chemical_formula_structural       Al16Pt7Ti6
_chemical_formula_sum              "Al16 Pt7 Ti6"
_cell_length_a       8.65115
_cell_length_b       8.65115
_cell_length_c       8.65115
_cell_angle_alpha    120
_cell_angle_beta     90
_cell_angle_gamma    120

_space_group_name_H-M_alt    "P 1"
_space_group_IT_number       1

loop_
  _space_group_symop_operation_xyz
  'x, y, z'

loop_
  _atom_site_type_symbol
  _atom_site_label
  _atom_site_symmetry_multiplicity
  _atom_site_fract_x
  _atom_site_fract_y
  _atom_site_fract_z
  _atom_site_occupancy
  Al  Al1       1.0  0.34000  0.68000  0.02060  1.0000
  Al  Al2       1.0  0.36100  0.24100  0.12000  1.0000
  Al  Al3       1.0  0.88000  0.24100  0.12000  1.0000
  Al  Al4       1.0  0.88000  0.75900  0.12000  1.0000
  Al  Al5       1.0  0.66000  0.32000  0.34000  1.0000
  Al  Al6       1.0  0.02060  0.68000  0.34000  1.0000
  Al  Al7       1.0  0.66000  0.68000  0.34000  1.0000
  Al  Al8       1.0  0.12000  0.24100  0.36100  1.0000
  Al  Al9       1.0  0.88000  0.75900  0.63900  1.0000
  Al  Al10      1.0  0.97900  0.32000  0.66000  1.0000
  Al  Al11      1.0  0.34000  0.32000  0.66000  1.0000
  Al  Al12      1.0  0.34000  0.68000  0.66000  1.0000
  Al  Al13      1.0  0.12000  0.24100  0.88000  1.0000
  Al  Al14      1.0  0.12000  0.75900  0.88000  1.0000
  Al  Al15      1.0  0.63900  0.75900  0.88000  1.0000
  Al  Al16      1.0  0.66000  0.32000  0.97900  1.0000
  Pt  Pt1       1.0  0.00000  0.00000  0.00000  1.0000
  Pt  Pt2       1.0  0.50000  0.00000  0.00000  1.0000
  Pt  Pt3       1.0  0.00000  0.50000  0.00000  1.0000
  Pt  Pt4       1.0  0.50000  0.50000  0.00000  1.0000
  Pt  Pt5       1.0  0.00000  0.00000  0.50000  1.0000
  Pt  Pt6       1.0  0.00000  0.50000  0.50000  1.0000
  Pt  Pt7       1.0  0.50000  0.50000  0.50000  1.0000
  Ti  Ti1       1.0  0.32900  0.00000  0.32900  1.0000
  Ti  Ti2       1.0  0.32900  0.65900  0.32900  1.0000
  Ti  Ti3       1.0  0.67100  0.00000  0.32900  1.0000
  Ti  Ti4       1.0  0.32900  0.00000  0.67100  1.0000
  Ti  Ti5       1.0  0.67100  0.00000  0.67100  1.0000
  Ti  Ti6       1.0  0.67100  0.34100  0.67100  1.0000
