data_image0
_chemical_formula_structural       Ga16Hf6Pd7
_chemical_formula_sum              "Ga16 Hf6 Pd7"
_cell_length_a       8.81905
_cell_length_b       8.81905
_cell_length_c       8.81905
_cell_angle_alpha    120
_cell_angle_beta     90
_cell_angle_gamma    120

_space_group_name_H-M_alt    "P 1"
_space_group_IT_number       1

loop_
  _space_group_symop_operation_xyz
  'x, y, z'

loop_
  _atom_site_type_symbol
  _atom_site_label
  _atom_site_symmetry_multiplicity
  _atom_site_fract_x
  _atom_site_fract_y
  _atom_site_fract_z
  _atom_site_occupancy
  Ga  Ga1       1.0  0.34000  0.67900  0.01870  1.0000
  Ga  Ga2       1.0  0.36500  0.24300  0.12200  1.0000
  Ga  Ga3       1.0  0.87800  0.24300  0.12200  1.0000
  Ga  Ga4       1.0  0.87800  0.75700  0.12200  1.0000
  Ga  Ga5       1.0  0.66000  0.32100  0.34000  1.0000
  Ga  Ga6       1.0  0.01870  0.67900  0.34000  1.0000
  Ga  Ga7       1.0  0.66000  0.67900  0.34000  1.0000
  Ga  Ga8       1.0  0.12200  0.24300  0.36500  1.0000
  Ga  Ga9       1.0  0.87800  0.75700  0.63500  1.0000
  Ga  Ga10      1.0  0.34000  0.32100  0.66000  1.0000
  Ga  Ga11      1.0  0.34000  0.67900  0.66000  1.0000
  Ga  Ga12      1.0  0.98100  0.32100  0.66000  1.0000
  Ga  Ga13      1.0  0.12200  0.24300  0.87800  1.0000
  Ga  Ga14      1.0  0.12200  0.75700  0.87800  1.0000
  Ga  Ga15      1.0  0.63500  0.75700  0.87800  1.0000
  Ga  Ga16      1.0  0.66000  0.32100  0.98100  1.0000
  Hf  Hf1       1.0  0.31600  0.00000  0.31600  1.0000
  Hf  Hf2       1.0  0.68400  0.00000  0.31600  1.0000
  Hf  Hf3       1.0  0.31600  0.63300  0.31600  1.0000
  Hf  Hf4       1.0  0.31600  0.00000  0.68400  1.0000
  Hf  Hf5       1.0  0.68400  0.00000  0.68400  1.0000
  Hf  Hf6       1.0  0.68400  0.36700  0.68400  1.0000
  Pd  Pd1       1.0  0.00000  0.00000  0.00000  1.0000
  Pd  Pd2       1.0  0.50000  0.00000  0.00000  1.0000
  Pd  Pd3       1.0  0.00000  0.50000  0.00000  1.0000
  Pd  Pd4       1.0  0.50000  0.50000  0.00000  1.0000
  Pd  Pd5       1.0  0.00000  0.00000  0.50000  1.0000
  Pd  Pd6       1.0  0.00000  0.50000  0.50000  1.0000
  Pd  Pd7       1.0  0.50000  0.50000  0.50000  1.0000
