data_image0
_chemical_formula_structural       I4K2O20U3
_chemical_formula_sum              "I4 K2 O20 U3"
_cell_length_a       7.046
_cell_length_b       7.63451
_cell_length_c       8.90606
_cell_angle_alpha    93.8524
_cell_angle_beta     105.499
_cell_angle_gamma    91.5768

_space_group_name_H-M_alt    "P 1"
_space_group_IT_number       1

loop_
  _space_group_symop_operation_xyz
  'x, y, z'

loop_
  _atom_site_type_symbol
  _atom_site_label
  _atom_site_symmetry_multiplicity
  _atom_site_fract_x
  _atom_site_fract_y
  _atom_site_fract_z
  _atom_site_occupancy
  I   I1        1.0  0.12800  0.79800  0.38700  1.0000
  I   I2        1.0  0.29200  0.34800  0.42700  1.0000
  I   I3        1.0  0.70800  0.65200  0.57300  1.0000
  I   I4        1.0  0.87200  0.20200  0.61300  1.0000
  K   K1        1.0  0.75200  0.40000  0.15800  1.0000
  K   K2        1.0  0.24800  0.60000  0.84200  1.0000
  O   O1        1.0  0.69200  0.02110  0.01730  1.0000
  O   O2        1.0  0.05450  0.22600  0.07960  1.0000
  O   O3        1.0  0.53100  0.68800  0.11400  1.0000
  O   O4        1.0  0.23000  0.91200  0.24200  1.0000
  O   O5        1.0  0.09310  0.58500  0.27700  1.0000
  O   O6        1.0  0.57200  0.14000  0.27900  1.0000
  O   O7        1.0  0.89600  0.89900  0.29400  1.0000
  O   O8        1.0  0.64800  0.46500  0.42600  1.0000
  O   O9        1.0  0.03980  0.28200  0.43500  1.0000
  O   O10       1.0  0.57500  0.81900  0.45000  1.0000
  O   O11       1.0  0.42500  0.18100  0.55000  1.0000
  O   O12       1.0  0.96000  0.71800  0.56500  1.0000
  O   O13       1.0  0.35200  0.53500  0.57400  1.0000
  O   O14       1.0  0.10400  0.10100  0.70600  1.0000
  O   O15       1.0  0.42800  0.86000  0.72100  1.0000
  O   O16       1.0  0.90700  0.41500  0.72300  1.0000
  O   O17       1.0  0.77000  0.08790  0.75800  1.0000
  O   O18       1.0  0.46900  0.31200  0.88600  1.0000
  O   O19       1.0  0.94600  0.77400  0.92000  1.0000
  O   O20       1.0  0.30800  0.97900  0.98300  1.0000
  U   U1        1.0  0.00000  0.00000  0.00000  1.0000
  U   U2        1.0  0.55100  0.91500  0.19600  1.0000
  U   U3        1.0  0.44900  0.08520  0.80400  1.0000
