data_image0
_chemical_formula_structural       B10Rh14Sr5
_chemical_formula_sum              "B10 Rh14 Sr5"
_cell_length_a       5.64466
_cell_length_b       5.71873
_cell_length_c       14.7752
_cell_angle_alpha    95.4094
_cell_angle_beta     101.012
_cell_angle_gamma    60.4275

_space_group_name_H-M_alt    "P 1"
_space_group_IT_number       1

loop_
  _space_group_symop_operation_xyz
  'x, y, z'

loop_
  _atom_site_type_symbol
  _atom_site_label
  _atom_site_symmetry_multiplicity
  _atom_site_fract_x
  _atom_site_fract_y
  _atom_site_fract_z
  _atom_site_occupancy
  B   B1        1.0  0.83400  0.33300  0.00000  1.0000
  B   B2        1.0  0.16600  0.66700  0.00000  1.0000
  B   B3        1.0  0.93600  0.33000  0.20200  1.0000
  B   B4        1.0  0.26600  0.67000  0.20200  1.0000
  B   B5        1.0  0.03620  0.33100  0.40300  1.0000
  B   B6        1.0  0.36700  0.66900  0.40300  1.0000
  B   B7        1.0  0.63300  0.33100  0.59700  1.0000
  B   B8        1.0  0.96400  0.66900  0.59700  1.0000
  B   B9        1.0  0.73400  0.33000  0.79800  1.0000
  B   B10       1.0  0.06400  0.67000  0.79800  1.0000
  Rh  Rh1       1.0  0.05050  0.00000  0.10100  1.0000
  Rh  Rh2       1.0  0.05070  0.50000  0.10100  1.0000
  Rh  Rh3       1.0  0.55100  0.50000  0.10100  1.0000
  Rh  Rh4       1.0  0.15200  0.50000  0.30300  1.0000
  Rh  Rh5       1.0  0.65200  0.50000  0.30300  1.0000
  Rh  Rh6       1.0  0.15300  0.00000  0.30600  1.0000
  Rh  Rh7       1.0  0.25000  0.50000  0.50000  1.0000
  Rh  Rh8       1.0  0.75000  0.50000  0.50000  1.0000
  Rh  Rh9       1.0  0.84700  0.00000  0.69400  1.0000
  Rh  Rh10      1.0  0.34800  0.50000  0.69700  1.0000
  Rh  Rh11      1.0  0.84800  0.50000  0.69700  1.0000
  Rh  Rh12      1.0  0.44900  0.50000  0.89900  1.0000
  Rh  Rh13      1.0  0.94900  0.50000  0.89900  1.0000
  Rh  Rh14      1.0  0.94900  0.00000  0.89900  1.0000
  Sr  Sr1       1.0  0.50000  0.00000  0.00000  1.0000
  Sr  Sr2       1.0  0.60400  0.00000  0.20900  1.0000
  Sr  Sr3       1.0  0.71200  0.00000  0.42300  1.0000
  Sr  Sr4       1.0  0.28800  0.00000  0.57700  1.0000
  Sr  Sr5       1.0  0.39600  0.00000  0.79100  1.0000
