data_image0
_chemical_formula_structural       Gd6Zn23
_chemical_formula_sum              "Gd6 Zn23"
_cell_length_a       8.986
_cell_length_b       8.986
_cell_length_c       8.986
_cell_angle_alpha    120
_cell_angle_beta     90
_cell_angle_gamma    120

_space_group_name_H-M_alt    "P 1"
_space_group_IT_number       1

loop_
  _space_group_symop_operation_xyz
  'x, y, z'

loop_
  _atom_site_type_symbol
  _atom_site_label
  _atom_site_symmetry_multiplicity
  _atom_site_fract_x
  _atom_site_fract_y
  _atom_site_fract_z
  _atom_site_occupancy
  Gd  Gd1       1.0  0.70800  0.00000  0.29200  1.0000
  Gd  Gd2       1.0  0.29200  0.00000  0.29200  1.0000
  Gd  Gd3       1.0  0.29200  0.58500  0.29200  1.0000
  Gd  Gd4       1.0  0.70800  0.00000  0.70800  1.0000
  Gd  Gd5       1.0  0.29200  0.00000  0.70800  1.0000
  Gd  Gd6       1.0  0.70800  0.41500  0.70800  1.0000
  Zn  Zn1       1.0  0.00000  0.00000  0.00000  1.0000
  Zn  Zn2       1.0  0.50000  0.00000  0.00000  1.0000
  Zn  Zn3       1.0  0.00000  0.50000  0.00000  1.0000
  Zn  Zn4       1.0  0.50000  0.50000  0.00000  1.0000
  Zn  Zn5       1.0  0.67200  0.34400  0.01530  1.0000
  Zn  Zn6       1.0  0.36900  0.24600  0.12300  1.0000
  Zn  Zn7       1.0  0.87700  0.24600  0.12300  1.0000
  Zn  Zn8       1.0  0.87700  0.75400  0.12300  1.0000
  Zn  Zn9       1.0  0.67200  0.34400  0.32800  1.0000
  Zn  Zn10      1.0  0.67200  0.65600  0.32800  1.0000
  Zn  Zn11      1.0  0.98500  0.65600  0.32800  1.0000
  Zn  Zn12      1.0  0.12300  0.24600  0.36900  1.0000
  Zn  Zn13      1.0  0.00000  0.00000  0.50000  1.0000
  Zn  Zn14      1.0  0.00000  0.50000  0.50000  1.0000
  Zn  Zn15      1.0  0.50000  0.50000  0.50000  1.0000
  Zn  Zn16      1.0  0.87700  0.75400  0.63100  1.0000
  Zn  Zn17      1.0  0.01530  0.34400  0.67200  1.0000
  Zn  Zn18      1.0  0.32800  0.34400  0.67200  1.0000
  Zn  Zn19      1.0  0.32800  0.65600  0.67200  1.0000
  Zn  Zn20      1.0  0.12300  0.24600  0.87700  1.0000
  Zn  Zn21      1.0  0.12300  0.75400  0.87700  1.0000
  Zn  Zn22      1.0  0.63100  0.75400  0.87700  1.0000
  Zn  Zn23      1.0  0.32800  0.65600  0.98500  1.0000
