data_image0
_chemical_formula_structural       Nb4O11Yb4
_chemical_formula_sum              "Nb4 O11 Yb4"
_cell_length_a       5.46323
_cell_length_b       5.66006
_cell_length_c       7.65624
_cell_angle_alpha    90
_cell_angle_beta     90
_cell_angle_gamma    90.1308

_space_group_name_H-M_alt    "P 1"
_space_group_IT_number       1

loop_
  _space_group_symop_operation_xyz
  'x, y, z'

loop_
  _atom_site_type_symbol
  _atom_site_label
  _atom_site_symmetry_multiplicity
  _atom_site_fract_x
  _atom_site_fract_y
  _atom_site_fract_z
  _atom_site_occupancy
  Nb  Nb1       1.0  0.50300  0.00472  0.00289  1.0000
  Nb  Nb2       1.0  0.00123  0.50400  0.01530  1.0000
  Nb  Nb3       1.0  0.00123  0.50400  0.48500  1.0000
  Nb  Nb4       1.0  0.50300  0.00472  0.49700  1.0000
  O   O1        1.0  0.80100  0.80100  0.04940  1.0000
  O   O2        1.0  0.69700  0.30000  0.05350  1.0000
  O   O3        1.0  0.37900  0.95100  0.25000  1.0000
  O   O4        1.0  0.69700  0.30000  0.44700  1.0000
  O   O5        1.0  0.80100  0.80100  0.45100  1.0000
  O   O6        1.0  0.19300  0.20100  0.53800  1.0000
  O   O7        1.0  0.30700  0.70000  0.54600  1.0000
  O   O8        1.0  0.59300  0.03410  0.75000  1.0000
  O   O9        1.0  0.91000  0.52900  0.75000  1.0000
  O   O10       1.0  0.30700  0.70000  0.95400  1.0000
  O   O11       1.0  0.19300  0.20100  0.96200  1.0000
  Yb  Yb1       1.0  0.99000  0.05040  0.25000  1.0000
  Yb  Yb2       1.0  0.51500  0.56200  0.25000  1.0000
  Yb  Yb3       1.0  0.49500  0.44900  0.75000  1.0000
  Yb  Yb4       1.0  0.01460  0.93600  0.75000  1.0000
