data_image0
_chemical_formula_structural       F18K10Th2
_chemical_formula_sum              "F18 K10 Th2"
_cell_length_a       7.31718
_cell_length_b       7.31718
_cell_length_c       10.1076
_cell_angle_alpha    90
_cell_angle_beta     90
_cell_angle_gamma    116.517

_space_group_name_H-M_alt    "P 1"
_space_group_IT_number       1

loop_
  _space_group_symop_operation_xyz
  'x, y, z'

loop_
  _atom_site_type_symbol
  _atom_site_label
  _atom_site_symmetry_multiplicity
  _atom_site_fract_x
  _atom_site_fract_y
  _atom_site_fract_z
  _atom_site_occupancy
  F   F1        1.0  0.79800  0.20200  0.03060  1.0000
  F   F2        1.0  0.15300  0.21000  0.17800  1.0000
  F   F3        1.0  0.79000  0.84700  0.17800  1.0000
  F   F4        1.0  0.64400  0.35600  0.22700  1.0000
  F   F5        1.0  0.05720  0.50600  0.27000  1.0000
  F   F6        1.0  0.49400  0.94300  0.27000  1.0000
  F   F7        1.0  0.95600  0.04410  0.42200  1.0000
  F   F8        1.0  0.47600  0.52400  0.45800  1.0000
  F   F9        1.0  0.74300  0.25700  0.46300  1.0000
  F   F10       1.0  0.20200  0.79800  0.53100  1.0000
  F   F11       1.0  0.21000  0.15300  0.67800  1.0000
  F   F12       1.0  0.84700  0.79000  0.67800  1.0000
  F   F13       1.0  0.35600  0.64400  0.72700  1.0000
  F   F14       1.0  0.50600  0.05720  0.77000  1.0000
  F   F15       1.0  0.94300  0.49400  0.77000  1.0000
  F   F16       1.0  0.04410  0.95600  0.92200  1.0000
  F   F17       1.0  0.52400  0.47600  0.95800  1.0000
  F   F18       1.0  0.25700  0.74300  0.96300  1.0000
  K   K1        1.0  0.40100  0.11500  0.05150  1.0000
  K   K2        1.0  0.88500  0.59900  0.05150  1.0000
  K   K3        1.0  0.42000  0.58000  0.20100  1.0000
  K   K4        1.0  0.34400  0.14700  0.40100  1.0000
  K   K5        1.0  0.85300  0.65600  0.40100  1.0000
  K   K6        1.0  0.11500  0.40100  0.55100  1.0000
  K   K7        1.0  0.59900  0.88500  0.55100  1.0000
  K   K8        1.0  0.58000  0.42000  0.70100  1.0000
  K   K9        1.0  0.14700  0.34400  0.90100  1.0000
  K   K10       1.0  0.65600  0.85300  0.90100  1.0000
  Th  Th1       1.0  0.83500  0.16500  0.25200  1.0000
  Th  Th2       1.0  0.16500  0.83500  0.75200  1.0000
