data_image0
_chemical_formula_structural       Ca2Cl4H16O8
_chemical_formula_sum              "Ca2 Cl4 H16 O8"
_cell_length_a       5.8976
_cell_length_b       7.06227
_cell_length_c       8.98771
_cell_angle_alpha    90
_cell_angle_beta     113.673
_cell_angle_gamma    90

_space_group_name_H-M_alt    "P 1"
_space_group_IT_number       1

loop_
  _space_group_symop_operation_xyz
  'x, y, z'

loop_
  _atom_site_type_symbol
  _atom_site_label
  _atom_site_symmetry_multiplicity
  _atom_site_fract_x
  _atom_site_fract_y
  _atom_site_fract_z
  _atom_site_occupancy
  Ca  Ca1       1.0  0.00000  0.00000  0.00000  1.0000
  Ca  Ca2       1.0  0.00000  0.50000  0.50000  1.0000
  Cl  Cl1       1.0  0.31800  0.29800  0.07160  1.0000
  Cl  Cl2       1.0  0.68200  0.79800  0.42800  1.0000
  Cl  Cl3       1.0  0.31800  0.20200  0.57200  1.0000
  Cl  Cl4       1.0  0.68200  0.70200  0.92800  1.0000
  H   H1        1.0  0.41900  0.74900  0.02580  1.0000
  H   H2        1.0  0.89300  0.56200  0.14500  1.0000
  H   H3        1.0  0.42200  0.77500  0.20000  1.0000
  H   H4        1.0  0.13300  0.44200  0.20900  1.0000
  H   H5        1.0  0.86700  0.94200  0.29100  1.0000
  H   H6        1.0  0.57800  0.27500  0.30000  1.0000
  H   H7        1.0  0.10700  0.06230  0.35500  1.0000
  H   H8        1.0  0.58100  0.24900  0.47400  1.0000
  H   H9        1.0  0.41900  0.75100  0.52600  1.0000
  H   H10       1.0  0.89300  0.93800  0.64500  1.0000
  H   H11       1.0  0.42200  0.72500  0.70000  1.0000
  H   H12       1.0  0.13300  0.05780  0.70900  1.0000
  H   H13       1.0  0.86700  0.55800  0.79100  1.0000
  H   H14       1.0  0.57800  0.22500  0.80000  1.0000
  H   H15       1.0  0.10700  0.43800  0.85500  1.0000
  H   H16       1.0  0.58100  0.25100  0.97400  1.0000
  O   O1        1.0  0.31300  0.78300  0.08340  1.0000
  O   O2        1.0  0.00952  0.49900  0.24400  1.0000
  O   O3        1.0  0.99000  0.99900  0.25600  1.0000
  O   O4        1.0  0.68700  0.28300  0.41700  1.0000
  O   O5        1.0  0.31300  0.71700  0.58300  1.0000
  O   O6        1.0  0.00952  0.00104  0.74400  1.0000
  O   O7        1.0  0.99000  0.50100  0.75600  1.0000
  O   O8        1.0  0.68700  0.21700  0.91700  1.0000
