data_image0
_chemical_formula_structural       Cr4O11Yb4
_chemical_formula_sum              "Cr4 O11 Yb4"
_cell_length_a       5.23334
_cell_length_b       5.41216
_cell_length_c       7.40606
_cell_angle_alpha    90
_cell_angle_beta     90
_cell_angle_gamma    89.8144

_space_group_name_H-M_alt    "P 1"
_space_group_IT_number       1

loop_
  _space_group_symop_operation_xyz
  'x, y, z'

loop_
  _atom_site_type_symbol
  _atom_site_label
  _atom_site_symmetry_multiplicity
  _atom_site_fract_x
  _atom_site_fract_y
  _atom_site_fract_z
  _atom_site_occupancy
  Cr  Cr1       1.0  0.50500  0.99800  0.00305  1.0000
  Cr  Cr2       1.0  0.50500  0.99800  0.49700  1.0000
  Cr  Cr3       1.0  0.99100  0.50000  0.51300  1.0000
  Cr  Cr4       1.0  0.99100  0.50000  0.98700  1.0000
  O   O1        1.0  0.71300  0.29100  0.05690  1.0000
  O   O2        1.0  0.79400  0.78700  0.05890  1.0000
  O   O3        1.0  0.40800  0.97300  0.25000  1.0000
  O   O4        1.0  0.79400  0.78700  0.44100  1.0000
  O   O5        1.0  0.71300  0.29100  0.44300  1.0000
  O   O6        1.0  0.21000  0.20900  0.53600  1.0000
  O   O7        1.0  0.29900  0.70300  0.53600  1.0000
  O   O8        1.0  0.59400  0.02740  0.75000  1.0000
  O   O9        1.0  0.89000  0.54400  0.75000  1.0000
  O   O10       1.0  0.29900  0.70300  0.96400  1.0000
  O   O11       1.0  0.21000  0.20900  0.96400  1.0000
  Yb  Yb1       1.0  0.98300  0.04840  0.25000  1.0000
  Yb  Yb2       1.0  0.51200  0.55600  0.25000  1.0000
  Yb  Yb3       1.0  0.47600  0.44400  0.75000  1.0000
  Yb  Yb4       1.0  0.02560  0.95300  0.75000  1.0000
