data_image0
_chemical_formula_structural       O11W4Yb4
_chemical_formula_sum              "O11 W4 Yb4"
_cell_length_a       5.38282
_cell_length_b       5.58012
_cell_length_c       7.47227
_cell_angle_alpha    90
_cell_angle_beta     90
_cell_angle_gamma    90.1824

_space_group_name_H-M_alt    "P 1"
_space_group_IT_number       1

loop_
  _space_group_symop_operation_xyz
  'x, y, z'

loop_
  _atom_site_type_symbol
  _atom_site_label
  _atom_site_symmetry_multiplicity
  _atom_site_fract_x
  _atom_site_fract_y
  _atom_site_fract_z
  _atom_site_occupancy
  O   O1        1.0  0.79000  0.79300  0.04490  1.0000
  O   O2        1.0  0.71000  0.28900  0.05560  1.0000
  O   O3        1.0  0.40700  0.97100  0.25000  1.0000
  O   O4        1.0  0.71000  0.28900  0.44400  1.0000
  O   O5        1.0  0.79000  0.79300  0.45500  1.0000
  O   O6        1.0  0.20100  0.21200  0.52200  1.0000
  O   O7        1.0  0.29600  0.70600  0.53200  1.0000
  O   O8        1.0  0.57700  0.03000  0.75000  1.0000
  O   O9        1.0  0.90700  0.52800  0.75000  1.0000
  O   O10       1.0  0.29600  0.70600  0.96800  1.0000
  O   O11       1.0  0.20100  0.21200  0.97800  1.0000
  W   W1        1.0  0.50200  0.00792  0.00232  1.0000
  W   W2        1.0  0.00397  0.50400  0.05550  1.0000
  W   W3        1.0  0.00397  0.50400  0.44500  1.0000
  W   W4        1.0  0.50200  0.00792  0.49800  1.0000
  Yb  Yb1       1.0  0.99500  0.03260  0.25000  1.0000
  Yb  Yb2       1.0  0.51200  0.56300  0.25000  1.0000
  Yb  Yb3       1.0  0.49400  0.46100  0.75000  1.0000
  Yb  Yb4       1.0  0.00646  0.91600  0.75000  1.0000
