data_image0
_chemical_formula_structural       O11Yb4Zr4
_chemical_formula_sum              "O11 Yb4 Zr4"
_cell_length_a       5.54269
_cell_length_b       5.76018
_cell_length_c       7.91231
_cell_angle_alpha    90
_cell_angle_beta     90
_cell_angle_gamma    89.973

_space_group_name_H-M_alt    "P 1"
_space_group_IT_number       1

loop_
  _space_group_symop_operation_xyz
  'x, y, z'

loop_
  _atom_site_type_symbol
  _atom_site_label
  _atom_site_symmetry_multiplicity
  _atom_site_fract_x
  _atom_site_fract_y
  _atom_site_fract_z
  _atom_site_occupancy
  O   O1        1.0  0.80300  0.80200  0.06020  1.0000
  O   O2        1.0  0.69600  0.30300  0.06260  1.0000
  O   O3        1.0  0.38200  0.95000  0.25000  1.0000
  O   O4        1.0  0.69600  0.30300  0.43700  1.0000
  O   O5        1.0  0.80300  0.80200  0.44000  1.0000
  O   O6        1.0  0.19000  0.19800  0.55900  1.0000
  O   O7        1.0  0.30500  0.69600  0.56000  1.0000
  O   O8        1.0  0.61500  0.05040  0.75000  1.0000
  O   O9        1.0  0.87700  0.55500  0.75000  1.0000
  O   O10       1.0  0.30500  0.69600  0.94000  1.0000
  O   O11       1.0  0.19000  0.19800  0.94100  1.0000
  Yb  Yb1       1.0  0.98600  0.04230  0.25000  1.0000
  Yb  Yb2       1.0  0.53100  0.56200  0.25000  1.0000
  Yb  Yb3       1.0  0.48500  0.44600  0.75000  1.0000
  Yb  Yb4       1.0  0.01360  0.94200  0.75000  1.0000
  Zr  Zr1       1.0  0.00084  0.49800  0.00073  1.0000
  Zr  Zr2       1.0  0.50100  0.00194  0.00115  1.0000
  Zr  Zr3       1.0  0.50100  0.00194  0.49900  1.0000
  Zr  Zr4       1.0  0.00084  0.49800  0.49900  1.0000
