data_image0
_chemical_formula_structural       Mn4O11Yb4
_chemical_formula_sum              "Mn4 O11 Yb4"
_cell_length_a       5.21738
_cell_length_b       5.34291
_cell_length_c       7.46305
_cell_angle_alpha    90
_cell_angle_beta     90
_cell_angle_gamma    90.2088

_space_group_name_H-M_alt    "P 1"
_space_group_IT_number       1

loop_
  _space_group_symop_operation_xyz
  'x, y, z'

loop_
  _atom_site_type_symbol
  _atom_site_label
  _atom_site_symmetry_multiplicity
  _atom_site_fract_x
  _atom_site_fract_y
  _atom_site_fract_z
  _atom_site_occupancy
  Mn  Mn1       1.0  0.50400  0.00019  0.00356  1.0000
  Mn  Mn2       1.0  0.50400  0.00019  0.49600  1.0000
  Mn  Mn3       1.0  0.99300  0.50100  0.50900  1.0000
  Mn  Mn4       1.0  0.99300  0.50100  0.99100  1.0000
  O   O1        1.0  0.79800  0.78500  0.05630  1.0000
  O   O2        1.0  0.71600  0.29200  0.05700  1.0000
  O   O3        1.0  0.41400  0.98000  0.25000  1.0000
  O   O4        1.0  0.71600  0.29200  0.44300  1.0000
  O   O5        1.0  0.79800  0.78500  0.44400  1.0000
  O   O6        1.0  0.20500  0.21200  0.53100  1.0000
  O   O7        1.0  0.29500  0.70100  0.53100  1.0000
  O   O8        1.0  0.58300  0.02240  0.75000  1.0000
  O   O9        1.0  0.90500  0.52800  0.75000  1.0000
  O   O10       1.0  0.29500  0.70100  0.96900  1.0000
  O   O11       1.0  0.20500  0.21200  0.96900  1.0000
  Yb  Yb1       1.0  0.98600  0.04900  0.25000  1.0000
  Yb  Yb2       1.0  0.51200  0.55500  0.25000  1.0000
  Yb  Yb3       1.0  0.47700  0.44900  0.75000  1.0000
  Yb  Yb4       1.0  0.01770  0.95600  0.75000  1.0000
