data_image0
_chemical_formula_structural       Ce6N6O12Si6
_chemical_formula_sum              "Ce6 N6 O12 Si6"
_cell_length_a       7.08536
_cell_length_b       7.08564
_cell_length_c       9.7283
_cell_angle_alpha    90
_cell_angle_beta     90
_cell_angle_gamma    119.999

_space_group_name_H-M_alt    "P 1"
_space_group_IT_number       1

loop_
  _space_group_symop_operation_xyz
  'x, y, z'

loop_
  _atom_site_type_symbol
  _atom_site_label
  _atom_site_symmetry_multiplicity
  _atom_site_fract_x
  _atom_site_fract_y
  _atom_site_fract_z
  _atom_site_occupancy
  Ce  Ce1       1.0  0.00000  0.00000  0.00000  1.0000
  Ce  Ce2       1.0  0.66700  0.33300  0.00000  1.0000
  Ce  Ce3       1.0  0.33300  0.66700  0.00000  1.0000
  Ce  Ce4       1.0  0.00000  0.00000  0.50000  1.0000
  Ce  Ce5       1.0  0.66700  0.33300  0.50000  1.0000
  Ce  Ce6       1.0  0.33300  0.66700  0.50000  1.0000
  N   N1        1.0  0.10400  0.43800  0.25000  1.0000
  N   N2        1.0  0.56200  0.66700  0.25000  1.0000
  N   N3        1.0  0.33300  0.89600  0.25000  1.0000
  N   N4        1.0  0.33300  0.43800  0.75000  1.0000
  N   N5        1.0  0.10400  0.66700  0.75000  1.0000
  N   N6        1.0  0.56200  0.89600  0.75000  1.0000
  O   O1        1.0  0.33300  0.29900  0.10300  1.0000
  O   O2        1.0  0.70100  0.03470  0.10300  1.0000
  O   O3        1.0  0.96500  0.66700  0.10300  1.0000
  O   O4        1.0  0.70100  0.03470  0.39700  1.0000
  O   O5        1.0  0.96500  0.66700  0.39700  1.0000
  O   O6        1.0  0.33300  0.29900  0.39700  1.0000
  O   O7        1.0  0.96500  0.29900  0.60300  1.0000
  O   O8        1.0  0.33300  0.03470  0.60300  1.0000
  O   O9        1.0  0.70100  0.66700  0.60300  1.0000
  O   O10       1.0  0.70100  0.66700  0.89700  1.0000
  O   O11       1.0  0.33300  0.03470  0.89700  1.0000
  O   O12       1.0  0.96500  0.29900  0.89700  1.0000
  Si  Si1       1.0  0.33300  0.41800  0.25000  1.0000
  Si  Si2       1.0  0.08490  0.66700  0.25000  1.0000
  Si  Si3       1.0  0.58200  0.91500  0.25000  1.0000
  Si  Si4       1.0  0.08500  0.41800  0.75000  1.0000
  Si  Si5       1.0  0.58200  0.66700  0.75000  1.0000
  Si  Si6       1.0  0.33300  0.91500  0.75000  1.0000
