data_image0
_chemical_formula_structural       Al16Co7Ti6
_chemical_formula_sum              "Al16 Co7 Ti6"
_cell_length_a       8.29957
_cell_length_b       8.29957
_cell_length_c       8.29957
_cell_angle_alpha    120
_cell_angle_beta     90
_cell_angle_gamma    120

_space_group_name_H-M_alt    "P 1"
_space_group_IT_number       1

loop_
  _space_group_symop_operation_xyz
  'x, y, z'

loop_
  _atom_site_type_symbol
  _atom_site_label
  _atom_site_symmetry_multiplicity
  _atom_site_fract_x
  _atom_site_fract_y
  _atom_site_fract_z
  _atom_site_occupancy
  Al  Al1       1.0  0.34000  0.67900  0.01910  1.0000
  Al  Al2       1.0  0.35600  0.23700  0.11900  1.0000
  Al  Al3       1.0  0.88100  0.23700  0.11900  1.0000
  Al  Al4       1.0  0.88100  0.76300  0.11900  1.0000
  Al  Al5       1.0  0.66000  0.32100  0.34000  1.0000
  Al  Al6       1.0  0.01910  0.67900  0.34000  1.0000
  Al  Al7       1.0  0.66000  0.67900  0.34000  1.0000
  Al  Al8       1.0  0.11900  0.23700  0.35600  1.0000
  Al  Al9       1.0  0.88100  0.76300  0.64400  1.0000
  Al  Al10      1.0  0.98100  0.32100  0.66000  1.0000
  Al  Al11      1.0  0.34000  0.32100  0.66000  1.0000
  Al  Al12      1.0  0.34000  0.67900  0.66000  1.0000
  Al  Al13      1.0  0.11900  0.23700  0.88100  1.0000
  Al  Al14      1.0  0.11900  0.76300  0.88100  1.0000
  Al  Al15      1.0  0.64400  0.76300  0.88100  1.0000
  Al  Al16      1.0  0.66000  0.32100  0.98100  1.0000
  Co  Co1       1.0  0.00000  0.00000  0.00000  1.0000
  Co  Co2       1.0  0.50000  0.00000  0.00000  1.0000
  Co  Co3       1.0  0.00000  0.50000  0.00000  1.0000
  Co  Co4       1.0  0.50000  0.50000  0.00000  1.0000
  Co  Co5       1.0  0.00000  0.00000  0.50000  1.0000
  Co  Co6       1.0  0.00000  0.50000  0.50000  1.0000
  Co  Co7       1.0  0.50000  0.50000  0.50000  1.0000
  Ti  Ti1       1.0  0.31300  0.00000  0.31300  1.0000
  Ti  Ti2       1.0  0.31300  0.62700  0.31300  1.0000
  Ti  Ti3       1.0  0.68700  0.00000  0.31300  1.0000
  Ti  Ti4       1.0  0.31300  0.00000  0.68700  1.0000
  Ti  Ti5       1.0  0.68700  0.37300  0.68700  1.0000
  Ti  Ti6       1.0  0.68700  0.00000  0.68700  1.0000
