data_image0
_chemical_formula_structural       Cl14Nb6Se10
_chemical_formula_sum              "Cl14 Nb6 Se10"
_cell_length_a       7.86788
_cell_length_b       12.769
_cell_length_c       8.30676
_cell_angle_alpha    90
_cell_angle_beta     107.441
_cell_angle_gamma    90

_space_group_name_H-M_alt    "P 1"
_space_group_IT_number       1

loop_
  _space_group_symop_operation_xyz
  'x, y, z'

loop_
  _atom_site_type_symbol
  _atom_site_label
  _atom_site_symmetry_multiplicity
  _atom_site_fract_x
  _atom_site_fract_y
  _atom_site_fract_z
  _atom_site_occupancy
  Cl  Cl1       1.0  0.28600  0.25000  0.12600  1.0000
  Cl  Cl2       1.0  0.83100  0.25000  0.14600  1.0000
  Cl  Cl3       1.0  0.05420  0.75000  0.18000  1.0000
  Cl  Cl4       1.0  0.15000  0.11700  0.39600  1.0000
  Cl  Cl5       1.0  0.15000  0.38300  0.39600  1.0000
  Cl  Cl6       1.0  0.60100  0.11800  0.45900  1.0000
  Cl  Cl7       1.0  0.60100  0.38200  0.45900  1.0000
  Cl  Cl8       1.0  0.39900  0.61800  0.54100  1.0000
  Cl  Cl9       1.0  0.39900  0.88200  0.54100  1.0000
  Cl  Cl10      1.0  0.85000  0.61700  0.60400  1.0000
  Cl  Cl11      1.0  0.85000  0.88300  0.60400  1.0000
  Cl  Cl12      1.0  0.94600  0.25000  0.82000  1.0000
  Cl  Cl13      1.0  0.16900  0.75000  0.85400  1.0000
  Cl  Cl14      1.0  0.71400  0.75000  0.87400  1.0000
  Nb  Nb1       1.0  0.02420  0.11000  0.05970  1.0000
  Nb  Nb2       1.0  0.02420  0.39000  0.05970  1.0000
  Nb  Nb3       1.0  0.40300  0.25000  0.47800  1.0000
  Nb  Nb4       1.0  0.59700  0.75000  0.52200  1.0000
  Nb  Nb5       1.0  0.97600  0.61000  0.94000  1.0000
  Nb  Nb6       1.0  0.97600  0.89000  0.94000  1.0000
  Se  Se1       1.0  0.28200  0.53100  0.12500  1.0000
  Se  Se2       1.0  0.28200  0.96900  0.12500  1.0000
  Se  Se3       1.0  0.81900  0.52600  0.15200  1.0000
  Se  Se4       1.0  0.81900  0.97400  0.15200  1.0000
  Se  Se5       1.0  0.57500  0.75000  0.24000  1.0000
  Se  Se6       1.0  0.42500  0.25000  0.76000  1.0000
  Se  Se7       1.0  0.18100  0.02580  0.84800  1.0000
  Se  Se8       1.0  0.18100  0.47400  0.84800  1.0000
  Se  Se9       1.0  0.71800  0.03080  0.87500  1.0000
  Se  Se10      1.0  0.71800  0.46900  0.87500  1.0000
