data_image0
_chemical_formula_structural       O11Rh4Yb4
_chemical_formula_sum              "O11 Rh4 Yb4"
_cell_length_a       5.16247
_cell_length_b       5.65243
_cell_length_c       7.52466
_cell_angle_alpha    90.4607
_cell_angle_beta     89.182
_cell_angle_gamma    90.1576

_space_group_name_H-M_alt    "P 1"
_space_group_IT_number       1

loop_
  _space_group_symop_operation_xyz
  'x, y, z'

loop_
  _atom_site_type_symbol
  _atom_site_label
  _atom_site_symmetry_multiplicity
  _atom_site_fract_x
  _atom_site_fract_y
  _atom_site_fract_z
  _atom_site_occupancy
  O   O1        1.0  0.82400  0.81200  0.05190  1.0000
  O   O2        1.0  0.10900  0.45900  0.24900  1.0000
  O   O3        1.0  0.39500  0.96600  0.25000  1.0000
  O   O4        1.0  0.67900  0.30700  0.43200  1.0000
  O   O5        1.0  0.81700  0.80600  0.44400  1.0000
  O   O6        1.0  0.31400  0.69500  0.55400  1.0000
  O   O7        1.0  0.17400  0.19100  0.55500  1.0000
  O   O8        1.0  0.61900  0.04990  0.75100  1.0000
  O   O9        1.0  0.87400  0.53300  0.75300  1.0000
  O   O10       1.0  0.18500  0.19400  0.94800  1.0000
  O   O11       1.0  0.33800  0.67900  0.95900  1.0000
  Rh  Rh1       1.0  0.99200  0.49800  0.50000  1.0000
  Rh  Rh2       1.0  0.50100  0.00319  0.50100  1.0000
  Rh  Rh3       1.0  0.50700  0.00067  0.99800  1.0000
  Rh  Rh4       1.0  0.99800  0.50000  0.99900  1.0000
  Yb  Yb1       1.0  0.52000  0.58800  0.25200  1.0000
  Yb  Yb2       1.0  0.98900  0.07030  0.25700  1.0000
  Yb  Yb3       1.0  0.45600  0.42400  0.73600  1.0000
  Yb  Yb4       1.0  0.02810  0.91800  0.75300  1.0000
