data_image0
_chemical_formula_structural       Na4Np4O11
_chemical_formula_sum              "Na4 Np4 O11"
_cell_length_a       5.73609
_cell_length_b       5.9787
_cell_length_c       8.26947
_cell_angle_alpha    90.9956
_cell_angle_beta     90.1751
_cell_angle_gamma    89.7483

_space_group_name_H-M_alt    "P 1"
_space_group_IT_number       1

loop_
  _space_group_symop_operation_xyz
  'x, y, z'

loop_
  _atom_site_type_symbol
  _atom_site_label
  _atom_site_symmetry_multiplicity
  _atom_site_fract_x
  _atom_site_fract_y
  _atom_site_fract_z
  _atom_site_occupancy
  Na  Na1       1.0  0.00440  0.03000  0.26400  1.0000
  Na  Na2       1.0  0.48900  0.56900  0.27600  1.0000
  Na  Na3       1.0  0.48400  0.45300  0.73000  1.0000
  Na  Na4       1.0  0.00425  0.95800  0.74200  1.0000
  Np  Np1       1.0  0.99500  0.50000  0.49800  1.0000
  Np  Np2       1.0  0.50100  0.00604  0.50300  1.0000
  Np  Np3       1.0  0.00758  0.50100  0.99500  1.0000
  Np  Np4       1.0  0.49000  0.97700  0.99500  1.0000
  O   O1        1.0  0.81800  0.81000  0.06110  1.0000
  O   O2        1.0  0.10300  0.45200  0.25400  1.0000
  O   O3        1.0  0.39700  0.96000  0.25500  1.0000
  O   O4        1.0  0.69800  0.31200  0.42900  1.0000
  O   O5        1.0  0.79500  0.81200  0.44800  1.0000
  O   O6        1.0  0.29400  0.69400  0.55200  1.0000
  O   O7        1.0  0.20200  0.19200  0.55700  1.0000
  O   O8        1.0  0.88400  0.54400  0.74300  1.0000
  O   O9        1.0  0.61600  0.06770  0.75100  1.0000
  O   O10       1.0  0.33400  0.66400  0.94300  1.0000
  O   O11       1.0  0.18200  0.18300  0.94500  1.0000
