data_image0
_chemical_formula_structural       Cu23Tb6
_chemical_formula_sum              "Cu23 Tb6"
_cell_length_a       8.57017
_cell_length_b       8.57017
_cell_length_c       8.57017
_cell_angle_alpha    120
_cell_angle_beta     90
_cell_angle_gamma    120

_space_group_name_H-M_alt    "P 1"
_space_group_IT_number       1

loop_
  _space_group_symop_operation_xyz
  'x, y, z'

loop_
  _atom_site_type_symbol
  _atom_site_label
  _atom_site_symmetry_multiplicity
  _atom_site_fract_x
  _atom_site_fract_y
  _atom_site_fract_z
  _atom_site_occupancy
  Cu  Cu1       1.0  0.00000  0.00000  0.00000  1.0000
  Cu  Cu2       1.0  0.50000  0.00000  0.00000  1.0000
  Cu  Cu3       1.0  0.00000  0.50000  0.00000  1.0000
  Cu  Cu4       1.0  0.50000  0.50000  0.00000  1.0000
  Cu  Cu5       1.0  0.67400  0.34800  0.02190  1.0000
  Cu  Cu6       1.0  0.87800  0.75600  0.12200  1.0000
  Cu  Cu7       1.0  0.36600  0.24400  0.12200  1.0000
  Cu  Cu8       1.0  0.87800  0.24400  0.12200  1.0000
  Cu  Cu9       1.0  0.67400  0.34800  0.32600  1.0000
  Cu  Cu10      1.0  0.67400  0.65200  0.32600  1.0000
  Cu  Cu11      1.0  0.97800  0.65200  0.32600  1.0000
  Cu  Cu12      1.0  0.12200  0.24400  0.36600  1.0000
  Cu  Cu13      1.0  0.00000  0.00000  0.50000  1.0000
  Cu  Cu14      1.0  0.00000  0.50000  0.50000  1.0000
  Cu  Cu15      1.0  0.50000  0.50000  0.50000  1.0000
  Cu  Cu16      1.0  0.87800  0.75600  0.63400  1.0000
  Cu  Cu17      1.0  0.02190  0.34800  0.67400  1.0000
  Cu  Cu18      1.0  0.32600  0.34800  0.67400  1.0000
  Cu  Cu19      1.0  0.32600  0.65200  0.67400  1.0000
  Cu  Cu20      1.0  0.12200  0.24400  0.87800  1.0000
  Cu  Cu21      1.0  0.12200  0.75600  0.87800  1.0000
  Cu  Cu22      1.0  0.63400  0.75600  0.87800  1.0000
  Cu  Cu23      1.0  0.32600  0.65200  0.97800  1.0000
  Tb  Tb1       1.0  0.71300  0.00000  0.28700  1.0000
  Tb  Tb2       1.0  0.28700  0.00000  0.28700  1.0000
  Tb  Tb3       1.0  0.28700  0.57500  0.28700  1.0000
  Tb  Tb4       1.0  0.28700  0.00000  0.71300  1.0000
  Tb  Tb5       1.0  0.71300  0.00000  0.71300  1.0000
  Tb  Tb6       1.0  0.71300  0.42500  0.71300  1.0000
