data_image0
_chemical_formula_structural       Ga16Rh7Zr6
_chemical_formula_sum              "Ga16 Rh7 Zr6"
_cell_length_a       8.78619
_cell_length_b       8.78619
_cell_length_c       8.78619
_cell_angle_alpha    120
_cell_angle_beta     90
_cell_angle_gamma    120

_space_group_name_H-M_alt    "P 1"
_space_group_IT_number       1

loop_
  _space_group_symop_operation_xyz
  'x, y, z'

loop_
  _atom_site_type_symbol
  _atom_site_label
  _atom_site_symmetry_multiplicity
  _atom_site_fract_x
  _atom_site_fract_y
  _atom_site_fract_z
  _atom_site_occupancy
  Ga  Ga1       1.0  0.34300  0.68600  0.02840  1.0000
  Ga  Ga2       1.0  0.36700  0.24400  0.12200  1.0000
  Ga  Ga3       1.0  0.87800  0.24400  0.12200  1.0000
  Ga  Ga4       1.0  0.87800  0.75600  0.12200  1.0000
  Ga  Ga5       1.0  0.65700  0.31400  0.34300  1.0000
  Ga  Ga6       1.0  0.02840  0.68600  0.34300  1.0000
  Ga  Ga7       1.0  0.65700  0.68600  0.34300  1.0000
  Ga  Ga8       1.0  0.12200  0.24400  0.36700  1.0000
  Ga  Ga9       1.0  0.87800  0.75600  0.63300  1.0000
  Ga  Ga10      1.0  0.34300  0.31400  0.65700  1.0000
  Ga  Ga11      1.0  0.97200  0.31400  0.65700  1.0000
  Ga  Ga12      1.0  0.34300  0.68600  0.65700  1.0000
  Ga  Ga13      1.0  0.12200  0.24400  0.87800  1.0000
  Ga  Ga14      1.0  0.12200  0.75600  0.87800  1.0000
  Ga  Ga15      1.0  0.63300  0.75600  0.87800  1.0000
  Ga  Ga16      1.0  0.65700  0.31400  0.97200  1.0000
  Rh  Rh1       1.0  0.00000  0.00000  0.00000  1.0000
  Rh  Rh2       1.0  0.50000  0.00000  0.00000  1.0000
  Rh  Rh3       1.0  0.00000  0.50000  0.00000  1.0000
  Rh  Rh4       1.0  0.50000  0.50000  0.00000  1.0000
  Rh  Rh5       1.0  0.00000  0.00000  0.50000  1.0000
  Rh  Rh6       1.0  0.00000  0.50000  0.50000  1.0000
  Rh  Rh7       1.0  0.50000  0.50000  0.50000  1.0000
  Zr  Zr1       1.0  0.30600  0.00000  0.30600  1.0000
  Zr  Zr2       1.0  0.30600  0.61300  0.30600  1.0000
  Zr  Zr3       1.0  0.69400  0.00000  0.30600  1.0000
  Zr  Zr4       1.0  0.69400  1.00000  0.69400  1.0000
  Zr  Zr5       1.0  0.30600  1.00000  0.69400  1.0000
  Zr  Zr6       1.0  0.69400  0.38700  0.69400  1.0000
