data_image0
_chemical_formula_structural       Bi4In8S18
_chemical_formula_sum              "Bi4 In8 S18"
_cell_length_a       16.476
_cell_length_b       3.96878
_cell_length_c       11.2637
_cell_angle_alpha    90
_cell_angle_beta     94.3337
_cell_angle_gamma    90

_space_group_name_H-M_alt    "P 1"
_space_group_IT_number       1

loop_
  _space_group_symop_operation_xyz
  'x, y, z'

loop_
  _atom_site_type_symbol
  _atom_site_label
  _atom_site_symmetry_multiplicity
  _atom_site_fract_x
  _atom_site_fract_y
  _atom_site_fract_z
  _atom_site_occupancy
  Bi  Bi1       1.0  0.09880  0.25000  0.10400  1.0000
  Bi  Bi2       1.0  0.42500  0.25000  0.13300  1.0000
  Bi  Bi3       1.0  0.57500  0.75000  0.86700  1.0000
  Bi  Bi4       1.0  0.90100  0.75000  0.89600  1.0000
  In  In1       1.0  0.68300  0.25000  0.14100  1.0000
  In  In2       1.0  0.92000  0.75000  0.26600  1.0000
  In  In3       1.0  0.21200  0.75000  0.48900  1.0000
  In  In4       1.0  0.59500  0.75000  0.49300  1.0000
  In  In5       1.0  0.40500  0.25000  0.50700  1.0000
  In  In6       1.0  0.78800  0.25000  0.51100  1.0000
  In  In7       1.0  0.08020  0.25000  0.73400  1.0000
  In  In8       1.0  0.31700  0.75000  0.85900  1.0000
  S   S1        1.0  0.94100  0.25000  0.08720  1.0000
  S   S2        1.0  0.31500  0.75000  0.09390  1.0000
  S   S3        1.0  0.56600  0.75000  0.10200  1.0000
  S   S4        1.0  0.78200  0.75000  0.14600  1.0000
  S   S5        1.0  0.07850  0.75000  0.26700  1.0000
  S   S6        1.0  0.65900  0.25000  0.36700  1.0000
  S   S7        1.0  0.45500  0.75000  0.37300  1.0000
  S   S8        1.0  0.25800  0.25000  0.37800  1.0000
  S   S9        1.0  0.91700  0.25000  0.41300  1.0000
  S   S10       1.0  0.08300  0.75000  0.58700  1.0000
  S   S11       1.0  0.74200  0.75000  0.62200  1.0000
  S   S12       1.0  0.54500  0.25000  0.62700  1.0000
  S   S13       1.0  0.34100  0.75000  0.63300  1.0000
  S   S14       1.0  0.92100  0.25000  0.73300  1.0000
  S   S15       1.0  0.21800  0.25000  0.85400  1.0000
  S   S16       1.0  0.43400  0.25000  0.89800  1.0000
  S   S17       1.0  0.68500  0.25000  0.90600  1.0000
  S   S18       1.0  0.05930  0.75000  0.91300  1.0000
