data_image0
_chemical_formula_structural       O11Pd4Yb4
_chemical_formula_sum              "O11 Pd4 Yb4"
_cell_length_a       5.21311
_cell_length_b       5.63736
_cell_length_c       7.55777
_cell_angle_alpha    90
_cell_angle_beta     90
_cell_angle_gamma    90.2779

_space_group_name_H-M_alt    "P 1"
_space_group_IT_number       1

loop_
  _space_group_symop_operation_xyz
  'x, y, z'

loop_
  _atom_site_type_symbol
  _atom_site_label
  _atom_site_symmetry_multiplicity
  _atom_site_fract_x
  _atom_site_fract_y
  _atom_site_fract_z
  _atom_site_occupancy
  O   O1        1.0  0.68200  0.31000  0.06670  1.0000
  O   O2        1.0  0.81400  0.80300  0.06890  1.0000
  O   O3        1.0  0.37000  0.96400  0.25000  1.0000
  O   O4        1.0  0.81400  0.80300  0.43100  1.0000
  O   O5        1.0  0.68200  0.31000  0.43300  1.0000
  O   O6        1.0  0.17800  0.19100  0.54700  1.0000
  O   O7        1.0  0.32200  0.68900  0.54800  1.0000
  O   O8        1.0  0.62500  0.04400  0.75000  1.0000
  O   O9        1.0  0.89800  0.53000  0.75000  1.0000
  O   O10       1.0  0.32200  0.68900  0.95200  1.0000
  O   O11       1.0  0.17800  0.19100  0.95300  1.0000
  Pd  Pd1       1.0  0.50100  0.00171  0.00152  1.0000
  Pd  Pd2       1.0  0.00000  0.50200  0.01060  1.0000
  Pd  Pd3       1.0  0.00000  0.50200  0.48900  1.0000
  Pd  Pd4       1.0  0.50100  0.00171  0.49800  1.0000
  Yb  Yb1       1.0  0.96400  0.08150  0.25000  1.0000
  Yb  Yb2       1.0  0.52100  0.58600  0.25000  1.0000
  Yb  Yb3       1.0  0.47200  0.42500  0.75000  1.0000
  Yb  Yb4       1.0  0.03260  0.91800  0.75000  1.0000
