data_image0
_chemical_formula_structural       Fe23Yb6
_chemical_formula_sum              "Fe23 Yb6"
_cell_length_a       8.415
_cell_length_b       8.415
_cell_length_c       8.415
_cell_angle_alpha    120
_cell_angle_beta     90
_cell_angle_gamma    120

_space_group_name_H-M_alt    "P 1"
_space_group_IT_number       1

loop_
  _space_group_symop_operation_xyz
  'x, y, z'

loop_
  _atom_site_type_symbol
  _atom_site_label
  _atom_site_symmetry_multiplicity
  _atom_site_fract_x
  _atom_site_fract_y
  _atom_site_fract_z
  _atom_site_occupancy
  Fe  Fe1       1.0  0.00000  0.00000  0.00000  1.0000
  Fe  Fe2       1.0  0.50000  0.00000  0.00000  1.0000
  Fe  Fe3       1.0  0.00000  0.50000  0.00000  1.0000
  Fe  Fe4       1.0  0.50000  0.50000  0.00000  1.0000
  Fe  Fe5       1.0  0.67600  0.35300  0.02890  1.0000
  Fe  Fe6       1.0  0.36000  0.24000  0.12000  1.0000
  Fe  Fe7       1.0  0.88000  0.24000  0.12000  1.0000
  Fe  Fe8       1.0  0.88000  0.76000  0.12000  1.0000
  Fe  Fe9       1.0  0.67600  0.35300  0.32400  1.0000
  Fe  Fe10      1.0  0.67600  0.64700  0.32400  1.0000
  Fe  Fe11      1.0  0.97100  0.64700  0.32400  1.0000
  Fe  Fe12      1.0  0.12000  0.24000  0.36000  1.0000
  Fe  Fe13      1.0  0.00000  0.00000  0.50000  1.0000
  Fe  Fe14      1.0  0.00000  0.50000  0.50000  1.0000
  Fe  Fe15      1.0  0.50000  0.50000  0.50000  1.0000
  Fe  Fe16      1.0  0.88000  0.76000  0.64000  1.0000
  Fe  Fe17      1.0  0.02890  0.35300  0.67600  1.0000
  Fe  Fe18      1.0  0.32400  0.35300  0.67600  1.0000
  Fe  Fe19      1.0  0.32400  0.64700  0.67600  1.0000
  Fe  Fe20      1.0  0.12000  0.24000  0.88000  1.0000
  Fe  Fe21      1.0  0.12000  0.76000  0.88000  1.0000
  Fe  Fe22      1.0  0.64000  0.76000  0.88000  1.0000
  Fe  Fe23      1.0  0.32400  0.64700  0.97100  1.0000
  Yb  Yb1       1.0  0.29100  0.00000  0.29100  1.0000
  Yb  Yb2       1.0  0.29100  0.58100  0.29100  1.0000
  Yb  Yb3       1.0  0.70900  0.00000  0.29100  1.0000
  Yb  Yb4       1.0  0.70900  0.00000  0.70900  1.0000
  Yb  Yb5       1.0  0.29100  0.00000  0.70900  1.0000
  Yb  Yb6       1.0  0.70900  0.41900  0.70900  1.0000
