data_image0
_chemical_formula_structural       Co4O11Yb4
_chemical_formula_sum              "Co4 O11 Yb4"
_cell_length_a       5.14105
_cell_length_b       5.32472
_cell_length_c       7.34801
_cell_angle_alpha    90
_cell_angle_beta     90
_cell_angle_gamma    90.9338

_space_group_name_H-M_alt    "P 1"
_space_group_IT_number       1

loop_
  _space_group_symop_operation_xyz
  'x, y, z'

loop_
  _atom_site_type_symbol
  _atom_site_label
  _atom_site_symmetry_multiplicity
  _atom_site_fract_x
  _atom_site_fract_y
  _atom_site_fract_z
  _atom_site_occupancy
  Co  Co1       1.0  0.50500  0.99800  0.00459  1.0000
  Co  Co2       1.0  0.50500  0.99800  0.49500  1.0000
  Co  Co3       1.0  0.99400  0.49900  0.51000  1.0000
  Co  Co4       1.0  0.99400  0.49900  0.99000  1.0000
  O   O1        1.0  0.79200  0.79000  0.05300  1.0000
  O   O2        1.0  0.72300  0.29400  0.05480  1.0000
  O   O3        1.0  0.41600  0.97800  0.25000  1.0000
  O   O4        1.0  0.72300  0.29400  0.44500  1.0000
  O   O5        1.0  0.79200  0.79000  0.44700  1.0000
  O   O6        1.0  0.28800  0.70100  0.52500  1.0000
  O   O7        1.0  0.21400  0.20800  0.53200  1.0000
  O   O8        1.0  0.58400  0.02270  0.75000  1.0000
  O   O9        1.0  0.89800  0.53700  0.75000  1.0000
  O   O10       1.0  0.21400  0.20800  0.96800  1.0000
  O   O11       1.0  0.28800  0.70100  0.97500  1.0000
  Yb  Yb1       1.0  0.98800  0.05070  0.25000  1.0000
  Yb  Yb2       1.0  0.50900  0.55500  0.25000  1.0000
  Yb  Yb3       1.0  0.47500  0.44500  0.75000  1.0000
  Yb  Yb4       1.0  0.01850  0.95300  0.75000  1.0000
