data_image0
_chemical_formula_structural       O11Sr4U4
_chemical_formula_sum              "O11 Sr4 U4"
_cell_length_a       6.0443
_cell_length_b       6.21812
_cell_length_c       8.72339
_cell_angle_alpha    90
_cell_angle_beta     90
_cell_angle_gamma    89.9071

_space_group_name_H-M_alt    "P 1"
_space_group_IT_number       1

loop_
  _space_group_symop_operation_xyz
  'x, y, z'

loop_
  _atom_site_type_symbol
  _atom_site_label
  _atom_site_symmetry_multiplicity
  _atom_site_fract_x
  _atom_site_fract_y
  _atom_site_fract_z
  _atom_site_occupancy
  O   O1        1.0  0.80100  0.80200  0.05500  1.0000
  O   O2        1.0  0.70100  0.30400  0.05760  1.0000
  O   O3        1.0  0.39600  0.95200  0.25000  1.0000
  O   O4        1.0  0.70100  0.30400  0.44200  1.0000
  O   O5        1.0  0.80100  0.80200  0.44500  1.0000
  O   O6        1.0  0.19600  0.19900  0.55800  1.0000
  O   O7        1.0  0.29700  0.69900  0.56200  1.0000
  O   O8        1.0  0.60900  0.04830  0.75000  1.0000
  O   O9        1.0  0.88300  0.55400  0.75000  1.0000
  O   O10       1.0  0.29700  0.69900  0.93800  1.0000
  O   O11       1.0  0.19600  0.19900  0.94200  1.0000
  Sr  Sr1       1.0  0.99300  0.02950  0.25000  1.0000
  Sr  Sr2       1.0  0.52400  0.54700  0.25000  1.0000
  Sr  Sr3       1.0  0.48700  0.45600  0.75000  1.0000
  Sr  Sr4       1.0  0.01060  0.95400  0.75000  1.0000
  U   U1        1.0  0.49900  0.00117  0.50000  1.0000
  U   U2        1.0  0.99800  0.49900  0.50400  1.0000
  U   U3        1.0  0.99800  0.49900  0.99600  1.0000
  U   U4        1.0  0.49900  0.00117  0.00000  1.0000
