data_image0
_chemical_formula_structural       O11Ta4Yb4
_chemical_formula_sum              "O11 Ta4 Yb4"
_cell_length_a       5.45625
_cell_length_b       5.62554
_cell_length_c       7.55735
_cell_angle_alpha    90
_cell_angle_beta     90
_cell_angle_gamma    90.0703

_space_group_name_H-M_alt    "P 1"
_space_group_IT_number       1

loop_
  _space_group_symop_operation_xyz
  'x, y, z'

loop_
  _atom_site_type_symbol
  _atom_site_label
  _atom_site_symmetry_multiplicity
  _atom_site_fract_x
  _atom_site_fract_y
  _atom_site_fract_z
  _atom_site_occupancy
  O   O1        1.0  0.79400  0.80000  0.04140  1.0000
  O   O2        1.0  0.70100  0.29500  0.05190  1.0000
  O   O3        1.0  0.38500  0.95300  0.25000  1.0000
  O   O4        1.0  0.70100  0.29500  0.44800  1.0000
  O   O5        1.0  0.79400  0.80000  0.45900  1.0000
  O   O6        1.0  0.19500  0.20100  0.53400  1.0000
  O   O7        1.0  0.30400  0.70300  0.54000  1.0000
  O   O8        1.0  0.58400  0.03620  0.75000  1.0000
  O   O9        1.0  0.91400  0.53000  0.75000  1.0000
  O   O10       1.0  0.30400  0.70300  0.96000  1.0000
  O   O11       1.0  0.19500  0.20100  0.96600  1.0000
  Ta  Ta1       1.0  0.50100  0.00834  0.00351  1.0000
  Ta  Ta2       1.0  0.00620  0.50400  0.03580  1.0000
  Ta  Ta3       1.0  0.00620  0.50400  0.46400  1.0000
  Ta  Ta4       1.0  0.50100  0.00834  0.49600  1.0000
  Yb  Yb1       1.0  0.99300  0.03620  0.25000  1.0000
  Yb  Yb2       1.0  0.51700  0.56000  0.25000  1.0000
  Yb  Yb3       1.0  0.50400  0.46200  0.75000  1.0000
  Yb  Yb4       1.0  0.00702  0.92900  0.75000  1.0000
