data_image0
_chemical_formula_structural       C8Hg3K2N8O8
_chemical_formula_sum              "C8 Hg3 K2 N8 O8"
_cell_length_a       10.6644
_cell_length_b       10.471
_cell_length_c       3.87745
_cell_angle_alpha    84.9151
_cell_angle_beta     84.655
_cell_angle_gamma    91.9644

_space_group_name_H-M_alt    "P 1"
_space_group_IT_number       1

loop_
  _space_group_symop_operation_xyz
  'x, y, z'

loop_
  _atom_site_type_symbol
  _atom_site_label
  _atom_site_symmetry_multiplicity
  _atom_site_fract_x
  _atom_site_fract_y
  _atom_site_fract_z
  _atom_site_occupancy
  C   C1        1.0  0.80100  0.77000  0.21600  1.0000
  C   C2        1.0  0.32300  0.84400  0.21800  1.0000
  C   C3        1.0  0.52000  0.36600  0.29800  1.0000
  C   C4        1.0  0.95100  0.25300  0.30000  1.0000
  C   C5        1.0  0.04890  0.74700  0.70000  1.0000
  C   C6        1.0  0.48000  0.63400  0.70200  1.0000
  C   C7        1.0  0.67700  0.15600  0.78200  1.0000
  C   C8        1.0  0.19900  0.23000  0.78400  1.0000
  Hg  Hg1       1.0  0.00000  0.00000  0.00000  1.0000
  Hg  Hg2       1.0  0.39300  0.11600  0.26900  1.0000
  Hg  Hg3       1.0  0.60700  0.88400  0.73100  1.0000
  K   K1        1.0  0.20800  0.51100  0.20800  1.0000
  K   K2        1.0  0.79200  0.48900  0.79200  1.0000
  N   N1        1.0  0.76600  0.87900  0.19100  1.0000
  N   N2        1.0  0.42400  0.31800  0.21800  1.0000
  N   N3        1.0  0.40400  0.91400  0.31000  1.0000
  N   N4        1.0  0.96900  0.14000  0.34500  1.0000
  N   N5        1.0  0.03100  0.86000  0.65500  1.0000
  N   N6        1.0  0.59600  0.08640  0.69000  1.0000
  N   N7        1.0  0.57600  0.68200  0.78200  1.0000
  N   N8        1.0  0.23400  0.12100  0.80900  1.0000
  O   O1        1.0  0.24700  0.77000  0.12900  1.0000
  O   O2        1.0  0.83900  0.66200  0.23900  1.0000
  O   O3        1.0  0.93400  0.36600  0.28200  1.0000
  O   O4        1.0  0.61400  0.42000  0.36900  1.0000
  O   O5        1.0  0.38600  0.58000  0.63100  1.0000
  O   O6        1.0  0.06640  0.63400  0.71800  1.0000
  O   O7        1.0  0.16100  0.33800  0.76100  1.0000
  O   O8        1.0  0.75300  0.23000  0.87100  1.0000
