data_image0
_chemical_formula_structural       Ga16Hf6Rh7
_chemical_formula_sum              "Ga16 Hf6 Rh7"
_cell_length_a       8.73443
_cell_length_b       8.73443
_cell_length_c       8.73443
_cell_angle_alpha    120
_cell_angle_beta     90
_cell_angle_gamma    120

_space_group_name_H-M_alt    "P 1"
_space_group_IT_number       1

loop_
  _space_group_symop_operation_xyz
  'x, y, z'

loop_
  _atom_site_type_symbol
  _atom_site_label
  _atom_site_symmetry_multiplicity
  _atom_site_fract_x
  _atom_site_fract_y
  _atom_site_fract_z
  _atom_site_occupancy
  Ga  Ga1       1.0  0.34400  0.68700  0.03090  1.0000
  Ga  Ga2       1.0  0.87800  0.75600  0.12200  1.0000
  Ga  Ga3       1.0  0.36600  0.24400  0.12200  1.0000
  Ga  Ga4       1.0  0.87800  0.24400  0.12200  1.0000
  Ga  Ga5       1.0  0.03090  0.68700  0.34400  1.0000
  Ga  Ga6       1.0  0.65600  0.68700  0.34400  1.0000
  Ga  Ga7       1.0  0.65600  0.31300  0.34400  1.0000
  Ga  Ga8       1.0  0.12200  0.24400  0.36600  1.0000
  Ga  Ga9       1.0  0.87800  0.75600  0.63400  1.0000
  Ga  Ga10      1.0  0.34400  0.31300  0.65600  1.0000
  Ga  Ga11      1.0  0.34400  0.68700  0.65600  1.0000
  Ga  Ga12      1.0  0.96900  0.31300  0.65600  1.0000
  Ga  Ga13      1.0  0.12200  0.24400  0.87800  1.0000
  Ga  Ga14      1.0  0.12200  0.75600  0.87800  1.0000
  Ga  Ga15      1.0  0.63400  0.75600  0.87800  1.0000
  Ga  Ga16      1.0  0.65600  0.31300  0.96900  1.0000
  Hf  Hf1       1.0  0.31000  0.62000  0.31000  1.0000
  Hf  Hf2       1.0  0.31000  0.00000  0.31000  1.0000
  Hf  Hf3       1.0  0.69000  0.00000  0.31000  1.0000
  Hf  Hf4       1.0  0.69000  0.38000  0.69000  1.0000
  Hf  Hf5       1.0  0.31000  0.00000  0.69000  1.0000
  Hf  Hf6       1.0  0.69000  0.00000  0.69000  1.0000
  Rh  Rh1       1.0  0.00000  0.00000  0.00000  1.0000
  Rh  Rh2       1.0  0.50000  0.00000  0.00000  1.0000
  Rh  Rh3       1.0  0.00000  0.50000  0.00000  1.0000
  Rh  Rh4       1.0  0.50000  0.50000  0.00000  1.0000
  Rh  Rh5       1.0  0.00000  0.50000  0.50000  1.0000
  Rh  Rh6       1.0  0.50000  0.50000  0.50000  1.0000
  Rh  Rh7       1.0  0.00000  0.00000  0.50000  1.0000
