data_image0
_chemical_formula_structural       Co16Sc6Si7
_chemical_formula_sum              "Co16 Sc6 Si7"
_cell_length_a       8.02329
_cell_length_b       8.02329
_cell_length_c       8.02329
_cell_angle_alpha    120
_cell_angle_beta     90
_cell_angle_gamma    120

_space_group_name_H-M_alt    "P 1"
_space_group_IT_number       1

loop_
  _space_group_symop_operation_xyz
  'x, y, z'

loop_
  _atom_site_type_symbol
  _atom_site_label
  _atom_site_symmetry_multiplicity
  _atom_site_fract_x
  _atom_site_fract_y
  _atom_site_fract_z
  _atom_site_occupancy
  Co  Co1       1.0  0.67300  0.34700  0.01990  1.0000
  Co  Co2       1.0  0.36000  0.24000  0.12000  1.0000
  Co  Co3       1.0  0.88000  0.24000  0.12000  1.0000
  Co  Co4       1.0  0.88000  0.76000  0.12000  1.0000
  Co  Co5       1.0  0.67300  0.34700  0.32700  1.0000
  Co  Co6       1.0  0.67300  0.65300  0.32700  1.0000
  Co  Co7       1.0  0.98000  0.65300  0.32700  1.0000
  Co  Co8       1.0  0.12000  0.24000  0.36000  1.0000
  Co  Co9       1.0  0.88000  0.76000  0.64000  1.0000
  Co  Co10      1.0  0.01990  0.34700  0.67300  1.0000
  Co  Co11      1.0  0.32700  0.34700  0.67300  1.0000
  Co  Co12      1.0  0.32700  0.65300  0.67300  1.0000
  Co  Co13      1.0  0.12000  0.24000  0.88000  1.0000
  Co  Co14      1.0  0.12000  0.76000  0.88000  1.0000
  Co  Co15      1.0  0.64000  0.76000  0.88000  1.0000
  Co  Co16      1.0  0.32700  0.65300  0.98000  1.0000
  Sc  Sc1       1.0  0.29100  0.00000  0.29100  1.0000
  Sc  Sc2       1.0  0.70900  0.00000  0.29100  1.0000
  Sc  Sc3       1.0  0.29100  0.58100  0.29100  1.0000
  Sc  Sc4       1.0  0.70900  0.00000  0.70900  1.0000
  Sc  Sc5       1.0  0.29100  0.00000  0.70900  1.0000
  Sc  Sc6       1.0  0.70900  0.41900  0.70900  1.0000
  Si  Si1       1.0  0.00000  0.00000  0.00000  1.0000
  Si  Si2       1.0  0.50000  0.00000  0.00000  1.0000
  Si  Si3       1.0  0.00000  0.50000  0.00000  1.0000
  Si  Si4       1.0  0.50000  0.50000  0.00000  1.0000
  Si  Si5       1.0  0.00000  0.00000  0.50000  1.0000
  Si  Si6       1.0  0.00000  0.50000  0.50000  1.0000
  Si  Si7       1.0  0.50000  0.50000  0.50000  1.0000
