data_image0
_chemical_formula_structural       O11Pt4Yb4
_chemical_formula_sum              "O11 Pt4 Yb4"
_cell_length_a       5.19755
_cell_length_b       5.70187
_cell_length_c       7.51164
_cell_angle_alpha    90
_cell_angle_beta     90
_cell_angle_gamma    90.2183

_space_group_name_H-M_alt    "P 1"
_space_group_IT_number       1

loop_
  _space_group_symop_operation_xyz
  'x, y, z'

loop_
  _atom_site_type_symbol
  _atom_site_label
  _atom_site_symmetry_multiplicity
  _atom_site_fract_x
  _atom_site_fract_y
  _atom_site_fract_z
  _atom_site_occupancy
  O   O1        1.0  0.67300  0.31300  0.06370  1.0000
  O   O2        1.0  0.82100  0.80700  0.06770  1.0000
  O   O3        1.0  0.36300  0.96000  0.25000  1.0000
  O   O4        1.0  0.82100  0.80700  0.43200  1.0000
  O   O5        1.0  0.67300  0.31300  0.43600  1.0000
  O   O6        1.0  0.17600  0.19100  0.54900  1.0000
  O   O7        1.0  0.32500  0.68800  0.55100  1.0000
  O   O8        1.0  0.63200  0.04660  0.75000  1.0000
  O   O9        1.0  0.89200  0.53500  0.75000  1.0000
  O   O10       1.0  0.32500  0.68800  0.94900  1.0000
  O   O11       1.0  0.17600  0.19100  0.95100  1.0000
  Pt  Pt1       1.0  0.50000  0.00000  0.00196  1.0000
  Pt  Pt2       1.0  0.00252  0.50000  0.01830  1.0000
  Pt  Pt3       1.0  0.00252  0.50000  0.48200  1.0000
  Pt  Pt4       1.0  0.50000  0.00000  0.49800  1.0000
  Yb  Yb1       1.0  0.96200  0.08540  0.25000  1.0000
  Yb  Yb2       1.0  0.51900  0.58600  0.25000  1.0000
  Yb  Yb3       1.0  0.47400  0.42100  0.75000  1.0000
  Yb  Yb4       1.0  0.03500  0.91400  0.75000  1.0000
