data_image0
_chemical_formula_structural       O11Ru4Yb4
_chemical_formula_sum              "O11 Ru4 Yb4"
_cell_length_a       5.2279
_cell_length_b       5.59509
_cell_length_c       7.45386
_cell_angle_alpha    90
_cell_angle_beta     90
_cell_angle_gamma    90.2456

_space_group_name_H-M_alt    "P 1"
_space_group_IT_number       1

loop_
  _space_group_symop_operation_xyz
  'x, y, z'

loop_
  _atom_site_type_symbol
  _atom_site_label
  _atom_site_symmetry_multiplicity
  _atom_site_fract_x
  _atom_site_fract_y
  _atom_site_fract_z
  _atom_site_occupancy
  O   O1        1.0  0.80800  0.79700  0.05960  1.0000
  O   O2        1.0  0.69300  0.30200  0.05980  1.0000
  O   O3        1.0  0.38400  0.96600  0.25000  1.0000
  O   O4        1.0  0.69300  0.30200  0.44000  1.0000
  O   O5        1.0  0.80800  0.79700  0.44000  1.0000
  O   O6        1.0  0.18900  0.20000  0.54300  1.0000
  O   O7        1.0  0.31300  0.69300  0.54300  1.0000
  O   O8        1.0  0.61500  0.04000  0.75000  1.0000
  O   O9        1.0  0.89000  0.53900  0.75000  1.0000
  O   O10       1.0  0.31300  0.69300  0.95700  1.0000
  O   O11       1.0  0.18900  0.20000  0.95700  1.0000
  Ru  Ru1       1.0  0.50200  0.00071  0.00166  1.0000
  Ru  Ru2       1.0  0.99800  0.50100  0.00932  1.0000
  Ru  Ru3       1.0  0.99800  0.50100  0.49100  1.0000
  Ru  Ru4       1.0  0.50200  0.00071  0.49800  1.0000
  Yb  Yb1       1.0  0.97400  0.06810  0.25000  1.0000
  Yb  Yb2       1.0  0.51700  0.57400  0.25000  1.0000
  Yb  Yb3       1.0  0.47600  0.43100  0.75000  1.0000
  Yb  Yb4       1.0  0.02720  0.92800  0.75000  1.0000
