data_image0
_chemical_formula_structural       Al16Rh7Ti6
_chemical_formula_sum              "Al16 Rh7 Ti6"
_cell_length_a       8.57214
_cell_length_b       8.57214
_cell_length_c       8.57214
_cell_angle_alpha    120
_cell_angle_beta     90
_cell_angle_gamma    120

_space_group_name_H-M_alt    "P 1"
_space_group_IT_number       1

loop_
  _space_group_symop_operation_xyz
  'x, y, z'

loop_
  _atom_site_type_symbol
  _atom_site_label
  _atom_site_symmetry_multiplicity
  _atom_site_fract_x
  _atom_site_fract_y
  _atom_site_fract_z
  _atom_site_occupancy
  Al  Al1       1.0  0.34200  0.68400  0.02530  1.0000
  Al  Al2       1.0  0.36000  0.24000  0.12000  1.0000
  Al  Al3       1.0  0.88000  0.24000  0.12000  1.0000
  Al  Al4       1.0  0.88000  0.76000  0.12000  1.0000
  Al  Al5       1.0  0.65800  0.31600  0.34200  1.0000
  Al  Al6       1.0  0.02530  0.68400  0.34200  1.0000
  Al  Al7       1.0  0.65800  0.68400  0.34200  1.0000
  Al  Al8       1.0  0.12000  0.24000  0.36000  1.0000
  Al  Al9       1.0  0.88000  0.76000  0.64000  1.0000
  Al  Al10      1.0  0.34200  0.31600  0.65800  1.0000
  Al  Al11      1.0  0.97500  0.31600  0.65800  1.0000
  Al  Al12      1.0  0.34200  0.68400  0.65800  1.0000
  Al  Al13      1.0  0.12000  0.24000  0.88000  1.0000
  Al  Al14      1.0  0.12000  0.76000  0.88000  1.0000
  Al  Al15      1.0  0.64000  0.76000  0.88000  1.0000
  Al  Al16      1.0  0.65800  0.31600  0.97500  1.0000
  Rh  Rh1       1.0  0.00000  0.00000  0.00000  1.0000
  Rh  Rh2       1.0  0.50000  0.00000  0.00000  1.0000
  Rh  Rh3       1.0  0.00000  0.50000  0.00000  1.0000
  Rh  Rh4       1.0  0.50000  0.50000  0.00000  1.0000
  Rh  Rh5       1.0  0.00000  0.00000  0.50000  1.0000
  Rh  Rh6       1.0  0.00000  0.50000  0.50000  1.0000
  Rh  Rh7       1.0  0.50000  0.50000  0.50000  1.0000
  Ti  Ti1       1.0  0.67700  0.00000  0.32300  1.0000
  Ti  Ti2       1.0  0.32300  0.00000  0.32300  1.0000
  Ti  Ti3       1.0  0.32300  0.64700  0.32300  1.0000
  Ti  Ti4       1.0  0.32300  0.00000  0.67700  1.0000
  Ti  Ti5       1.0  0.67700  0.35300  0.67700  1.0000
  Ti  Ti6       1.0  0.67700  0.00000  0.67700  1.0000
