data_image0
_chemical_formula_structural       Mn4O11Pu4
_chemical_formula_sum              "Mn4 O11 Pu4"
_cell_length_a       5.5361
_cell_length_b       5.69938
_cell_length_c       7.80588
_cell_angle_alpha    90
_cell_angle_beta     90
_cell_angle_gamma    89.8571

_space_group_name_H-M_alt    "P 1"
_space_group_IT_number       1

loop_
  _space_group_symop_operation_xyz
  'x, y, z'

loop_
  _atom_site_type_symbol
  _atom_site_label
  _atom_site_symmetry_multiplicity
  _atom_site_fract_x
  _atom_site_fract_y
  _atom_site_fract_z
  _atom_site_occupancy
  Mn  Mn1       1.0  0.50200  0.00000  0.00307  1.0000
  Mn  Mn2       1.0  0.50200  0.00000  0.49700  1.0000
  Mn  Mn3       1.0  0.99900  0.49800  0.50600  1.0000
  Mn  Mn4       1.0  0.99900  0.49800  0.99400  1.0000
  O   O1        1.0  0.72100  0.30300  0.06030  1.0000
  O   O2        1.0  0.81000  0.78300  0.06350  1.0000
  O   O3        1.0  0.40100  0.97400  0.25000  1.0000
  O   O4        1.0  0.81000  0.78300  0.43600  1.0000
  O   O5        1.0  0.72100  0.30300  0.44000  1.0000
  O   O6        1.0  0.29600  0.68600  0.53600  1.0000
  O   O7        1.0  0.19100  0.20800  0.53800  1.0000
  O   O8        1.0  0.59500  0.03300  0.75000  1.0000
  O   O9        1.0  0.88800  0.54800  0.75000  1.0000
  O   O10       1.0  0.19100  0.20800  0.96200  1.0000
  O   O11       1.0  0.29600  0.68600  0.96400  1.0000
  Pu  Pu1       1.0  0.98700  0.04820  0.25000  1.0000
  Pu  Pu2       1.0  0.51800  0.55600  0.25000  1.0000
  Pu  Pu3       1.0  0.48600  0.45000  0.75000  1.0000
  Pu  Pu4       1.0  0.00839  0.95500  0.75000  1.0000
