data_image0
_chemical_formula_structural       Ba6Lu2O18W3
_chemical_formula_sum              "Ba6 Lu2 O18 W3"
_cell_length_a       5.85454
_cell_length_b       5.85454
_cell_length_c       14.5876
_cell_angle_alpha    90
_cell_angle_beta     78.4239
_cell_angle_gamma    120

_space_group_name_H-M_alt    "P 1"
_space_group_IT_number       1

loop_
  _space_group_symop_operation_xyz
  'x, y, z'

loop_
  _atom_site_type_symbol
  _atom_site_label
  _atom_site_symmetry_multiplicity
  _atom_site_fract_x
  _atom_site_fract_y
  _atom_site_fract_z
  _atom_site_occupancy
  Ba  Ba1       1.0  0.27300  0.63600  0.09100  1.0000
  Ba  Ba2       1.0  0.82500  0.91200  0.26300  1.0000
  Ba  Ba3       1.0  0.37600  0.18800  0.43600  1.0000
  Ba  Ba4       1.0  0.62400  0.81200  0.56400  1.0000
  Ba  Ba5       1.0  0.17500  0.08770  0.73700  1.0000
  Ba  Ba6       1.0  0.72700  0.36400  0.90900  1.0000
  Lu  Lu1       1.0  0.55000  0.27500  0.17400  1.0000
  Lu  Lu2       1.0  0.45000  0.72500  0.82600  1.0000
  O   O1        1.0  0.26200  0.13100  0.07830  1.0000
  O   O2        1.0  0.79100  0.13100  0.07830  1.0000
  O   O3        1.0  0.79100  0.65900  0.07830  1.0000
  O   O4        1.0  0.32000  0.42600  0.25400  1.0000
  O   O5        1.0  0.85100  0.42600  0.25400  1.0000
  O   O6        1.0  0.32000  0.89400  0.25400  1.0000
  O   O7        1.0  0.90000  0.21000  0.41100  1.0000
  O   O8        1.0  0.90000  0.68900  0.41100  1.0000
  O   O9        1.0  0.37900  0.68900  0.41100  1.0000
  O   O10       1.0  0.10000  0.31100  0.58900  1.0000
  O   O11       1.0  0.62100  0.31100  0.58900  1.0000
  O   O12       1.0  0.10000  0.79000  0.58900  1.0000
  O   O13       1.0  0.68000  0.10600  0.74600  1.0000
  O   O14       1.0  0.14900  0.57400  0.74600  1.0000
  O   O15       1.0  0.68000  0.57400  0.74600  1.0000
  O   O16       1.0  0.20900  0.34100  0.92200  1.0000
  O   O17       1.0  0.20900  0.86900  0.92200  1.0000
  O   O18       1.0  0.73800  0.86900  0.92200  1.0000
  W   W1        1.0  0.00000  0.00000  0.00000  1.0000
  W   W2        1.0  0.10200  0.55100  0.34700  1.0000
  W   W3        1.0  0.89800  0.44900  0.65300  1.0000
