data_image0
_chemical_formula_structural       Tm6Zn23
_chemical_formula_sum              "Tm6 Zn23"
_cell_length_a       8.86902
_cell_length_b       8.86902
_cell_length_c       8.86902
_cell_angle_alpha    120
_cell_angle_beta     90
_cell_angle_gamma    120

_space_group_name_H-M_alt    "P 1"
_space_group_IT_number       1

loop_
  _space_group_symop_operation_xyz
  'x, y, z'

loop_
  _atom_site_type_symbol
  _atom_site_label
  _atom_site_symmetry_multiplicity
  _atom_site_fract_x
  _atom_site_fract_y
  _atom_site_fract_z
  _atom_site_occupancy
  Tm  Tm1       1.0  0.70400  0.00000  0.29600  1.0000
  Tm  Tm2       1.0  0.29600  0.00000  0.29600  1.0000
  Tm  Tm3       1.0  0.29600  0.59300  0.29600  1.0000
  Tm  Tm4       1.0  0.70400  1.00000  0.70400  1.0000
  Tm  Tm5       1.0  0.29600  1.00000  0.70400  1.0000
  Tm  Tm6       1.0  0.70400  0.40700  0.70400  1.0000
  Zn  Zn1       1.0  0.00000  0.00000  0.00000  1.0000
  Zn  Zn2       1.0  0.50000  0.00000  0.00000  1.0000
  Zn  Zn3       1.0  0.00000  0.50000  0.00000  1.0000
  Zn  Zn4       1.0  0.50000  0.50000  0.00000  1.0000
  Zn  Zn5       1.0  0.67000  0.34000  0.00996  1.0000
  Zn  Zn6       1.0  0.36700  0.24400  0.12200  1.0000
  Zn  Zn7       1.0  0.87800  0.24400  0.12200  1.0000
  Zn  Zn8       1.0  0.87800  0.75600  0.12200  1.0000
  Zn  Zn9       1.0  0.67000  0.34000  0.33000  1.0000
  Zn  Zn10      1.0  0.67000  0.66000  0.33000  1.0000
  Zn  Zn11      1.0  0.99000  0.66000  0.33000  1.0000
  Zn  Zn12      1.0  0.12200  0.24400  0.36700  1.0000
  Zn  Zn13      1.0  0.00000  0.00000  0.50000  1.0000
  Zn  Zn14      1.0  0.00000  0.50000  0.50000  1.0000
  Zn  Zn15      1.0  0.50000  0.50000  0.50000  1.0000
  Zn  Zn16      1.0  0.87800  0.75600  0.63300  1.0000
  Zn  Zn17      1.0  0.00996  0.34000  0.67000  1.0000
  Zn  Zn18      1.0  0.33000  0.34000  0.67000  1.0000
  Zn  Zn19      1.0  0.33000  0.66000  0.67000  1.0000
  Zn  Zn20      1.0  0.12200  0.24400  0.87800  1.0000
  Zn  Zn21      1.0  0.12200  0.75600  0.87800  1.0000
  Zn  Zn22      1.0  0.63300  0.75600  0.87800  1.0000
  Zn  Zn23      1.0  0.33000  0.66000  0.99000  1.0000
