data_image0
_chemical_formula_structural       Al7Cu16Ho6
_chemical_formula_sum              "Al7 Cu16 Ho6"
_cell_length_a       8.66566
_cell_length_b       8.66566
_cell_length_c       8.66566
_cell_angle_alpha    120
_cell_angle_beta     90
_cell_angle_gamma    120

_space_group_name_H-M_alt    "P 1"
_space_group_IT_number       1

loop_
  _space_group_symop_operation_xyz
  'x, y, z'

loop_
  _atom_site_type_symbol
  _atom_site_label
  _atom_site_symmetry_multiplicity
  _atom_site_fract_x
  _atom_site_fract_y
  _atom_site_fract_z
  _atom_site_occupancy
  Al  Al1       1.0  0.00000  0.00000  0.00000  1.0000
  Al  Al2       1.0  0.50000  0.00000  0.00000  1.0000
  Al  Al3       1.0  0.00000  0.50000  0.00000  1.0000
  Al  Al4       1.0  0.50000  0.50000  0.00000  1.0000
  Al  Al5       1.0  0.00000  0.00000  0.50000  1.0000
  Al  Al6       1.0  0.00000  0.50000  0.50000  1.0000
  Al  Al7       1.0  0.50000  0.50000  0.50000  1.0000
  Cu  Cu1       1.0  0.67300  0.34700  0.01980  1.0000
  Cu  Cu2       1.0  0.36300  0.24200  0.12100  1.0000
  Cu  Cu3       1.0  0.87900  0.24200  0.12100  1.0000
  Cu  Cu4       1.0  0.87900  0.75800  0.12100  1.0000
  Cu  Cu5       1.0  0.67300  0.34700  0.32700  1.0000
  Cu  Cu6       1.0  0.67300  0.65300  0.32700  1.0000
  Cu  Cu7       1.0  0.98000  0.65300  0.32700  1.0000
  Cu  Cu8       1.0  0.12100  0.24200  0.36300  1.0000
  Cu  Cu9       1.0  0.87900  0.75800  0.63700  1.0000
  Cu  Cu10      1.0  0.01980  0.34700  0.67300  1.0000
  Cu  Cu11      1.0  0.32700  0.34700  0.67300  1.0000
  Cu  Cu12      1.0  0.32700  0.65300  0.67300  1.0000
  Cu  Cu13      1.0  0.12100  0.24200  0.87900  1.0000
  Cu  Cu14      1.0  0.12100  0.75800  0.87900  1.0000
  Cu  Cu15      1.0  0.63700  0.75800  0.87900  1.0000
  Cu  Cu16      1.0  0.32700  0.65300  0.98000  1.0000
  Ho  Ho1       1.0  0.29000  0.00000  0.29000  1.0000
  Ho  Ho2       1.0  0.71000  0.00000  0.29000  1.0000
  Ho  Ho3       1.0  0.29000  0.58000  0.29000  1.0000
  Ho  Ho4       1.0  0.71000  1.00000  0.71000  1.0000
  Ho  Ho5       1.0  0.29000  1.00000  0.71000  1.0000
  Ho  Ho6       1.0  0.71000  0.42000  0.71000  1.0000
