data_image0
_chemical_formula_structural       O11Os4Sr4
_chemical_formula_sum              "O11 Os4 Sr4"
_cell_length_a       5.57079
_cell_length_b       5.55828
_cell_length_c       7.81434
_cell_angle_alpha    90
_cell_angle_beta     90
_cell_angle_gamma    89.966

_space_group_name_H-M_alt    "P 1"
_space_group_IT_number       1

loop_
  _space_group_symop_operation_xyz
  'x, y, z'

loop_
  _atom_site_type_symbol
  _atom_site_label
  _atom_site_symmetry_multiplicity
  _atom_site_fract_x
  _atom_site_fract_y
  _atom_site_fract_z
  _atom_site_occupancy
  O   O1        1.0  0.78200  0.77900  0.03470  1.0000
  O   O2        1.0  0.72100  0.28300  0.03620  1.0000
  O   O3        1.0  0.43600  0.99700  0.25000  1.0000
  O   O4        1.0  0.72100  0.28300  0.46400  1.0000
  O   O5        1.0  0.78200  0.77900  0.46500  1.0000
  O   O6        1.0  0.28300  0.71500  0.52000  1.0000
  O   O7        1.0  0.21600  0.22000  0.52000  1.0000
  O   O8        1.0  0.55500  0.00522  0.75000  1.0000
  O   O9        1.0  0.94200  0.50900  0.75000  1.0000
  O   O10       1.0  0.21600  0.22000  0.98000  1.0000
  O   O11       1.0  0.28300  0.71500  0.98000  1.0000
  Os  Os1       1.0  0.50200  0.00097  0.00357  1.0000
  Os  Os2       1.0  0.00112  0.50100  0.02200  1.0000
  Os  Os3       1.0  0.00112  0.50100  0.47800  1.0000
  Os  Os4       1.0  0.50200  0.00097  0.49600  1.0000
  Sr  Sr1       1.0  0.99500  0.02320  0.25000  1.0000
  Sr  Sr2       1.0  0.49200  0.52100  0.25000  1.0000
  Sr  Sr3       1.0  0.49900  0.47900  0.75000  1.0000
  Sr  Sr4       1.0  0.00423  0.97200  0.75000  1.0000
