data_image0
_chemical_formula_structural       La4Ni4O11
_chemical_formula_sum              "La4 Ni4 O11"
_cell_length_a       5.47511
_cell_length_b       5.45047
_cell_length_c       7.68297
_cell_angle_alpha    90
_cell_angle_beta     90
_cell_angle_gamma    89.9836

_space_group_name_H-M_alt    "P 1"
_space_group_IT_number       1

loop_
  _space_group_symop_operation_xyz
  'x, y, z'

loop_
  _atom_site_type_symbol
  _atom_site_label
  _atom_site_symmetry_multiplicity
  _atom_site_fract_x
  _atom_site_fract_y
  _atom_site_fract_z
  _atom_site_occupancy
  La  La1       1.0  0.99900  0.02340  0.25000  1.0000
  La  La2       1.0  0.50700  0.53000  0.25000  1.0000
  La  La3       1.0  0.48500  0.47400  0.75000  1.0000
  La  La4       1.0  0.00325  0.97400  0.75000  1.0000
  Ni  Ni1       1.0  0.50600  0.00048  0.00338  1.0000
  Ni  Ni2       1.0  0.50600  0.00048  0.49700  1.0000
  Ni  Ni3       1.0  0.99600  0.49900  0.50900  1.0000
  Ni  Ni4       1.0  0.99600  0.49900  0.99100  1.0000
  O   O1        1.0  0.74400  0.28200  0.05480  1.0000
  O   O2        1.0  0.78800  0.76000  0.05520  1.0000
  O   O3        1.0  0.43100  0.99100  0.25000  1.0000
  O   O4        1.0  0.78800  0.76000  0.44500  1.0000
  O   O5        1.0  0.74400  0.28200  0.44500  1.0000
  O   O6        1.0  0.26800  0.71400  0.52500  1.0000
  O   O7        1.0  0.21700  0.23300  0.52700  1.0000
  O   O8        1.0  0.57400  0.01210  0.75000  1.0000
  O   O9        1.0  0.90500  0.52200  0.75000  1.0000
  O   O10       1.0  0.21700  0.23300  0.97300  1.0000
  O   O11       1.0  0.26800  0.71400  0.97500  1.0000
