data_image0
_chemical_formula_structural       Mo4O11Yb4
_chemical_formula_sum              "Mo4 O11 Yb4"
_cell_length_a       5.35581
_cell_length_b       5.58973
_cell_length_c       7.53981
_cell_angle_alpha    90
_cell_angle_beta     90
_cell_angle_gamma    90.247

_space_group_name_H-M_alt    "P 1"
_space_group_IT_number       1

loop_
  _space_group_symop_operation_xyz
  'x, y, z'

loop_
  _atom_site_type_symbol
  _atom_site_label
  _atom_site_symmetry_multiplicity
  _atom_site_fract_x
  _atom_site_fract_y
  _atom_site_fract_z
  _atom_site_occupancy
  Mo  Mo1       1.0  0.50400  0.00400  0.00168  1.0000
  Mo  Mo2       1.0  0.00021  0.50200  0.02150  1.0000
  Mo  Mo3       1.0  0.00021  0.50200  0.47900  1.0000
  Mo  Mo4       1.0  0.50400  0.00400  0.49800  1.0000
  O   O1        1.0  0.79700  0.79300  0.04860  1.0000
  O   O2        1.0  0.70400  0.29300  0.05370  1.0000
  O   O3        1.0  0.39700  0.96600  0.25000  1.0000
  O   O4        1.0  0.70400  0.29300  0.44600  1.0000
  O   O5        1.0  0.79700  0.79300  0.45100  1.0000
  O   O6        1.0  0.19800  0.20600  0.53400  1.0000
  O   O7        1.0  0.30200  0.70200  0.53900  1.0000
  O   O8        1.0  0.59400  0.03230  0.75000  1.0000
  O   O9        1.0  0.90100  0.53200  0.75000  1.0000
  O   O10       1.0  0.30200  0.70200  0.96100  1.0000
  O   O11       1.0  0.19800  0.20600  0.96600  1.0000
  Yb  Yb1       1.0  0.98800  0.04970  0.25000  1.0000
  Yb  Yb2       1.0  0.51200  0.56300  0.25000  1.0000
  Yb  Yb3       1.0  0.48700  0.44800  0.75000  1.0000
  Yb  Yb4       1.0  0.01520  0.93100  0.75000  1.0000
