data_image0
_chemical_formula_structural       Ga16Ni7Ti6
_chemical_formula_sum              "Ga16 Ni7 Ti6"
_cell_length_a       8.37519
_cell_length_b       8.37519
_cell_length_c       8.37519
_cell_angle_alpha    120
_cell_angle_beta     90
_cell_angle_gamma    120

_space_group_name_H-M_alt    "P 1"
_space_group_IT_number       1

loop_
  _space_group_symop_operation_xyz
  'x, y, z'

loop_
  _atom_site_type_symbol
  _atom_site_label
  _atom_site_symmetry_multiplicity
  _atom_site_fract_x
  _atom_site_fract_y
  _atom_site_fract_z
  _atom_site_occupancy
  Ga  Ga1       1.0  0.34700  0.69400  0.04080  1.0000
  Ga  Ga2       1.0  0.87800  0.75600  0.12200  1.0000
  Ga  Ga3       1.0  0.36500  0.24400  0.12200  1.0000
  Ga  Ga4       1.0  0.87800  0.24400  0.12200  1.0000
  Ga  Ga5       1.0  0.65300  0.30600  0.34700  1.0000
  Ga  Ga6       1.0  0.04080  0.69400  0.34700  1.0000
  Ga  Ga7       1.0  0.65300  0.69400  0.34700  1.0000
  Ga  Ga8       1.0  0.12200  0.24400  0.36500  1.0000
  Ga  Ga9       1.0  0.87800  0.75600  0.63500  1.0000
  Ga  Ga10      1.0  0.34700  0.30600  0.65300  1.0000
  Ga  Ga11      1.0  0.34700  0.69400  0.65300  1.0000
  Ga  Ga12      1.0  0.95900  0.30600  0.65300  1.0000
  Ga  Ga13      1.0  0.12200  0.24400  0.87800  1.0000
  Ga  Ga14      1.0  0.12200  0.75600  0.87800  1.0000
  Ga  Ga15      1.0  0.63500  0.75600  0.87800  1.0000
  Ga  Ga16      1.0  0.65300  0.30600  0.95900  1.0000
  Ni  Ni1       1.0  0.00000  0.00000  0.00000  1.0000
  Ni  Ni2       1.0  0.50000  0.00000  0.00000  1.0000
  Ni  Ni3       1.0  0.00000  0.50000  0.00000  1.0000
  Ni  Ni4       1.0  0.50000  0.50000  0.00000  1.0000
  Ni  Ni5       1.0  0.00000  0.00000  0.50000  1.0000
  Ni  Ni6       1.0  0.00000  0.50000  0.50000  1.0000
  Ni  Ni7       1.0  0.50000  0.50000  0.50000  1.0000
  Ti  Ti1       1.0  0.30200  0.00000  0.30200  1.0000
  Ti  Ti2       1.0  0.69800  0.00000  0.30200  1.0000
  Ti  Ti3       1.0  0.30200  0.60500  0.30200  1.0000
  Ti  Ti4       1.0  0.69800  0.00000  0.69800  1.0000
  Ti  Ti5       1.0  0.30200  0.00000  0.69800  1.0000
  Ti  Ti6       1.0  0.69800  0.39500  0.69800  1.0000
