data_image0
_chemical_formula_structural       Al12Ta17
_chemical_formula_sum              "Al12 Ta17"
_cell_length_a       8.63488
_cell_length_b       8.63488
_cell_length_c       8.63488
_cell_angle_alpha    109.471
_cell_angle_beta     109.471
_cell_angle_gamma    109.471

_space_group_name_H-M_alt    "P 1"
_space_group_IT_number       1

loop_
  _space_group_symop_operation_xyz
  'x, y, z'

loop_
  _atom_site_type_symbol
  _atom_site_label
  _atom_site_symmetry_multiplicity
  _atom_site_fract_x
  _atom_site_fract_y
  _atom_site_fract_z
  _atom_site_occupancy
  Al  Al1       1.0  0.36800  0.18600  0.00000  1.0000
  Al  Al2       1.0  0.18600  0.36800  0.00000  1.0000
  Al  Al3       1.0  0.81400  0.81400  0.18200  1.0000
  Al  Al4       1.0  0.36800  0.00000  0.18600  1.0000
  Al  Al5       1.0  0.00000  0.36800  0.18600  1.0000
  Al  Al6       1.0  0.18600  0.00000  0.36800  1.0000
  Al  Al7       1.0  0.00000  0.18600  0.36800  1.0000
  Al  Al8       1.0  0.81800  0.63200  0.63200  1.0000
  Al  Al9       1.0  0.63200  0.81800  0.63200  1.0000
  Al  Al10      1.0  0.81400  0.18200  0.81400  1.0000
  Al  Al11      1.0  0.18200  0.81400  0.81400  1.0000
  Al  Al12      1.0  0.63200  0.63200  0.81800  1.0000
  Ta  Ta1       1.0  0.00000  0.00000  0.00000  1.0000
  Ta  Ta2       1.0  0.64800  0.00000  0.00000  1.0000
  Ta  Ta3       1.0  0.67800  0.40800  0.00000  1.0000
  Ta  Ta4       1.0  0.00000  0.64800  0.00000  1.0000
  Ta  Ta5       1.0  0.40800  0.67800  0.00000  1.0000
  Ta  Ta6       1.0  0.59200  0.59200  0.27000  1.0000
  Ta  Ta7       1.0  0.73000  0.32200  0.32200  1.0000
  Ta  Ta8       1.0  0.32200  0.73000  0.32200  1.0000
  Ta  Ta9       1.0  0.35200  0.35200  0.35200  1.0000
  Ta  Ta10      1.0  0.67800  0.00000  0.40800  1.0000
  Ta  Ta11      1.0  0.00000  0.67800  0.40800  1.0000
  Ta  Ta12      1.0  0.59200  0.27000  0.59200  1.0000
  Ta  Ta13      1.0  0.27000  0.59200  0.59200  1.0000
  Ta  Ta14      1.0  0.00000  0.00000  0.64800  1.0000
  Ta  Ta15      1.0  0.40800  0.00000  0.67800  1.0000
  Ta  Ta16      1.0  0.00000  0.40800  0.67800  1.0000
  Ta  Ta17      1.0  0.32200  0.32200  0.73000  1.0000
