data_image0
_chemical_formula_structural       O11Sb4Yb4
_chemical_formula_sum              "O11 Sb4 Yb4"
_cell_length_a       5.57805
_cell_length_b       5.87477
_cell_length_c       7.83036
_cell_angle_alpha    90
_cell_angle_beta     90
_cell_angle_gamma    89.7525

_space_group_name_H-M_alt    "P 1"
_space_group_IT_number       1

loop_
  _space_group_symop_operation_xyz
  'x, y, z'

loop_
  _atom_site_type_symbol
  _atom_site_label
  _atom_site_symmetry_multiplicity
  _atom_site_fract_x
  _atom_site_fract_y
  _atom_site_fract_z
  _atom_site_occupancy
  O   O1        1.0  0.67900  0.30400  0.05630  1.0000
  O   O2        1.0  0.80100  0.80700  0.05850  1.0000
  O   O3        1.0  0.37200  0.95700  0.25000  1.0000
  O   O4        1.0  0.80100  0.80700  0.44100  1.0000
  O   O5        1.0  0.67900  0.30400  0.44400  1.0000
  O   O6        1.0  0.31000  0.69700  0.56900  1.0000
  O   O7        1.0  0.18600  0.19200  0.56900  1.0000
  O   O8        1.0  0.62200  0.04980  0.75000  1.0000
  O   O9        1.0  0.89400  0.54200  0.75000  1.0000
  O   O10       1.0  0.18600  0.19200  0.93100  1.0000
  O   O11       1.0  0.31000  0.69700  0.93100  1.0000
  Sb  Sb1       1.0  0.01680  0.49600  0.00887  1.0000
  Sb  Sb2       1.0  0.01680  0.49600  0.49100  1.0000
  Sb  Sb3       1.0  0.49200  0.00405  0.50400  1.0000
  Sb  Sb4       1.0  0.49200  0.00405  0.99600  1.0000
  Yb  Yb1       1.0  0.96300  0.05680  0.25000  1.0000
  Yb  Yb2       1.0  0.54500  0.57800  0.25000  1.0000
  Yb  Yb3       1.0  0.49800  0.44100  0.75000  1.0000
  Yb  Yb4       1.0  0.01300  0.92800  0.75000  1.0000
