data_image0
_chemical_formula_structural       Al16Pd7Sc6
_chemical_formula_sum              "Al16 Pd7 Sc6"
_cell_length_a       8.81523
_cell_length_b       8.81523
_cell_length_c       8.81523
_cell_angle_alpha    120
_cell_angle_beta     90
_cell_angle_gamma    120

_space_group_name_H-M_alt    "P 1"
_space_group_IT_number       1

loop_
  _space_group_symop_operation_xyz
  'x, y, z'

loop_
  _atom_site_type_symbol
  _atom_site_label
  _atom_site_symmetry_multiplicity
  _atom_site_fract_x
  _atom_site_fract_y
  _atom_site_fract_z
  _atom_site_occupancy
  Al  Al1       1.0  0.33600  0.67100  0.00706  1.0000
  Al  Al2       1.0  0.36200  0.24100  0.12100  1.0000
  Al  Al3       1.0  0.87900  0.24100  0.12100  1.0000
  Al  Al4       1.0  0.87900  0.75900  0.12100  1.0000
  Al  Al5       1.0  0.66400  0.32900  0.33600  1.0000
  Al  Al6       1.0  0.00706  0.67100  0.33600  1.0000
  Al  Al7       1.0  0.66400  0.67100  0.33600  1.0000
  Al  Al8       1.0  0.12100  0.24100  0.36200  1.0000
  Al  Al9       1.0  0.87900  0.75900  0.63800  1.0000
  Al  Al10      1.0  0.99300  0.32900  0.66400  1.0000
  Al  Al11      1.0  0.33600  0.32900  0.66400  1.0000
  Al  Al12      1.0  0.33600  0.67100  0.66400  1.0000
  Al  Al13      1.0  0.12100  0.24100  0.87900  1.0000
  Al  Al14      1.0  0.12100  0.75900  0.87900  1.0000
  Al  Al15      1.0  0.63800  0.75900  0.87900  1.0000
  Al  Al16      1.0  0.66400  0.32900  0.99300  1.0000
  Pd  Pd1       1.0  0.00000  0.00000  0.00000  1.0000
  Pd  Pd2       1.0  0.50000  0.00000  0.00000  1.0000
  Pd  Pd3       1.0  0.00000  0.50000  0.00000  1.0000
  Pd  Pd4       1.0  0.50000  0.50000  0.00000  1.0000
  Pd  Pd5       1.0  0.00000  0.00000  0.50000  1.0000
  Pd  Pd6       1.0  0.00000  0.50000  0.50000  1.0000
  Pd  Pd7       1.0  0.50000  0.50000  0.50000  1.0000
  Sc  Sc1       1.0  0.30900  0.00000  0.30900  1.0000
  Sc  Sc2       1.0  0.30900  0.61800  0.30900  1.0000
  Sc  Sc3       1.0  0.69100  0.00000  0.30900  1.0000
  Sc  Sc4       1.0  0.30900  0.00000  0.69100  1.0000
  Sc  Sc5       1.0  0.69100  0.00000  0.69100  1.0000
  Sc  Sc6       1.0  0.69100  0.38200  0.69100  1.0000
