data_image0
_chemical_formula_structural       Al16Ru7Ti6
_chemical_formula_sum              "Al16 Ru7 Ti6"
_cell_length_a       8.59663
_cell_length_b       8.59663
_cell_length_c       8.59663
_cell_angle_alpha    120
_cell_angle_beta     90
_cell_angle_gamma    120

_space_group_name_H-M_alt    "P 1"
_space_group_IT_number       1

loop_
  _space_group_symop_operation_xyz
  'x, y, z'

loop_
  _atom_site_type_symbol
  _atom_site_label
  _atom_site_symmetry_multiplicity
  _atom_site_fract_x
  _atom_site_fract_y
  _atom_site_fract_z
  _atom_site_occupancy
  Al  Al1       1.0  0.34400  0.68900  0.03290  1.0000
  Al  Al2       1.0  0.36200  0.24100  0.12100  1.0000
  Al  Al3       1.0  0.87900  0.24100  0.12100  1.0000
  Al  Al4       1.0  0.87900  0.75900  0.12100  1.0000
  Al  Al5       1.0  0.65600  0.31100  0.34400  1.0000
  Al  Al6       1.0  0.03290  0.68900  0.34400  1.0000
  Al  Al7       1.0  0.65600  0.68900  0.34400  1.0000
  Al  Al8       1.0  0.12100  0.24100  0.36200  1.0000
  Al  Al9       1.0  0.87900  0.75900  0.63800  1.0000
  Al  Al10      1.0  0.96700  0.31100  0.65600  1.0000
  Al  Al11      1.0  0.34400  0.31100  0.65600  1.0000
  Al  Al12      1.0  0.34400  0.68900  0.65600  1.0000
  Al  Al13      1.0  0.12100  0.24100  0.87900  1.0000
  Al  Al14      1.0  0.12100  0.75900  0.87900  1.0000
  Al  Al15      1.0  0.63800  0.75900  0.87900  1.0000
  Al  Al16      1.0  0.65600  0.31100  0.96700  1.0000
  Ru  Ru1       1.0  0.00000  0.00000  0.00000  1.0000
  Ru  Ru2       1.0  0.50000  0.00000  0.00000  1.0000
  Ru  Ru3       1.0  0.00000  0.50000  0.00000  1.0000
  Ru  Ru4       1.0  0.50000  0.50000  0.00000  1.0000
  Ru  Ru5       1.0  0.00000  0.00000  0.50000  1.0000
  Ru  Ru6       1.0  0.00000  0.50000  0.50000  1.0000
  Ru  Ru7       1.0  0.50000  0.50000  0.50000  1.0000
  Ti  Ti1       1.0  0.71600  0.00000  0.28400  1.0000
  Ti  Ti2       1.0  0.28400  0.00000  0.28400  1.0000
  Ti  Ti3       1.0  0.28400  0.56900  0.28400  1.0000
  Ti  Ti4       1.0  0.71600  0.00000  0.71600  1.0000
  Ti  Ti5       1.0  0.28400  0.00000  0.71600  1.0000
  Ti  Ti6       1.0  0.71600  0.43100  0.71600  1.0000
