data_image0
_chemical_formula_structural       Ga16Ir7Ti6
_chemical_formula_sum              "Ga16 Ir7 Ti6"
_cell_length_a       8.6354
_cell_length_b       8.6354
_cell_length_c       8.6354
_cell_angle_alpha    120
_cell_angle_beta     90
_cell_angle_gamma    120

_space_group_name_H-M_alt    "P 1"
_space_group_IT_number       1

loop_
  _space_group_symop_operation_xyz
  'x, y, z'

loop_
  _atom_site_type_symbol
  _atom_site_label
  _atom_site_symmetry_multiplicity
  _atom_site_fract_x
  _atom_site_fract_y
  _atom_site_fract_z
  _atom_site_occupancy
  Ga  Ga1       1.0  0.35200  0.70400  0.05530  1.0000
  Ga  Ga2       1.0  0.36800  0.24600  0.12300  1.0000
  Ga  Ga3       1.0  0.87700  0.24600  0.12300  1.0000
  Ga  Ga4       1.0  0.87700  0.75400  0.12300  1.0000
  Ga  Ga5       1.0  0.64800  0.29600  0.35200  1.0000
  Ga  Ga6       1.0  0.05530  0.70400  0.35200  1.0000
  Ga  Ga7       1.0  0.64800  0.70400  0.35200  1.0000
  Ga  Ga8       1.0  0.12300  0.24600  0.36800  1.0000
  Ga  Ga9       1.0  0.87700  0.75400  0.63200  1.0000
  Ga  Ga10      1.0  0.35200  0.29600  0.64800  1.0000
  Ga  Ga11      1.0  0.35200  0.70400  0.64800  1.0000
  Ga  Ga12      1.0  0.94500  0.29600  0.64800  1.0000
  Ga  Ga13      1.0  0.12300  0.24600  0.87700  1.0000
  Ga  Ga14      1.0  0.12300  0.75400  0.87700  1.0000
  Ga  Ga15      1.0  0.63200  0.75400  0.87700  1.0000
  Ga  Ga16      1.0  0.64800  0.29600  0.94500  1.0000
  Ir  Ir1       1.0  0.00000  0.00000  0.00000  1.0000
  Ir  Ir2       1.0  0.50000  0.00000  0.00000  1.0000
  Ir  Ir3       1.0  0.00000  0.50000  0.00000  1.0000
  Ir  Ir4       1.0  0.50000  0.50000  0.00000  1.0000
  Ir  Ir5       1.0  0.00000  0.00000  0.50000  1.0000
  Ir  Ir6       1.0  0.00000  0.50000  0.50000  1.0000
  Ir  Ir7       1.0  0.50000  0.50000  0.50000  1.0000
  Ti  Ti1       1.0  0.30700  0.00000  0.30700  1.0000
  Ti  Ti2       1.0  0.30700  0.61500  0.30700  1.0000
  Ti  Ti3       1.0  0.69300  0.00000  0.30700  1.0000
  Ti  Ti4       1.0  0.30700  0.00000  0.69300  1.0000
  Ti  Ti5       1.0  0.69300  0.00000  0.69300  1.0000
  Ti  Ti6       1.0  0.69300  0.38500  0.69300  1.0000
