data_image0
_chemical_formula_structural       Al16Ru7Sc6
_chemical_formula_sum              "Al16 Ru7 Sc6"
_cell_length_a       8.75105
_cell_length_b       8.75105
_cell_length_c       8.75105
_cell_angle_alpha    120
_cell_angle_beta     90
_cell_angle_gamma    120

_space_group_name_H-M_alt    "P 1"
_space_group_IT_number       1

loop_
  _space_group_symop_operation_xyz
  'x, y, z'

loop_
  _atom_site_type_symbol
  _atom_site_label
  _atom_site_symmetry_multiplicity
  _atom_site_fract_x
  _atom_site_fract_y
  _atom_site_fract_z
  _atom_site_occupancy
  Al  Al1       1.0  0.33600  0.67200  0.00730  1.0000
  Al  Al2       1.0  0.88000  0.75900  0.12000  1.0000
  Al  Al3       1.0  0.36100  0.24100  0.12000  1.0000
  Al  Al4       1.0  0.88000  0.24100  0.12000  1.0000
  Al  Al5       1.0  0.66400  0.32800  0.33600  1.0000
  Al  Al6       1.0  0.00730  0.67200  0.33600  1.0000
  Al  Al7       1.0  0.66400  0.67200  0.33600  1.0000
  Al  Al8       1.0  0.12000  0.24100  0.36100  1.0000
  Al  Al9       1.0  0.88000  0.75900  0.63900  1.0000
  Al  Al10      1.0  0.33600  0.67200  0.66400  1.0000
  Al  Al11      1.0  0.33600  0.32800  0.66400  1.0000
  Al  Al12      1.0  0.99300  0.32800  0.66400  1.0000
  Al  Al13      1.0  0.12000  0.24100  0.88000  1.0000
  Al  Al14      1.0  0.12000  0.75900  0.88000  1.0000
  Al  Al15      1.0  0.63900  0.75900  0.88000  1.0000
  Al  Al16      1.0  0.66400  0.32800  0.99300  1.0000
  Ru  Ru1       1.0  0.00000  0.00000  0.00000  1.0000
  Ru  Ru2       1.0  0.50000  0.00000  0.00000  1.0000
  Ru  Ru3       1.0  0.00000  0.50000  0.00000  1.0000
  Ru  Ru4       1.0  0.50000  0.50000  0.00000  1.0000
  Ru  Ru5       1.0  0.00000  0.50000  0.50000  1.0000
  Ru  Ru6       1.0  0.50000  0.50000  0.50000  1.0000
  Ru  Ru7       1.0  0.00000  0.00000  0.50000  1.0000
  Sc  Sc1       1.0  0.29000  0.58000  0.29000  1.0000
  Sc  Sc2       1.0  0.29000  0.00000  0.29000  1.0000
  Sc  Sc3       1.0  0.71000  0.00000  0.29000  1.0000
  Sc  Sc4       1.0  0.29000  0.00000  0.71000  1.0000
  Sc  Sc5       1.0  0.71000  0.00000  0.71000  1.0000
  Sc  Sc6       1.0  0.71000  0.42000  0.71000  1.0000
