data_image0
_chemical_formula_structural       CCl18Rb4Zr6
_chemical_formula_sum              "C1 Cl18 Rb4 Zr6"
_cell_length_a       10.0254
_cell_length_b       10.3666
_cell_length_c       10.3666
_cell_angle_alpha    117.494
_cell_angle_beta     102.64
_cell_angle_gamma    102.64

_space_group_name_H-M_alt    "P 1"
_space_group_IT_number       1

loop_
  _space_group_symop_operation_xyz
  'x, y, z'

loop_
  _atom_site_type_symbol
  _atom_site_label
  _atom_site_symmetry_multiplicity
  _atom_site_fract_x
  _atom_site_fract_y
  _atom_site_fract_z
  _atom_site_occupancy
  C   C1        1.0  0.00000  0.00000  0.00000  1.0000
  Cl  Cl1       1.0  0.68000  0.87300  0.07740  1.0000
  Cl  Cl2       1.0  0.32400  0.50500  0.11200  1.0000
  Cl  Cl3       1.0  0.32000  0.92300  0.12700  1.0000
  Cl  Cl4       1.0  0.00619  0.39600  0.19100  1.0000
  Cl  Cl5       1.0  0.00000  0.79600  0.20400  1.0000
  Cl  Cl6       1.0  0.69700  0.26000  0.26000  1.0000
  Cl  Cl7       1.0  0.32600  0.31900  0.31900  1.0000
  Cl  Cl8       1.0  0.00619  0.19100  0.39600  1.0000
  Cl  Cl9       1.0  0.67600  0.88800  0.49500  1.0000
  Cl  Cl10      1.0  0.32400  0.11200  0.50500  1.0000
  Cl  Cl11      1.0  0.99400  0.80900  0.60400  1.0000
  Cl  Cl12      1.0  0.67400  0.68100  0.68100  1.0000
  Cl  Cl13      1.0  0.30300  0.74000  0.74000  1.0000
  Cl  Cl14      1.0  0.00000  0.20400  0.79600  1.0000
  Cl  Cl15      1.0  0.99400  0.60400  0.80900  1.0000
  Cl  Cl16      1.0  0.68000  0.07740  0.87300  1.0000
  Cl  Cl17      1.0  0.67600  0.49500  0.88800  1.0000
  Cl  Cl18      1.0  0.32000  0.12700  0.92300  1.0000
  Rb  Rb1       1.0  0.68300  0.55500  0.23100  1.0000
  Rb  Rb2       1.0  0.31700  0.76900  0.44500  1.0000
  Rb  Rb3       1.0  0.68300  0.23100  0.55500  1.0000
  Rb  Rb4       1.0  0.31700  0.44500  0.76900  1.0000
  Zr  Zr1       1.0  0.14800  0.23500  0.05150  1.0000
  Zr  Zr2       1.0  0.85600  0.12100  0.12100  1.0000
  Zr  Zr3       1.0  0.14800  0.05150  0.23500  1.0000
  Zr  Zr4       1.0  0.85200  0.94900  0.76500  1.0000
  Zr  Zr5       1.0  0.14400  0.87900  0.87900  1.0000
  Zr  Zr6       1.0  0.85200  0.76500  0.94900  1.0000
