data_image0
_chemical_formula_structural       Al16Os7Zr6
_chemical_formula_sum              "Al16 Os7 Zr6"
_cell_length_a       8.75761
_cell_length_b       8.75761
_cell_length_c       8.75761
_cell_angle_alpha    120
_cell_angle_beta     90
_cell_angle_gamma    120

_space_group_name_H-M_alt    "P 1"
_space_group_IT_number       1

loop_
  _space_group_symop_operation_xyz
  'x, y, z'

loop_
  _atom_site_type_symbol
  _atom_site_label
  _atom_site_symmetry_multiplicity
  _atom_site_fract_x
  _atom_site_fract_y
  _atom_site_fract_z
  _atom_site_occupancy
  Al  Al1       1.0  0.33700  0.67300  0.00981  1.0000
  Al  Al2       1.0  0.88000  0.76000  0.12000  1.0000
  Al  Al3       1.0  0.36000  0.24000  0.12000  1.0000
  Al  Al4       1.0  0.88000  0.24000  0.12000  1.0000
  Al  Al5       1.0  0.66300  0.32700  0.33700  1.0000
  Al  Al6       1.0  0.00981  0.67300  0.33700  1.0000
  Al  Al7       1.0  0.66300  0.67300  0.33700  1.0000
  Al  Al8       1.0  0.12000  0.24000  0.36000  1.0000
  Al  Al9       1.0  0.88000  0.76000  0.64000  1.0000
  Al  Al10      1.0  0.99000  0.32700  0.66300  1.0000
  Al  Al11      1.0  0.33700  0.32700  0.66300  1.0000
  Al  Al12      1.0  0.33700  0.67300  0.66300  1.0000
  Al  Al13      1.0  0.12000  0.24000  0.88000  1.0000
  Al  Al14      1.0  0.12000  0.76000  0.88000  1.0000
  Al  Al15      1.0  0.64000  0.76000  0.88000  1.0000
  Al  Al16      1.0  0.66300  0.32700  0.99000  1.0000
  Os  Os1       1.0  0.00000  0.00000  0.00000  1.0000
  Os  Os2       1.0  0.50000  0.00000  0.00000  1.0000
  Os  Os3       1.0  0.00000  0.50000  0.00000  1.0000
  Os  Os4       1.0  0.50000  0.50000  0.00000  1.0000
  Os  Os5       1.0  0.00000  0.00000  0.50000  1.0000
  Os  Os6       1.0  0.00000  0.50000  0.50000  1.0000
  Os  Os7       1.0  0.50000  0.50000  0.50000  1.0000
  Zr  Zr1       1.0  0.29200  0.00000  0.29200  1.0000
  Zr  Zr2       1.0  0.29200  0.58400  0.29200  1.0000
  Zr  Zr3       1.0  0.70800  0.00000  0.29200  1.0000
  Zr  Zr4       1.0  0.29200  0.00000  0.70800  1.0000
  Zr  Zr5       1.0  0.70800  0.00000  0.70800  1.0000
  Zr  Zr6       1.0  0.70800  0.41600  0.70800  1.0000
