data_image0
_chemical_formula_structural       Br16Cl4Sr10
_chemical_formula_sum              "Br16 Cl4 Sr10"
_cell_length_a       11.5617
_cell_length_b       11.5617
_cell_length_c       7.11811
_cell_angle_alpha    90
_cell_angle_beta     90
_cell_angle_gamma    90

_space_group_name_H-M_alt    "P 1"
_space_group_IT_number       1

loop_
  _space_group_symop_operation_xyz
  'x, y, z'

loop_
  _atom_site_type_symbol
  _atom_site_label
  _atom_site_symmetry_multiplicity
  _atom_site_fract_x
  _atom_site_fract_y
  _atom_site_fract_z
  _atom_site_occupancy
  Br  Br1       1.0  0.16000  0.04080  0.10100  1.0000
  Br  Br2       1.0  0.45900  0.16000  0.10100  1.0000
  Br  Br3       1.0  0.04080  0.34000  0.10100  1.0000
  Br  Br4       1.0  0.34000  0.45900  0.10100  1.0000
  Br  Br5       1.0  0.84500  0.53700  0.37700  1.0000
  Br  Br6       1.0  0.53700  0.65500  0.37700  1.0000
  Br  Br7       1.0  0.96300  0.84500  0.37700  1.0000
  Br  Br8       1.0  0.65500  0.96300  0.37700  1.0000
  Br  Br9       1.0  0.34500  0.03710  0.62300  1.0000
  Br  Br10      1.0  0.03710  0.15500  0.62300  1.0000
  Br  Br11      1.0  0.46300  0.34500  0.62300  1.0000
  Br  Br12      1.0  0.15500  0.46300  0.62300  1.0000
  Br  Br13      1.0  0.66000  0.54100  0.89900  1.0000
  Br  Br14      1.0  0.95900  0.66000  0.89900  1.0000
  Br  Br15      1.0  0.54100  0.84000  0.89900  1.0000
  Br  Br16      1.0  0.84000  0.95900  0.89900  1.0000
  Cl  Cl1       1.0  0.75000  0.25000  0.00000  1.0000
  Cl  Cl2       1.0  0.25000  0.75000  0.00000  1.0000
  Cl  Cl3       1.0  0.75000  0.25000  0.50000  1.0000
  Cl  Cl4       1.0  0.25000  0.75000  0.50000  1.0000
  Sr  Sr1       1.0  0.75000  0.75000  0.14700  1.0000
  Sr  Sr2       1.0  0.90500  0.10800  0.24900  1.0000
  Sr  Sr3       1.0  0.59500  0.39200  0.24900  1.0000
  Sr  Sr4       1.0  0.10800  0.59500  0.24900  1.0000
  Sr  Sr5       1.0  0.39200  0.90500  0.24900  1.0000
  Sr  Sr6       1.0  0.60800  0.09450  0.75100  1.0000
  Sr  Sr7       1.0  0.89200  0.40500  0.75100  1.0000
  Sr  Sr8       1.0  0.40500  0.60800  0.75100  1.0000
  Sr  Sr9       1.0  0.09450  0.89200  0.75100  1.0000
  Sr  Sr10      1.0  0.25000  0.25000  0.85300  1.0000
