data_image0
_chemical_formula_structural       Cs4F20O2Sb4
_chemical_formula_sum              "Cs4 F20 O2 Sb4"
_cell_length_a       7.16868
_cell_length_b       5.00173
_cell_length_c       13.4077
_cell_angle_alpha    90
_cell_angle_beta     100.245
_cell_angle_gamma    90

_space_group_name_H-M_alt    "P 1"
_space_group_IT_number       1

loop_
  _space_group_symop_operation_xyz
  'x, y, z'

loop_
  _atom_site_type_symbol
  _atom_site_label
  _atom_site_symmetry_multiplicity
  _atom_site_fract_x
  _atom_site_fract_y
  _atom_site_fract_z
  _atom_site_occupancy
  Cs  Cs1       1.0  0.75600  0.61200  0.08820  1.0000
  Cs  Cs2       1.0  0.24400  0.61200  0.41200  1.0000
  Cs  Cs3       1.0  0.75600  0.38800  0.58800  1.0000
  Cs  Cs4       1.0  0.24400  0.38800  0.91200  1.0000
  F   F1        1.0  0.35200  0.86500  0.04280  1.0000
  F   F2        1.0  0.06320  0.16400  0.08180  1.0000
  F   F3        1.0  0.41900  0.33000  0.14000  1.0000
  F   F4        1.0  0.14100  0.69400  0.17900  1.0000
  F   F5        1.0  0.80100  0.15400  0.21800  1.0000
  F   F6        1.0  0.19900  0.15400  0.28200  1.0000
  F   F7        1.0  0.85900  0.69400  0.32100  1.0000
  F   F8        1.0  0.58100  0.33000  0.36000  1.0000
  F   F9        1.0  0.93700  0.16400  0.41800  1.0000
  F   F10       1.0  0.64800  0.86500  0.45700  1.0000
  F   F11       1.0  0.35200  0.13500  0.54300  1.0000
  F   F12       1.0  0.06320  0.83600  0.58200  1.0000
  F   F13       1.0  0.41900  0.67000  0.64000  1.0000
  F   F14       1.0  0.14100  0.30600  0.67900  1.0000
  F   F15       1.0  0.80100  0.84600  0.71800  1.0000
  F   F16       1.0  0.19900  0.84600  0.78200  1.0000
  F   F17       1.0  0.85900  0.30600  0.82100  1.0000
  F   F18       1.0  0.58100  0.67000  0.86000  1.0000
  F   F19       1.0  0.93700  0.83600  0.91800  1.0000
  F   F20       1.0  0.64800  0.13500  0.95700  1.0000
  O   O1        1.0  0.50000  0.84500  0.25000  1.0000
  O   O2        1.0  0.50000  0.15500  0.75000  1.0000
  Sb  Sb1       1.0  0.28400  0.01260  0.16500  1.0000
  Sb  Sb2       1.0  0.71600  0.01260  0.33500  1.0000
  Sb  Sb3       1.0  0.28400  0.98700  0.66500  1.0000
  Sb  Sb4       1.0  0.71600  0.98700  0.83500  1.0000
