data_image0
_chemical_formula_structural       As4H8O16Zn
_chemical_formula_sum              "As4 H8 O16 Zn1"
_cell_length_a       5.30928
_cell_length_b       7.35961
_cell_length_c       7.70822
_cell_angle_alpha    97.8397
_cell_angle_beta     98.3357
_cell_angle_gamma    92.51

_space_group_name_H-M_alt    "P 1"
_space_group_IT_number       1

loop_
  _space_group_symop_operation_xyz
  'x, y, z'

loop_
  _atom_site_type_symbol
  _atom_site_label
  _atom_site_symmetry_multiplicity
  _atom_site_fract_x
  _atom_site_fract_y
  _atom_site_fract_z
  _atom_site_occupancy
  As  As1       1.0  0.57200  0.19100  0.20900  1.0000
  As  As2       1.0  0.92800  0.70800  0.26800  1.0000
  As  As3       1.0  0.07170  0.29200  0.73200  1.0000
  As  As4       1.0  0.42800  0.80900  0.79100  1.0000
  H   H1        1.0  0.99900  0.40400  0.18300  1.0000
  H   H2        1.0  0.38100  0.46000  0.29400  1.0000
  H   H3        1.0  0.38800  0.95200  0.31100  1.0000
  H   H4        1.0  0.24500  0.31600  0.48000  1.0000
  H   H5        1.0  0.75500  0.68400  0.52000  1.0000
  H   H6        1.0  0.61200  0.04810  0.68900  1.0000
  H   H7        1.0  0.61900  0.54000  0.70600  1.0000
  H   H8        1.0  0.00101  0.59600  0.81700  1.0000
  O   O1        1.0  0.32700  0.15300  0.03280  1.0000
  O   O2        1.0  0.85200  0.22400  0.13800  1.0000
  O   O3        1.0  0.62700  0.64900  0.15700  1.0000
  O   O4        1.0  0.11700  0.52400  0.21300  1.0000
  O   O5        1.0  0.09800  0.89700  0.23700  1.0000
  O   O6        1.0  0.56900  0.01500  0.33600  1.0000
  O   O7        1.0  0.51200  0.38300  0.35700  1.0000
  O   O8        1.0  0.92500  0.72500  0.49700  1.0000
  O   O9        1.0  0.07450  0.27500  0.50300  1.0000
  O   O10       1.0  0.48800  0.61700  0.64300  1.0000
  O   O11       1.0  0.43100  0.98500  0.66400  1.0000
  O   O12       1.0  0.90200  0.10300  0.76300  1.0000
  O   O13       1.0  0.88300  0.47600  0.78700  1.0000
  O   O14       1.0  0.37300  0.35100  0.84300  1.0000
  O   O15       1.0  0.14800  0.77600  0.86200  1.0000
  O   O16       1.0  0.67300  0.84700  0.96700  1.0000
  Zn  Zn1       1.0  0.00000  0.00000  0.00000  1.0000
