data_image0
_chemical_formula_structural       O11Sr4V4
_chemical_formula_sum              "O11 Sr4 V4"
_cell_length_a       5.54581
_cell_length_b       5.54085
_cell_length_c       7.67574
_cell_angle_alpha    90
_cell_angle_beta     90
_cell_angle_gamma    88.8869

_space_group_name_H-M_alt    "P 1"
_space_group_IT_number       1

loop_
  _space_group_symop_operation_xyz
  'x, y, z'

loop_
  _atom_site_type_symbol
  _atom_site_label
  _atom_site_symmetry_multiplicity
  _atom_site_fract_x
  _atom_site_fract_y
  _atom_site_fract_z
  _atom_site_occupancy
  O   O1        1.0  0.25500  0.23000  0.00709  1.0000
  O   O2        1.0  0.74200  0.25500  0.02280  1.0000
  O   O3        1.0  0.74000  0.76700  0.03020  1.0000
  O   O4        1.0  0.02410  0.50300  0.25000  1.0000
  O   O5        1.0  0.74000  0.76700  0.47000  1.0000
  O   O6        1.0  0.74200  0.25500  0.47700  1.0000
  O   O7        1.0  0.25500  0.23000  0.49300  1.0000
  O   O8        1.0  0.25600  0.74600  0.50600  1.0000
  O   O9        1.0  0.53700  0.00884  0.75000  1.0000
  O   O10       1.0  0.97700  0.49900  0.75000  1.0000
  O   O11       1.0  0.25600  0.74600  0.99400  1.0000
  Sr  Sr1       1.0  0.00000  0.00268  0.25000  1.0000
  Sr  Sr2       1.0  0.49600  0.50000  0.25000  1.0000
  Sr  Sr3       1.0  0.49900  0.49600  0.75000  1.0000
  Sr  Sr4       1.0  0.00362  0.99800  0.75000  1.0000
  V   V1        1.0  0.99800  0.49900  0.00488  1.0000
  V   V2        1.0  0.99800  0.49900  0.49500  1.0000
  V   V3        1.0  0.50200  0.99900  0.50500  1.0000
  V   V4        1.0  0.50200  0.99900  0.99500  1.0000
