data_image0
_chemical_formula_structural       I18Rb6V6
_chemical_formula_sum              "I18 Rb6 V6"
_cell_length_a       14.0131
_cell_length_b       14.0131
_cell_length_c       6.99856
_cell_angle_alpha    90
_cell_angle_beta     90
_cell_angle_gamma    120.001

_space_group_name_H-M_alt    "P 1"
_space_group_IT_number       1

loop_
  _space_group_symop_operation_xyz
  'x, y, z'

loop_
  _atom_site_type_symbol
  _atom_site_label
  _atom_site_symmetry_multiplicity
  _atom_site_fract_x
  _atom_site_fract_y
  _atom_site_fract_z
  _atom_site_occupancy
  I   I1        1.0  0.84000  0.84000  0.24300  1.0000
  I   I2        1.0  0.16000  0.00000  0.24300  1.0000
  I   I3        1.0  0.00000  0.16000  0.24300  1.0000
  I   I4        1.0  0.82700  0.33300  0.34800  1.0000
  I   I5        1.0  0.33300  0.82700  0.34800  1.0000
  I   I6        1.0  0.50600  0.17400  0.34800  1.0000
  I   I7        1.0  0.17400  0.50600  0.34800  1.0000
  I   I8        1.0  0.66700  0.49400  0.34800  1.0000
  I   I9        1.0  0.49400  0.66700  0.34800  1.0000
  I   I10       1.0  0.16000  0.16000  0.74300  1.0000
  I   I11       1.0  0.84000  0.00000  0.74300  1.0000
  I   I12       1.0  0.00000  0.84000  0.74300  1.0000
  I   I13       1.0  0.66700  0.17300  0.84800  1.0000
  I   I14       1.0  0.17300  0.66700  0.84800  1.0000
  I   I15       1.0  0.82600  0.49400  0.84800  1.0000
  I   I16       1.0  0.49400  0.82600  0.84800  1.0000
  I   I17       1.0  0.50600  0.33300  0.84800  1.0000
  I   I18       1.0  0.33300  0.50600  0.84800  1.0000
  Rb  Rb1       1.0  0.66600  0.00000  0.29900  1.0000
  Rb  Rb2       1.0  0.00000  0.66600  0.29900  1.0000
  Rb  Rb3       1.0  0.33400  0.33400  0.29900  1.0000
  Rb  Rb4       1.0  0.33400  0.00000  0.79900  1.0000
  Rb  Rb5       1.0  0.00000  0.33400  0.79900  1.0000
  Rb  Rb6       1.0  0.66600  0.66600  0.79900  1.0000
  V   V1        1.0  0.66700  0.33300  0.09660  1.0000
  V   V2        1.0  0.33300  0.66700  0.09660  1.0000
  V   V3        1.0  0.00000  0.00000  0.49500  1.0000
  V   V4        1.0  0.66700  0.33300  0.59700  1.0000
  V   V5        1.0  0.33300  0.66700  0.59700  1.0000
  V   V6        1.0  0.00000  0.00000  0.99500  1.0000
