data_image0
_chemical_formula_structural       Cu4O12Se4
_chemical_formula_sum              "Cu4 O12 Se4"
_cell_length_a       5.94607
_cell_length_b       7.22833
_cell_length_c       5.27426
_cell_angle_alpha    90
_cell_angle_beta     90
_cell_angle_gamma    90

_space_group_name_H-M_alt    "P 1"
_space_group_IT_number       1

loop_
  _space_group_symop_operation_xyz
  'x, y, z'

loop_
  _atom_site_type_symbol
  _atom_site_label
  _atom_site_symmetry_multiplicity
  _atom_site_fract_x
  _atom_site_fract_y
  _atom_site_fract_z
  _atom_site_occupancy
  Cu  Cu1       1.0  0.50000  0.00000  0.00000  1.0000
  Cu  Cu2       1.0  0.50000  0.50000  0.00000  1.0000
  Cu  Cu3       1.0  0.00000  0.00000  0.50000  1.0000
  Cu  Cu4       1.0  0.00000  0.50000  0.50000  1.0000
  O   O1        1.0  0.80100  0.56800  0.10100  1.0000
  O   O2        1.0  0.80100  0.93200  0.10100  1.0000
  O   O3        1.0  0.56300  0.25000  0.15900  1.0000
  O   O4        1.0  0.06280  0.25000  0.34100  1.0000
  O   O5        1.0  0.30100  0.56800  0.39900  1.0000
  O   O6        1.0  0.30100  0.93200  0.39900  1.0000
  O   O7        1.0  0.69900  0.06790  0.60100  1.0000
  O   O8        1.0  0.69900  0.43200  0.60100  1.0000
  O   O9        1.0  0.93700  0.75000  0.65900  1.0000
  O   O10       1.0  0.43700  0.75000  0.84100  1.0000
  O   O11       1.0  0.19900  0.06790  0.89900  1.0000
  O   O12       1.0  0.19900  0.43200  0.89900  1.0000
  Se  Se1       1.0  0.03040  0.25000  0.00135  1.0000
  Se  Se2       1.0  0.53000  0.25000  0.49900  1.0000
  Se  Se3       1.0  0.47000  0.75000  0.50100  1.0000
  Se  Se4       1.0  0.97000  0.75000  0.99900  1.0000
