data_image0
_chemical_formula_structural       Cd6Cl18Cs6
_chemical_formula_sum              "Cd6 Cl18 Cs6"
_cell_length_a       7.46044
_cell_length_b       7.46033
_cell_length_c       18.633
_cell_angle_alpha    90
_cell_angle_beta     90
_cell_angle_gamma    120

_space_group_name_H-M_alt    "P 1"
_space_group_IT_number       1

loop_
  _space_group_symop_operation_xyz
  'x, y, z'

loop_
  _atom_site_type_symbol
  _atom_site_label
  _atom_site_symmetry_multiplicity
  _atom_site_fract_x
  _atom_site_fract_y
  _atom_site_fract_z
  _atom_site_occupancy
  Cd  Cd1       1.0  0.00000  0.00000  0.00000  1.0000
  Cd  Cd2       1.0  0.66700  0.33300  0.16100  1.0000
  Cd  Cd3       1.0  0.66700  0.33300  0.33900  1.0000
  Cd  Cd4       1.0  0.00000  0.00000  0.50000  1.0000
  Cd  Cd5       1.0  0.33300  0.66700  0.66100  1.0000
  Cd  Cd6       1.0  0.33300  0.66700  0.83900  1.0000
  Cl  Cl1       1.0  0.33200  0.16600  0.08150  1.0000
  Cl  Cl2       1.0  0.83400  0.16600  0.08150  1.0000
  Cl  Cl3       1.0  0.83400  0.66800  0.08150  1.0000
  Cl  Cl4       1.0  0.50400  0.00882  0.25000  1.0000
  Cl  Cl5       1.0  0.50400  0.49600  0.25000  1.0000
  Cl  Cl6       1.0  0.99100  0.49600  0.25000  1.0000
  Cl  Cl7       1.0  0.83400  0.66800  0.41900  1.0000
  Cl  Cl8       1.0  0.33200  0.16600  0.41900  1.0000
  Cl  Cl9       1.0  0.83400  0.16600  0.41900  1.0000
  Cl  Cl10      1.0  0.16600  0.83400  0.58100  1.0000
  Cl  Cl11      1.0  0.66800  0.83400  0.58100  1.0000
  Cl  Cl12      1.0  0.16600  0.33200  0.58100  1.0000
  Cl  Cl13      1.0  0.00881  0.50400  0.75000  1.0000
  Cl  Cl14      1.0  0.49600  0.50400  0.75000  1.0000
  Cl  Cl15      1.0  0.49600  0.99100  0.75000  1.0000
  Cl  Cl16      1.0  0.16600  0.33200  0.91900  1.0000
  Cl  Cl17      1.0  0.16600  0.83400  0.91900  1.0000
  Cl  Cl18      1.0  0.66800  0.83400  0.91900  1.0000
  Cs  Cs1       1.0  0.33300  0.66700  0.08630  1.0000
  Cs  Cs2       1.0  0.00000  0.00000  0.25000  1.0000
  Cs  Cs3       1.0  0.33300  0.66700  0.41400  1.0000
  Cs  Cs4       1.0  0.66700  0.33300  0.58600  1.0000
  Cs  Cs5       1.0  0.00000  0.00000  0.75000  1.0000
  Cs  Cs6       1.0  0.66700  0.33300  0.91400  1.0000
