data_image0
_chemical_formula_structural       Na8S16Sn6
_chemical_formula_sum              "Na8 S16 Sn6"
_cell_length_a       6.78435
_cell_length_b       6.78435
_cell_length_c       17.7263
_cell_angle_alpha    93.849
_cell_angle_beta     93.849
_cell_angle_gamma    65.8707

_space_group_name_H-M_alt    "P 1"
_space_group_IT_number       1

loop_
  _space_group_symop_operation_xyz
  'x, y, z'

loop_
  _atom_site_type_symbol
  _atom_site_label
  _atom_site_symmetry_multiplicity
  _atom_site_fract_x
  _atom_site_fract_y
  _atom_site_fract_z
  _atom_site_occupancy
  Na  Na1       1.0  0.09860  0.42900  0.12600  1.0000
  Na  Na2       1.0  0.51600  0.76700  0.16300  1.0000
  Na  Na3       1.0  0.23300  0.48400  0.33700  1.0000
  Na  Na4       1.0  0.57100  0.90100  0.37400  1.0000
  Na  Na5       1.0  0.42900  0.09860  0.62600  1.0000
  Na  Na6       1.0  0.76700  0.51600  0.66300  1.0000
  Na  Na7       1.0  0.48400  0.23300  0.83700  1.0000
  Na  Na8       1.0  0.90100  0.57100  0.87400  1.0000
  S   S1        1.0  0.67500  0.73300  0.01500  1.0000
  S   S2        1.0  0.13000  0.82600  0.07400  1.0000
  S   S3        1.0  0.66000  0.30200  0.15000  1.0000
  S   S4        1.0  0.88600  0.74600  0.24900  1.0000
  S   S5        1.0  0.25400  0.11400  0.25100  1.0000
  S   S6        1.0  0.69800  0.34000  0.35000  1.0000
  S   S7        1.0  0.17400  0.87000  0.42600  1.0000
  S   S8        1.0  0.26700  0.32500  0.48500  1.0000
  S   S9        1.0  0.73300  0.67500  0.51500  1.0000
  S   S10       1.0  0.82600  0.13000  0.57400  1.0000
  S   S11       1.0  0.30200  0.66000  0.65000  1.0000
  S   S12       1.0  0.74600  0.88600  0.74900  1.0000
  S   S13       1.0  0.11400  0.25400  0.75100  1.0000
  S   S14       1.0  0.34000  0.69800  0.85000  1.0000
  S   S15       1.0  0.87000  0.17400  0.92600  1.0000
  S   S16       1.0  0.32500  0.26700  0.98500  1.0000
  Sn  Sn1       1.0  0.73000  0.06850  0.03220  1.0000
  Sn  Sn2       1.0  0.91700  0.08250  0.25000  1.0000
  Sn  Sn3       1.0  0.93100  0.27000  0.46800  1.0000
  Sn  Sn4       1.0  0.06850  0.73000  0.53200  1.0000
  Sn  Sn5       1.0  0.08250  0.91700  0.75000  1.0000
  Sn  Sn6       1.0  0.27000  0.93100  0.96800  1.0000
