data_image0
_chemical_formula_structural       O18Rb4Si6Sn2
_chemical_formula_sum              "O18 Rb4 Si6 Sn2"
_cell_length_a       6.95408
_cell_length_b       6.95411
_cell_length_c       10.0785
_cell_angle_alpha    90
_cell_angle_beta     90
_cell_angle_gamma    120

_space_group_name_H-M_alt    "P 1"
_space_group_IT_number       1

loop_
  _space_group_symop_operation_xyz
  'x, y, z'

loop_
  _atom_site_type_symbol
  _atom_site_label
  _atom_site_symmetry_multiplicity
  _atom_site_fract_x
  _atom_site_fract_y
  _atom_site_fract_z
  _atom_site_occupancy
  O   O1        1.0  0.76700  0.02250  0.11300  1.0000
  O   O2        1.0  0.25500  0.23300  0.11300  1.0000
  O   O3        1.0  0.97800  0.74500  0.11300  1.0000
  O   O4        1.0  0.48900  0.08520  0.25000  1.0000
  O   O5        1.0  0.91500  0.40400  0.25000  1.0000
  O   O6        1.0  0.59600  0.51100  0.25000  1.0000
  O   O7        1.0  0.76700  0.02250  0.38700  1.0000
  O   O8        1.0  0.25500  0.23300  0.38700  1.0000
  O   O9        1.0  0.97800  0.74500  0.38700  1.0000
  O   O10       1.0  0.02250  0.25500  0.61300  1.0000
  O   O11       1.0  0.74500  0.76700  0.61300  1.0000
  O   O12       1.0  0.23300  0.97800  0.61300  1.0000
  O   O13       1.0  0.40400  0.48900  0.75000  1.0000
  O   O14       1.0  0.08520  0.59600  0.75000  1.0000
  O   O15       1.0  0.51100  0.91500  0.75000  1.0000
  O   O16       1.0  0.02250  0.25500  0.88700  1.0000
  O   O17       1.0  0.74500  0.76700  0.88700  1.0000
  O   O18       1.0  0.23300  0.97800  0.88700  1.0000
  Rb  Rb1       1.0  0.33300  0.66700  0.05830  1.0000
  Rb  Rb2       1.0  0.33300  0.66700  0.44200  1.0000
  Rb  Rb3       1.0  0.66700  0.33300  0.55800  1.0000
  Rb  Rb4       1.0  0.66700  0.33300  0.94200  1.0000
  Si  Si1       1.0  0.74900  0.13200  0.25000  1.0000
  Si  Si2       1.0  0.38300  0.25100  0.25000  1.0000
  Si  Si3       1.0  0.86800  0.61700  0.25000  1.0000
  Si  Si4       1.0  0.13200  0.38300  0.75000  1.0000
  Si  Si5       1.0  0.61700  0.74900  0.75000  1.0000
  Si  Si6       1.0  0.25100  0.86800  0.75000  1.0000
  Sn  Sn1       1.0  0.00000  0.00000  0.00000  1.0000
  Sn  Sn2       1.0  0.00000  0.00000  0.50000  1.0000
