data_image0
_chemical_formula_structural       Fe7Ga16Zr6
_chemical_formula_sum              "Fe7 Ga16 Zr6"
_cell_length_a       8.59593
_cell_length_b       8.59593
_cell_length_c       8.59593
_cell_angle_alpha    120
_cell_angle_beta     90
_cell_angle_gamma    120

_space_group_name_H-M_alt    "P 1"
_space_group_IT_number       1

loop_
  _space_group_symop_operation_xyz
  'x, y, z'

loop_
  _atom_site_type_symbol
  _atom_site_label
  _atom_site_symmetry_multiplicity
  _atom_site_fract_x
  _atom_site_fract_y
  _atom_site_fract_z
  _atom_site_occupancy
  Fe  Fe1       1.0  0.00000  0.00000  0.00000  1.0000
  Fe  Fe2       1.0  0.50000  0.00000  0.00000  1.0000
  Fe  Fe3       1.0  0.00000  0.50000  0.00000  1.0000
  Fe  Fe4       1.0  0.50000  0.50000  0.00000  1.0000
  Fe  Fe5       1.0  0.00000  0.00000  0.50000  1.0000
  Fe  Fe6       1.0  0.00000  0.50000  0.50000  1.0000
  Fe  Fe7       1.0  0.50000  0.50000  0.50000  1.0000
  Ga  Ga1       1.0  0.34100  0.68200  0.02370  1.0000
  Ga  Ga2       1.0  0.36700  0.24500  0.12200  1.0000
  Ga  Ga3       1.0  0.87800  0.24500  0.12200  1.0000
  Ga  Ga4       1.0  0.87800  0.75500  0.12200  1.0000
  Ga  Ga5       1.0  0.65900  0.31800  0.34100  1.0000
  Ga  Ga6       1.0  0.02370  0.68200  0.34100  1.0000
  Ga  Ga7       1.0  0.65900  0.68200  0.34100  1.0000
  Ga  Ga8       1.0  0.12200  0.24500  0.36700  1.0000
  Ga  Ga9       1.0  0.87800  0.75500  0.63300  1.0000
  Ga  Ga10      1.0  0.34100  0.31800  0.65900  1.0000
  Ga  Ga11      1.0  0.97600  0.31800  0.65900  1.0000
  Ga  Ga12      1.0  0.34100  0.68200  0.65900  1.0000
  Ga  Ga13      1.0  0.12200  0.24500  0.87800  1.0000
  Ga  Ga14      1.0  0.12200  0.75500  0.87800  1.0000
  Ga  Ga15      1.0  0.63300  0.75500  0.87800  1.0000
  Ga  Ga16      1.0  0.65900  0.31800  0.97600  1.0000
  Zr  Zr1       1.0  0.29300  0.00000  0.29300  1.0000
  Zr  Zr2       1.0  0.70700  0.00000  0.29300  1.0000
  Zr  Zr3       1.0  0.29300  0.58600  0.29300  1.0000
  Zr  Zr4       1.0  0.29300  0.00000  0.70700  1.0000
  Zr  Zr5       1.0  0.70700  0.00000  0.70700  1.0000
  Zr  Zr6       1.0  0.70700  0.41400  0.70700  1.0000
