data_image0
_chemical_formula_structural       B6Ni20Zn3
_chemical_formula_sum              "B6 Ni20 Zn3"
_cell_length_a       7.44052
_cell_length_b       7.44052
_cell_length_c       7.44052
_cell_angle_alpha    120
_cell_angle_beta     90
_cell_angle_gamma    120

_space_group_name_H-M_alt    "P 1"
_space_group_IT_number       1

loop_
  _space_group_symop_operation_xyz
  'x, y, z'

loop_
  _atom_site_type_symbol
  _atom_site_label
  _atom_site_symmetry_multiplicity
  _atom_site_fract_x
  _atom_site_fract_y
  _atom_site_fract_z
  _atom_site_occupancy
  B   B1        1.0  0.72500  0.00000  0.27500  1.0000
  B   B2        1.0  0.27500  0.00000  0.27500  1.0000
  B   B3        1.0  0.27500  0.54900  0.27500  1.0000
  B   B4        1.0  0.27500  0.00000  0.72500  1.0000
  B   B5        1.0  0.72500  0.45100  0.72500  1.0000
  B   B6        1.0  0.72500  0.00000  0.72500  1.0000
  Ni  Ni1       1.0  0.33800  0.00000  0.00000  1.0000
  Ni  Ni2       1.0  0.66200  0.00000  0.00000  1.0000
  Ni  Ni3       1.0  0.00000  0.33800  0.00000  1.0000
  Ni  Ni4       1.0  0.33800  0.33800  0.00000  1.0000
  Ni  Ni5       1.0  0.00000  0.66200  0.00000  1.0000
  Ni  Ni6       1.0  0.66200  0.66200  0.00000  1.0000
  Ni  Ni7       1.0  0.38300  0.76700  0.15000  1.0000
  Ni  Ni8       1.0  0.00000  0.00000  0.33800  1.0000
  Ni  Ni9       1.0  0.00000  0.33800  0.33800  1.0000
  Ni  Ni10      1.0  0.33800  0.33800  0.33800  1.0000
  Ni  Ni11      1.0  0.61700  0.23300  0.38300  1.0000
  Ni  Ni12      1.0  0.15000  0.76700  0.38300  1.0000
  Ni  Ni13      1.0  0.61700  0.76700  0.38300  1.0000
  Ni  Ni14      1.0  0.38300  0.23300  0.61700  1.0000
  Ni  Ni15      1.0  0.38300  0.76700  0.61700  1.0000
  Ni  Ni16      1.0  0.85000  0.23300  0.61700  1.0000
  Ni  Ni17      1.0  0.00000  0.00000  0.66200  1.0000
  Ni  Ni18      1.0  0.00000  0.66200  0.66200  1.0000
  Ni  Ni19      1.0  0.66200  0.66200  0.66200  1.0000
  Ni  Ni20      1.0  0.61700  0.23300  0.85000  1.0000
  Zn  Zn1       1.0  0.00000  0.00000  0.00000  1.0000
  Zn  Zn2       1.0  0.75000  0.50000  0.25000  1.0000
  Zn  Zn3       1.0  0.25000  0.50000  0.75000  1.0000
