data_image0
_chemical_formula_structural       Cs6F18Mn6
_chemical_formula_sum              "Cs6 F18 Mn6"
_cell_length_a       6.12629
_cell_length_b       6.12624
_cell_length_c       14.9299
_cell_angle_alpha    90
_cell_angle_beta     90
_cell_angle_gamma    120

_space_group_name_H-M_alt    "P 1"
_space_group_IT_number       1

loop_
  _space_group_symop_operation_xyz
  'x, y, z'

loop_
  _atom_site_type_symbol
  _atom_site_label
  _atom_site_symmetry_multiplicity
  _atom_site_fract_x
  _atom_site_fract_y
  _atom_site_fract_z
  _atom_site_occupancy
  Cs  Cs1       1.0  0.33300  0.66700  0.09660  1.0000
  Cs  Cs2       1.0  0.00000  0.00000  0.25000  1.0000
  Cs  Cs3       1.0  0.33300  0.66700  0.40300  1.0000
  Cs  Cs4       1.0  0.66700  0.33300  0.59700  1.0000
  Cs  Cs5       1.0  0.00000  0.00000  0.75000  1.0000
  Cs  Cs6       1.0  0.66700  0.33300  0.90300  1.0000
  F   F1        1.0  0.33100  0.16600  0.07940  1.0000
  F   F2        1.0  0.83400  0.16600  0.07940  1.0000
  F   F3        1.0  0.83400  0.66900  0.07940  1.0000
  F   F4        1.0  0.51800  0.03530  0.25000  1.0000
  F   F5        1.0  0.51800  0.48200  0.25000  1.0000
  F   F6        1.0  0.96500  0.48200  0.25000  1.0000
  F   F7        1.0  0.83400  0.66900  0.42100  1.0000
  F   F8        1.0  0.33100  0.16600  0.42100  1.0000
  F   F9        1.0  0.83400  0.16600  0.42100  1.0000
  F   F10       1.0  0.16600  0.83400  0.57900  1.0000
  F   F11       1.0  0.66900  0.83400  0.57900  1.0000
  F   F12       1.0  0.16600  0.33100  0.57900  1.0000
  F   F13       1.0  0.03530  0.51800  0.75000  1.0000
  F   F14       1.0  0.48200  0.51800  0.75000  1.0000
  F   F15       1.0  0.48200  0.96500  0.75000  1.0000
  F   F16       1.0  0.16600  0.33100  0.92100  1.0000
  F   F17       1.0  0.16600  0.83400  0.92100  1.0000
  F   F18       1.0  0.66900  0.83400  0.92100  1.0000
  Mn  Mn1       1.0  0.00000  0.00000  0.00000  1.0000
  Mn  Mn2       1.0  0.66700  0.33300  0.15200  1.0000
  Mn  Mn3       1.0  0.66700  0.33300  0.34800  1.0000
  Mn  Mn4       1.0  0.00000  0.00000  0.50000  1.0000
  Mn  Mn5       1.0  0.33300  0.66700  0.65200  1.0000
  Mn  Mn6       1.0  0.33300  0.66700  0.84800  1.0000
