data_image0
_chemical_formula_structural       Ge4Na12Se14
_chemical_formula_sum              "Ge4 Na12 Se14"
_cell_length_a       7.28415
_cell_length_b       7.28415
_cell_length_c       15.9858
_cell_angle_alpha    99.2182
_cell_angle_beta     99.2182
_cell_angle_gamma    98.5344

_space_group_name_H-M_alt    "P 1"
_space_group_IT_number       1

loop_
  _space_group_symop_operation_xyz
  'x, y, z'

loop_
  _atom_site_type_symbol
  _atom_site_label
  _atom_site_symmetry_multiplicity
  _atom_site_fract_x
  _atom_site_fract_y
  _atom_site_fract_z
  _atom_site_occupancy
  Ge  Ge1       1.0  0.92400  0.76000  0.13900  1.0000
  Ge  Ge2       1.0  0.24000  0.07610  0.36100  1.0000
  Ge  Ge3       1.0  0.76000  0.92400  0.63900  1.0000
  Ge  Ge4       1.0  0.07610  0.24000  0.86100  1.0000
  Na  Na1       1.0  0.50000  0.50000  0.00000  1.0000
  Na  Na2       1.0  0.97200  0.26300  0.07300  1.0000
  Na  Na3       1.0  0.49300  0.04750  0.14100  1.0000
  Na  Na4       1.0  0.41900  0.58100  0.25000  1.0000
  Na  Na5       1.0  0.95300  0.50700  0.35900  1.0000
  Na  Na6       1.0  0.73700  0.02850  0.42700  1.0000
  Na  Na7       1.0  0.50000  0.50000  0.50000  1.0000
  Na  Na8       1.0  0.26300  0.97200  0.57300  1.0000
  Na  Na9       1.0  0.04750  0.49300  0.64100  1.0000
  Na  Na10      1.0  0.58100  0.41900  0.75000  1.0000
  Na  Na11      1.0  0.50700  0.95300  0.85900  1.0000
  Na  Na12      1.0  0.02850  0.73700  0.92700  1.0000
  Se  Se1       1.0  0.73600  0.87100  0.02790  1.0000
  Se  Se2       1.0  0.21100  0.68800  0.10300  1.0000
  Se  Se3       1.0  0.75200  0.49500  0.18000  1.0000
  Se  Se4       1.0  0.96000  0.04020  0.25000  1.0000
  Se  Se5       1.0  0.50500  0.24800  0.32000  1.0000
  Se  Se6       1.0  0.31200  0.78900  0.39700  1.0000
  Se  Se7       1.0  0.12900  0.26400  0.47200  1.0000
  Se  Se8       1.0  0.87100  0.73600  0.52800  1.0000
  Se  Se9       1.0  0.68800  0.21100  0.60300  1.0000
  Se  Se10      1.0  0.49500  0.75200  0.68000  1.0000
  Se  Se11      1.0  0.04020  0.96000  0.75000  1.0000
  Se  Se12      1.0  0.24800  0.50500  0.82000  1.0000
  Se  Se13      1.0  0.78900  0.31200  0.89700  1.0000
  Se  Se14      1.0  0.26400  0.12900  0.97200  1.0000
