data_image0
_chemical_formula_structural       Ca4O18Pb2Si6
_chemical_formula_sum              "Ca4 O18 Pb2 Si6"
_cell_length_a       6.70145
_cell_length_b       9.49959
_cell_length_c       6.66759
_cell_angle_alpha    110.294
_cell_angle_beta     102.898
_cell_angle_gamma    82.8892

_space_group_name_H-M_alt    "P 1"
_space_group_IT_number       1

loop_
  _space_group_symop_operation_xyz
  'x, y, z'

loop_
  _atom_site_type_symbol
  _atom_site_label
  _atom_site_symmetry_multiplicity
  _atom_site_fract_x
  _atom_site_fract_y
  _atom_site_fract_z
  _atom_site_occupancy
  Ca  Ca1       1.0  0.55700  0.83200  0.06920  1.0000
  Ca  Ca2       1.0  0.73000  0.50500  0.23800  1.0000
  Ca  Ca3       1.0  0.27000  0.49500  0.76200  1.0000
  Ca  Ca4       1.0  0.44300  0.16800  0.93100  1.0000
  O   O1        1.0  0.77000  0.25500  0.02740  1.0000
  O   O2        1.0  0.88900  0.87900  0.09430  1.0000
  O   O3        1.0  0.37500  0.43900  0.10300  1.0000
  O   O4        1.0  0.04100  0.62700  0.19400  1.0000
  O   O5        1.0  0.47600  0.09480  0.23700  1.0000
  O   O6        1.0  0.12400  0.40800  0.36100  1.0000
  O   O7        1.0  0.61500  0.76000  0.37200  1.0000
  O   O8        1.0  0.23000  0.87900  0.40000  1.0000
  O   O9        1.0  0.64200  0.36300  0.48900  1.0000
  O   O10       1.0  0.35800  0.63700  0.51100  1.0000
  O   O11       1.0  0.77000  0.12100  0.60000  1.0000
  O   O12       1.0  0.38500  0.24000  0.62800  1.0000
  O   O13       1.0  0.87600  0.59200  0.63900  1.0000
  O   O14       1.0  0.52400  0.90500  0.76300  1.0000
  O   O15       1.0  0.95900  0.37300  0.80600  1.0000
  O   O16       1.0  0.62500  0.56100  0.89700  1.0000
  O   O17       1.0  0.11100  0.12100  0.90600  1.0000
  O   O18       1.0  0.23000  0.74500  0.97300  1.0000
  Pb  Pb1       1.0  0.08710  0.15400  0.28500  1.0000
  Pb  Pb2       1.0  0.91300  0.84600  0.71500  1.0000
  Si  Si1       1.0  0.09340  0.78300  0.15800  1.0000
  Si  Si2       1.0  0.23200  0.51500  0.28100  1.0000
  Si  Si3       1.0  0.56100  0.20000  0.48200  1.0000
  Si  Si4       1.0  0.43900  0.80000  0.51800  1.0000
  Si  Si5       1.0  0.76800  0.48500  0.71900  1.0000
  Si  Si6       1.0  0.90700  0.21700  0.84200  1.0000
