data_image0
_chemical_formula_structural       Co8Ge14Zr8
_chemical_formula_sum              "Co8 Ge14 Zr8"
_cell_length_a       5.2412
_cell_length_b       9.73801
_cell_length_c       9.73801
_cell_angle_alpha    94.153
_cell_angle_beta     74.3887
_cell_angle_gamma    105.611

_space_group_name_H-M_alt    "P 1"
_space_group_IT_number       1

loop_
  _space_group_symop_operation_xyz
  'x, y, z'

loop_
  _atom_site_type_symbol
  _atom_site_label
  _atom_site_symmetry_multiplicity
  _atom_site_fract_x
  _atom_site_fract_y
  _atom_site_fract_z
  _atom_site_occupancy
  Co  Co1       1.0  0.39800  0.50000  0.20300  1.0000
  Co  Co2       1.0  0.89800  0.50000  0.20300  1.0000
  Co  Co3       1.0  0.39800  0.79700  0.50000  1.0000
  Co  Co4       1.0  0.89800  0.79700  0.50000  1.0000
  Co  Co5       1.0  0.10200  0.20300  0.50000  1.0000
  Co  Co6       1.0  0.60200  0.20300  0.50000  1.0000
  Co  Co7       1.0  0.10200  0.50000  0.79700  1.0000
  Co  Co8       1.0  0.60200  0.50000  0.79700  1.0000
  Ge  Ge1       1.0  0.24900  0.00000  0.00000  1.0000
  Ge  Ge2       1.0  0.75100  0.00000  0.00000  1.0000
  Ge  Ge3       1.0  0.70800  0.41600  0.00000  1.0000
  Ge  Ge4       1.0  0.29200  0.58400  0.00000  1.0000
  Ge  Ge5       1.0  0.00000  0.29300  0.29300  1.0000
  Ge  Ge6       1.0  0.70700  0.70700  0.29300  1.0000
  Ge  Ge7       1.0  0.50000  0.40600  0.40600  1.0000
  Ge  Ge8       1.0  0.09380  0.59400  0.40600  1.0000
  Ge  Ge9       1.0  0.29200  0.00000  0.41600  1.0000
  Ge  Ge10      1.0  0.70800  0.00000  0.58400  1.0000
  Ge  Ge11      1.0  0.90600  0.40600  0.59400  1.0000
  Ge  Ge12      1.0  0.50000  0.59400  0.59400  1.0000
  Ge  Ge13      1.0  0.29300  0.29300  0.70700  1.0000
  Ge  Ge14      1.0  0.00000  0.70700  0.70700  1.0000
  Zr  Zr1       1.0  0.13900  0.27800  0.00000  1.0000
  Zr  Zr2       1.0  0.86100  0.72200  0.00000  1.0000
  Zr  Zr3       1.0  0.50000  0.19600  0.19600  1.0000
  Zr  Zr4       1.0  0.30400  0.80400  0.19600  1.0000
  Zr  Zr5       1.0  0.86100  0.00000  0.27800  1.0000
  Zr  Zr6       1.0  0.13900  0.00000  0.72200  1.0000
  Zr  Zr7       1.0  0.69600  0.19600  0.80400  1.0000
  Zr  Zr8       1.0  0.50000  0.80400  0.80400  1.0000
