data_image0
_chemical_formula_structural       F12H12O4Zr2
_chemical_formula_sum              "F12 H12 O4 Zr2"
_cell_length_a       6.52711
_cell_length_b       6.77636
_cell_length_c       6.94982
_cell_angle_alpha    60.8222
_cell_angle_beta     99.5902
_cell_angle_gamma    109.982

_space_group_name_H-M_alt    "P 1"
_space_group_IT_number       1

loop_
  _space_group_symop_operation_xyz
  'x, y, z'

loop_
  _atom_site_type_symbol
  _atom_site_label
  _atom_site_symmetry_multiplicity
  _atom_site_fract_x
  _atom_site_fract_y
  _atom_site_fract_z
  _atom_site_occupancy
  F   F1        1.0  0.14200  0.68900  0.00867  1.0000
  F   F2        1.0  0.35800  0.30300  0.00867  1.0000
  F   F3        1.0  0.56200  0.91400  0.19200  1.0000
  F   F4        1.0  0.93800  0.89500  0.19200  1.0000
  F   F5        1.0  0.30700  0.99300  0.39800  1.0000
  F   F6        1.0  0.19300  0.60900  0.39800  1.0000
  F   F7        1.0  0.80700  0.39100  0.60200  1.0000
  F   F8        1.0  0.69300  0.00719  0.60200  1.0000
  F   F9        1.0  0.06220  0.10500  0.80800  1.0000
  F   F10       1.0  0.43800  0.08630  0.80800  1.0000
  F   F11       1.0  0.64200  0.69700  0.99100  1.0000
  F   F12       1.0  0.85800  0.31100  0.99100  1.0000
  H   H1        1.0  0.54400  0.51600  0.19600  1.0000
  H   H2        1.0  0.95600  0.28800  0.19600  1.0000
  H   H3        1.0  0.08570  0.39500  0.37200  1.0000
  H   H4        1.0  0.41400  0.23300  0.37200  1.0000
  H   H5        1.0  0.61800  0.40100  0.45900  1.0000
  H   H6        1.0  0.88200  0.14100  0.45900  1.0000
  H   H7        1.0  0.11800  0.85900  0.54100  1.0000
  H   H8        1.0  0.38200  0.59900  0.54100  1.0000
  H   H9        1.0  0.58600  0.76700  0.62800  1.0000
  H   H10       1.0  0.91400  0.60500  0.62800  1.0000
  H   H11       1.0  0.04350  0.71200  0.80400  1.0000
  H   H12       1.0  0.45600  0.48400  0.80400  1.0000
  O   O1        1.0  0.01200  0.24600  0.35400  1.0000
  O   O2        1.0  0.48800  0.40000  0.35400  1.0000
  O   O3        1.0  0.51200  0.60000  0.64600  1.0000
  O   O4        1.0  0.98800  0.75500  0.64600  1.0000
  Zr  Zr1       1.0  0.25000  0.94600  0.10700  1.0000
  Zr  Zr2       1.0  0.75000  0.05350  0.89300  1.0000
