data_image0
_chemical_formula_structural       Bi4Fe4Ga4O18
_chemical_formula_sum              "Bi4 Fe4 Ga4 O18"
_cell_length_a       7.93263
_cell_length_b       8.39946
_cell_length_c       5.95786
_cell_angle_alpha    90
_cell_angle_beta     90
_cell_angle_gamma    90

_space_group_name_H-M_alt    "P 1"
_space_group_IT_number       1

loop_
  _space_group_symop_operation_xyz
  'x, y, z'

loop_
  _atom_site_type_symbol
  _atom_site_label
  _atom_site_symmetry_multiplicity
  _atom_site_fract_x
  _atom_site_fract_y
  _atom_site_fract_z
  _atom_site_occupancy
  Bi  Bi1       1.0  0.67000  0.17300  0.00000  1.0000
  Bi  Bi2       1.0  0.17000  0.32700  0.00000  1.0000
  Bi  Bi3       1.0  0.83000  0.67300  0.00000  1.0000
  Bi  Bi4       1.0  0.33000  0.82700  0.00000  1.0000
  Fe  Fe1       1.0  0.00000  0.00000  0.25800  1.0000
  Fe  Fe2       1.0  0.50000  0.50000  0.25800  1.0000
  Fe  Fe3       1.0  0.00000  0.00000  0.74200  1.0000
  Fe  Fe4       1.0  0.50000  0.50000  0.74200  1.0000
  Ga  Ga1       1.0  0.35400  0.16500  0.50000  1.0000
  Ga  Ga2       1.0  0.85400  0.33500  0.50000  1.0000
  Ga  Ga3       1.0  0.14600  0.66500  0.50000  1.0000
  Ga  Ga4       1.0  0.64600  0.83500  0.50000  1.0000
  O   O1        1.0  0.15600  0.06570  0.00000  1.0000
  O   O2        1.0  0.65600  0.43400  0.00000  1.0000
  O   O3        1.0  0.34400  0.56600  0.00000  1.0000
  O   O4        1.0  0.84400  0.93400  0.00000  1.0000
  O   O5        1.0  0.87200  0.21000  0.24000  1.0000
  O   O6        1.0  0.37200  0.29000  0.24000  1.0000
  O   O7        1.0  0.62800  0.71000  0.24000  1.0000
  O   O8        1.0  0.12800  0.79000  0.24000  1.0000
  O   O9        1.0  0.50000  0.00000  0.50000  1.0000
  O   O10       1.0  0.13300  0.09670  0.50000  1.0000
  O   O11       1.0  0.63300  0.40300  0.50000  1.0000
  O   O12       1.0  0.00000  0.50000  0.50000  1.0000
  O   O13       1.0  0.36700  0.59700  0.50000  1.0000
  O   O14       1.0  0.86700  0.90300  0.50000  1.0000
  O   O15       1.0  0.87200  0.21000  0.76000  1.0000
  O   O16       1.0  0.37200  0.29000  0.76000  1.0000
  O   O17       1.0  0.62800  0.71000  0.76000  1.0000
  O   O18       1.0  0.12800  0.79000  0.76000  1.0000
