data_image0
_chemical_formula_structural       Ge7Mn6Ni16
_chemical_formula_sum              "Ge7 Mn6 Ni16"
_cell_length_a       7.97092
_cell_length_b       7.97092
_cell_length_c       7.97092
_cell_angle_alpha    120
_cell_angle_beta     90
_cell_angle_gamma    120

_space_group_name_H-M_alt    "P 1"
_space_group_IT_number       1

loop_
  _space_group_symop_operation_xyz
  'x, y, z'

loop_
  _atom_site_type_symbol
  _atom_site_label
  _atom_site_symmetry_multiplicity
  _atom_site_fract_x
  _atom_site_fract_y
  _atom_site_fract_z
  _atom_site_occupancy
  Ge  Ge1       1.0  0.00000  0.00000  0.00000  1.0000
  Ge  Ge2       1.0  0.50000  0.00000  0.00000  1.0000
  Ge  Ge3       1.0  0.00000  0.50000  0.00000  1.0000
  Ge  Ge4       1.0  0.50000  0.50000  0.00000  1.0000
  Ge  Ge5       1.0  0.00000  0.50000  0.50000  1.0000
  Ge  Ge6       1.0  0.50000  0.50000  0.50000  1.0000
  Ge  Ge7       1.0  0.00000  0.00000  0.50000  1.0000
  Mn  Mn1       1.0  0.31300  0.62600  0.31300  1.0000
  Mn  Mn2       1.0  0.31300  0.00000  0.31300  1.0000
  Mn  Mn3       1.0  0.68700  0.00000  0.31300  1.0000
  Mn  Mn4       1.0  0.31300  1.00000  0.68700  1.0000
  Mn  Mn5       1.0  0.68700  0.37400  0.68700  1.0000
  Mn  Mn6       1.0  0.68700  0.00000  0.68700  1.0000
  Ni  Ni1       1.0  0.33500  0.66900  0.00419  1.0000
  Ni  Ni2       1.0  0.35000  0.23400  0.11700  1.0000
  Ni  Ni3       1.0  0.88300  0.23400  0.11700  1.0000
  Ni  Ni4       1.0  0.88300  0.76600  0.11700  1.0000
  Ni  Ni5       1.0  0.66500  0.33100  0.33500  1.0000
  Ni  Ni6       1.0  0.00419  0.66900  0.33500  1.0000
  Ni  Ni7       1.0  0.66500  0.66900  0.33500  1.0000
  Ni  Ni8       1.0  0.11700  0.23400  0.35000  1.0000
  Ni  Ni9       1.0  0.88300  0.76600  0.65000  1.0000
  Ni  Ni10      1.0  0.33500  0.33100  0.66500  1.0000
  Ni  Ni11      1.0  0.99600  0.33100  0.66500  1.0000
  Ni  Ni12      1.0  0.33500  0.66900  0.66500  1.0000
  Ni  Ni13      1.0  0.11700  0.23400  0.88300  1.0000
  Ni  Ni14      1.0  0.11700  0.76600  0.88300  1.0000
  Ni  Ni15      1.0  0.65000  0.76600  0.88300  1.0000
  Ni  Ni16      1.0  0.66500  0.33100  0.99600  1.0000
