data_image0
_chemical_formula_structural       As4Cs4F20O2
_chemical_formula_sum              "As4 Cs4 F20 O2"
_cell_length_a       8.71458
_cell_length_b       10.1575
_cell_length_c       5.22874
_cell_angle_alpha    90
_cell_angle_beta     105.871
_cell_angle_gamma    90

_space_group_name_H-M_alt    "P 1"
_space_group_IT_number       1

loop_
  _space_group_symop_operation_xyz
  'x, y, z'

loop_
  _atom_site_type_symbol
  _atom_site_label
  _atom_site_symmetry_multiplicity
  _atom_site_fract_x
  _atom_site_fract_y
  _atom_site_fract_z
  _atom_site_occupancy
  As  As1       1.0  0.10600  0.75000  0.25300  1.0000
  As  As2       1.0  0.51100  0.25000  0.49400  1.0000
  As  As3       1.0  0.48900  0.75000  0.50600  1.0000
  As  As4       1.0  0.89400  0.25000  0.74700  1.0000
  Cs  Cs1       1.0  0.76200  0.51700  0.20200  1.0000
  Cs  Cs2       1.0  0.76200  0.98300  0.20200  1.0000
  Cs  Cs3       1.0  0.23800  0.01750  0.79800  1.0000
  Cs  Cs4       1.0  0.23800  0.48300  0.79800  1.0000
  F   F1        1.0  0.80400  0.25000  0.00964  1.0000
  F   F2        1.0  0.91700  0.75000  0.01050  1.0000
  F   F3        1.0  0.46700  0.12900  0.24200  1.0000
  F   F4        1.0  0.46700  0.37100  0.24200  1.0000
  F   F5        1.0  0.10100  0.57300  0.24400  1.0000
  F   F6        1.0  0.10100  0.92700  0.24400  1.0000
  F   F7        1.0  0.45700  0.62500  0.26100  1.0000
  F   F8        1.0  0.45700  0.87500  0.26100  1.0000
  F   F9        1.0  0.30600  0.25000  0.48800  1.0000
  F   F10       1.0  0.99900  0.75000  0.49700  1.0000
  F   F11       1.0  0.00057  0.25000  0.50300  1.0000
  F   F12       1.0  0.69400  0.75000  0.51200  1.0000
  F   F13       1.0  0.54300  0.12500  0.73900  1.0000
  F   F14       1.0  0.54300  0.37500  0.73900  1.0000
  F   F15       1.0  0.89900  0.07290  0.75600  1.0000
  F   F16       1.0  0.89900  0.42700  0.75600  1.0000
  F   F17       1.0  0.53300  0.62900  0.75800  1.0000
  F   F18       1.0  0.53300  0.87100  0.75800  1.0000
  F   F19       1.0  0.08270  0.25000  0.98900  1.0000
  F   F20       1.0  0.19600  0.75000  0.99000  1.0000
  O   O1        1.0  0.71500  0.25000  0.48000  1.0000
  O   O2        1.0  0.28500  0.75000  0.52000  1.0000
