data_image0
_chemical_formula_structural       Na4O11Pa4
_chemical_formula_sum              "Na4 O11 Pa4"
_cell_length_a       5.83761
_cell_length_b       6.00267
_cell_length_c       8.40341
_cell_angle_alpha    90.629
_cell_angle_beta     89.9692
_cell_angle_gamma    89.7197

_space_group_name_H-M_alt    "P 1"
_space_group_IT_number       1

loop_
  _space_group_symop_operation_xyz
  'x, y, z'

loop_
  _atom_site_type_symbol
  _atom_site_label
  _atom_site_symmetry_multiplicity
  _atom_site_fract_x
  _atom_site_fract_y
  _atom_site_fract_z
  _atom_site_occupancy
  Na  Na1       1.0  0.00475  0.02800  0.24800  1.0000
  Na  Na2       1.0  0.49800  0.55600  0.26400  1.0000
  Na  Na3       1.0  0.50100  0.46300  0.72700  1.0000
  Na  Na4       1.0  0.99700  0.97000  0.73800  1.0000
  O   O1        1.0  0.80400  0.78900  0.06900  1.0000
  O   O2        1.0  0.10500  0.44900  0.25200  1.0000
  O   O3        1.0  0.39800  0.96200  0.25400  1.0000
  O   O4        1.0  0.68300  0.32100  0.44200  1.0000
  O   O5        1.0  0.81600  0.82000  0.44900  1.0000
  O   O6        1.0  0.31000  0.70500  0.55300  1.0000
  O   O7        1.0  0.19200  0.20600  0.56300  1.0000
  O   O8        1.0  0.88800  0.55300  0.74700  1.0000
  O   O9        1.0  0.61200  0.07060  0.75100  1.0000
  O   O10       1.0  0.33500  0.65700  0.93900  1.0000
  O   O11       1.0  0.16100  0.15800  0.95600  1.0000
  Pa  Pa1       1.0  0.99900  0.50700  0.49900  1.0000
  Pa  Pa2       1.0  0.50200  0.01150  0.50100  1.0000
  Pa  Pa3       1.0  0.49100  0.97400  0.99400  1.0000
  Pa  Pa4       1.0  0.01520  0.49600  0.99500  1.0000
