data_image0
_chemical_formula_structural       F18Rb6Zn6
_chemical_formula_sum              "F18 Rb6 Zn6"
_cell_length_a       5.82829
_cell_length_b       5.82827
_cell_length_c       14.3064
_cell_angle_alpha    90
_cell_angle_beta     90
_cell_angle_gamma    120

_space_group_name_H-M_alt    "P 1"
_space_group_IT_number       1

loop_
  _space_group_symop_operation_xyz
  'x, y, z'

loop_
  _atom_site_type_symbol
  _atom_site_label
  _atom_site_symmetry_multiplicity
  _atom_site_fract_x
  _atom_site_fract_y
  _atom_site_fract_z
  _atom_site_occupancy
  F   F1        1.0  0.33200  0.16600  0.08020  1.0000
  F   F2        1.0  0.83400  0.16600  0.08020  1.0000
  F   F3        1.0  0.83400  0.66800  0.08020  1.0000
  F   F4        1.0  0.51100  0.02280  0.25000  1.0000
  F   F5        1.0  0.51100  0.48900  0.25000  1.0000
  F   F6        1.0  0.97700  0.48900  0.25000  1.0000
  F   F7        1.0  0.83400  0.66800  0.42000  1.0000
  F   F8        1.0  0.33200  0.16600  0.42000  1.0000
  F   F9        1.0  0.83400  0.16600  0.42000  1.0000
  F   F10       1.0  0.16600  0.83400  0.58000  1.0000
  F   F11       1.0  0.66800  0.83400  0.58000  1.0000
  F   F12       1.0  0.16600  0.33200  0.58000  1.0000
  F   F13       1.0  0.02280  0.51100  0.75000  1.0000
  F   F14       1.0  0.48900  0.51100  0.75000  1.0000
  F   F15       1.0  0.48900  0.97700  0.75000  1.0000
  F   F16       1.0  0.16600  0.33200  0.92000  1.0000
  F   F17       1.0  0.16600  0.83400  0.92000  1.0000
  F   F18       1.0  0.66800  0.83400  0.92000  1.0000
  Rb  Rb1       1.0  0.33300  0.66700  0.09510  1.0000
  Rb  Rb2       1.0  0.00000  0.00000  0.25000  1.0000
  Rb  Rb3       1.0  0.33300  0.66700  0.40500  1.0000
  Rb  Rb4       1.0  0.66700  0.33300  0.59500  1.0000
  Rb  Rb5       1.0  0.00000  0.00000  0.75000  1.0000
  Rb  Rb6       1.0  0.66700  0.33300  0.90500  1.0000
  Zn  Zn1       1.0  0.00000  0.00000  0.00000  1.0000
  Zn  Zn2       1.0  0.66700  0.33300  0.15500  1.0000
  Zn  Zn3       1.0  0.66700  0.33300  0.34500  1.0000
  Zn  Zn4       1.0  0.00000  0.00000  0.50000  1.0000
  Zn  Zn5       1.0  0.33300  0.66700  0.65500  1.0000
  Zn  Zn6       1.0  0.33300  0.66700  0.84500  1.0000
