data_image0
_chemical_formula_structural       O18Rb6S6
_chemical_formula_sum              "O18 Rb6 S6"
_cell_length_a       9.95663
_cell_length_b       9.95668
_cell_length_c       6.28214
_cell_angle_alpha    90.0001
_cell_angle_beta     89.9991
_cell_angle_gamma    120

_space_group_name_H-M_alt    "P 1"
_space_group_IT_number       1

loop_
  _space_group_symop_operation_xyz
  'x, y, z'

loop_
  _atom_site_type_symbol
  _atom_site_label
  _atom_site_symmetry_multiplicity
  _atom_site_fract_x
  _atom_site_fract_y
  _atom_site_fract_z
  _atom_site_occupancy
  O   O1        1.0  0.20300  0.51400  0.18100  1.0000
  O   O2        1.0  0.31100  0.79700  0.18100  1.0000
  O   O3        1.0  0.48600  0.68900  0.18100  1.0000
  O   O4        1.0  0.15600  0.12400  0.23600  1.0000
  O   O5        1.0  0.96800  0.84400  0.23600  1.0000
  O   O6        1.0  0.87600  0.03240  0.23600  1.0000
  O   O7        1.0  0.81800  0.46700  0.35900  1.0000
  O   O8        1.0  0.53300  0.35200  0.35900  1.0000
  O   O9        1.0  0.64800  0.18200  0.35900  1.0000
  O   O10       1.0  0.46700  0.81800  0.64100  1.0000
  O   O11       1.0  0.35200  0.53300  0.64100  1.0000
  O   O12       1.0  0.18200  0.64800  0.64100  1.0000
  O   O13       1.0  0.12400  0.15600  0.76400  1.0000
  O   O14       1.0  0.03240  0.87600  0.76400  1.0000
  O   O15       1.0  0.84400  0.96800  0.76400  1.0000
  O   O16       1.0  0.51400  0.20300  0.81900  1.0000
  O   O17       1.0  0.68900  0.48600  0.81900  1.0000
  O   O18       1.0  0.79700  0.31100  0.81900  1.0000
  Rb  Rb1       1.0  0.62000  0.00000  0.00000  1.0000
  Rb  Rb2       1.0  0.38000  0.38000  0.00000  1.0000
  Rb  Rb3       1.0  0.00000  0.62000  0.00000  1.0000
  Rb  Rb4       1.0  0.30100  0.00000  0.50000  1.0000
  Rb  Rb5       1.0  0.00000  0.30100  0.50000  1.0000
  Rb  Rb6       1.0  0.69900  0.69900  0.50000  1.0000
  S   S1        1.0  0.00000  0.00000  0.17700  1.0000
  S   S2        1.0  0.33300  0.66700  0.24200  1.0000
  S   S3        1.0  0.66700  0.33300  0.41300  1.0000
  S   S4        1.0  0.33300  0.66700  0.58700  1.0000
  S   S5        1.0  0.66700  0.33300  0.75800  1.0000
  S   S6        1.0  0.00000  0.00000  0.82300  1.0000
