data_image0
_chemical_formula_structural       K4O18Si6Sn2
_chemical_formula_sum              "K4 O18 Si6 Sn2"
_cell_length_a       6.8338
_cell_length_b       6.83386
_cell_length_c       10.0716
_cell_angle_alpha    90
_cell_angle_beta     90
_cell_angle_gamma    120

_space_group_name_H-M_alt    "P 1"
_space_group_IT_number       1

loop_
  _space_group_symop_operation_xyz
  'x, y, z'

loop_
  _atom_site_type_symbol
  _atom_site_label
  _atom_site_symmetry_multiplicity
  _atom_site_fract_x
  _atom_site_fract_y
  _atom_site_fract_z
  _atom_site_occupancy
  K   K1        1.0  0.33300  0.66700  0.05430  1.0000
  K   K2        1.0  0.33300  0.66700  0.44600  1.0000
  K   K3        1.0  0.66700  0.33300  0.55400  1.0000
  K   K4        1.0  0.66700  0.33300  0.94600  1.0000
  O   O1        1.0  0.75400  0.00723  0.11300  1.0000
  O   O2        1.0  0.25300  0.24600  0.11300  1.0000
  O   O3        1.0  0.99300  0.74700  0.11300  1.0000
  O   O4        1.0  0.48000  0.08300  0.25000  1.0000
  O   O5        1.0  0.91700  0.39700  0.25000  1.0000
  O   O6        1.0  0.60300  0.52000  0.25000  1.0000
  O   O7        1.0  0.75400  0.00723  0.38700  1.0000
  O   O8        1.0  0.25300  0.24600  0.38700  1.0000
  O   O9        1.0  0.99300  0.74700  0.38700  1.0000
  O   O10       1.0  0.00723  0.25300  0.61300  1.0000
  O   O11       1.0  0.74700  0.75400  0.61300  1.0000
  O   O12       1.0  0.24600  0.99300  0.61300  1.0000
  O   O13       1.0  0.39700  0.48000  0.75000  1.0000
  O   O14       1.0  0.08300  0.60300  0.75000  1.0000
  O   O15       1.0  0.52000  0.91700  0.75000  1.0000
  O   O16       1.0  0.00723  0.25300  0.88700  1.0000
  O   O17       1.0  0.74700  0.75400  0.88700  1.0000
  O   O18       1.0  0.24600  0.99300  0.88700  1.0000
  Si  Si1       1.0  0.74000  0.12100  0.25000  1.0000
  Si  Si2       1.0  0.38100  0.26000  0.25000  1.0000
  Si  Si3       1.0  0.87900  0.61900  0.25000  1.0000
  Si  Si4       1.0  0.12100  0.38100  0.75000  1.0000
  Si  Si5       1.0  0.61900  0.74000  0.75000  1.0000
  Si  Si6       1.0  0.26000  0.87900  0.75000  1.0000
  Sn  Sn1       1.0  0.00000  0.00000  0.00000  1.0000
  Sn  Sn2       1.0  0.00000  0.00000  0.50000  1.0000
