data_image0
_chemical_formula_structural       H8Na4O14Te4
_chemical_formula_sum              "H8 Na4 O14 Te4"
_cell_length_a       11.4532
_cell_length_b       5.51576
_cell_length_c       5.96102
_cell_angle_alpha    102.813
_cell_angle_beta     93.3455
_cell_angle_gamma    91.3039

_space_group_name_H-M_alt    "P 1"
_space_group_IT_number       1

loop_
  _space_group_symop_operation_xyz
  'x, y, z'

loop_
  _atom_site_type_symbol
  _atom_site_label
  _atom_site_symmetry_multiplicity
  _atom_site_fract_x
  _atom_site_fract_y
  _atom_site_fract_z
  _atom_site_occupancy
  H   H1        1.0  0.31100  0.05380  0.33500  1.0000
  H   H2        1.0  0.80700  0.59200  0.38800  1.0000
  H   H3        1.0  0.13900  0.18200  0.41200  1.0000
  H   H4        1.0  0.64200  0.71200  0.46600  1.0000
  H   H5        1.0  0.35800  0.28800  0.53400  1.0000
  H   H6        1.0  0.86100  0.81800  0.58800  1.0000
  H   H7        1.0  0.19300  0.40800  0.61200  1.0000
  H   H8        1.0  0.68900  0.94600  0.66500  1.0000
  Na  Na1       1.0  0.05210  0.60300  0.28600  1.0000
  Na  Na2       1.0  0.56900  0.10900  0.29300  1.0000
  Na  Na3       1.0  0.43100  0.89100  0.70700  1.0000
  Na  Na4       1.0  0.94800  0.39700  0.71400  1.0000
  O   O1        1.0  0.04630  0.23300  0.00380  1.0000
  O   O2        1.0  0.50100  0.73400  0.05700  1.0000
  O   O3        1.0  0.72000  0.88100  0.11200  1.0000
  O   O4        1.0  0.18200  0.90500  0.22400  1.0000
  O   O5        1.0  0.68300  0.45700  0.26100  1.0000
  O   O6        1.0  0.38400  0.14500  0.41700  1.0000
  O   O7        1.0  0.88200  0.66000  0.48300  1.0000
  O   O8        1.0  0.11800  0.34000  0.51700  1.0000
  O   O9        1.0  0.61600  0.85500  0.58300  1.0000
  O   O10       1.0  0.31700  0.54300  0.73900  1.0000
  O   O11       1.0  0.81800  0.09500  0.77600  1.0000
  O   O12       1.0  0.28000  0.11900  0.88800  1.0000
  O   O13       1.0  0.49900  0.26600  0.94300  1.0000
  O   O14       1.0  0.95400  0.76700  0.99600  1.0000
  Te  Te1       1.0  0.36100  0.45700  0.02080  1.0000
  Te  Te2       1.0  0.86400  0.05750  0.07500  1.0000
  Te  Te3       1.0  0.13600  0.94200  0.92500  1.0000
  Te  Te4       1.0  0.63900  0.54300  0.97900  1.0000
