data_image0
_chemical_formula_structural       Co7Ga16Ti6
_chemical_formula_sum              "Co7 Ga16 Ti6"
_cell_length_a       8.33252
_cell_length_b       8.33252
_cell_length_c       8.33252
_cell_angle_alpha    120
_cell_angle_beta     90
_cell_angle_gamma    120

_space_group_name_H-M_alt    "P 1"
_space_group_IT_number       1

loop_
  _space_group_symop_operation_xyz
  'x, y, z'

loop_
  _atom_site_type_symbol
  _atom_site_label
  _atom_site_symmetry_multiplicity
  _atom_site_fract_x
  _atom_site_fract_y
  _atom_site_fract_z
  _atom_site_occupancy
  Co  Co1       1.0  0.00000  0.00000  0.00000  1.0000
  Co  Co2       1.0  0.50000  0.00000  0.00000  1.0000
  Co  Co3       1.0  0.00000  0.50000  0.00000  1.0000
  Co  Co4       1.0  0.50000  0.50000  0.00000  1.0000
  Co  Co5       1.0  0.00000  0.00000  0.50000  1.0000
  Co  Co6       1.0  0.00000  0.50000  0.50000  1.0000
  Co  Co7       1.0  0.50000  0.50000  0.50000  1.0000
  Ga  Ga1       1.0  0.34600  0.69200  0.03780  1.0000
  Ga  Ga2       1.0  0.87900  0.75800  0.12100  1.0000
  Ga  Ga3       1.0  0.36300  0.24200  0.12100  1.0000
  Ga  Ga4       1.0  0.87900  0.24200  0.12100  1.0000
  Ga  Ga5       1.0  0.65400  0.30800  0.34600  1.0000
  Ga  Ga6       1.0  0.03780  0.69200  0.34600  1.0000
  Ga  Ga7       1.0  0.65400  0.69200  0.34600  1.0000
  Ga  Ga8       1.0  0.12100  0.24200  0.36300  1.0000
  Ga  Ga9       1.0  0.87900  0.75800  0.63700  1.0000
  Ga  Ga10      1.0  0.96200  0.30800  0.65400  1.0000
  Ga  Ga11      1.0  0.34600  0.30800  0.65400  1.0000
  Ga  Ga12      1.0  0.34600  0.69200  0.65400  1.0000
  Ga  Ga13      1.0  0.12100  0.24200  0.87900  1.0000
  Ga  Ga14      1.0  0.12100  0.75800  0.87900  1.0000
  Ga  Ga15      1.0  0.63700  0.75800  0.87900  1.0000
  Ga  Ga16      1.0  0.65400  0.30800  0.96200  1.0000
  Ti  Ti1       1.0  0.69300  0.00000  0.30700  1.0000
  Ti  Ti2       1.0  0.30700  0.00000  0.30700  1.0000
  Ti  Ti3       1.0  0.30700  0.61300  0.30700  1.0000
  Ti  Ti4       1.0  0.30700  0.00000  0.69300  1.0000
  Ti  Ti5       1.0  0.69300  0.00000  0.69300  1.0000
  Ti  Ti6       1.0  0.69300  0.38700  0.69300  1.0000
