data_image0
_chemical_formula_structural       Eu4N16Si10
_chemical_formula_sum              "Eu4 N16 Si10"
_cell_length_a       5.67067
_cell_length_b       6.75422
_cell_length_c       9.29453
_cell_angle_alpha    90
_cell_angle_beta     90
_cell_angle_gamma    90

_space_group_name_H-M_alt    "P 1"
_space_group_IT_number       1

loop_
  _space_group_symop_operation_xyz
  'x, y, z'

loop_
  _atom_site_type_symbol
  _atom_site_label
  _atom_site_symmetry_multiplicity
  _atom_site_fract_x
  _atom_site_fract_y
  _atom_site_fract_z
  _atom_site_occupancy
  Eu  Eu1       1.0  0.50000  0.87700  0.07100  1.0000
  Eu  Eu2       1.0  0.50000  0.88800  0.43600  1.0000
  Eu  Eu3       1.0  0.00000  0.12300  0.57100  1.0000
  Eu  Eu4       1.0  0.00000  0.11200  0.93600  1.0000
  N   N1        1.0  0.25000  0.44300  0.07940  1.0000
  N   N2        1.0  0.75000  0.44300  0.07940  1.0000
  N   N3        1.0  0.00000  0.81400  0.08600  1.0000
  N   N4        1.0  0.25500  0.08260  0.23900  1.0000
  N   N5        1.0  0.74500  0.08260  0.23900  1.0000
  N   N6        1.0  0.50000  0.43200  0.33900  1.0000
  N   N7        1.0  0.00000  0.41100  0.34300  1.0000
  N   N8        1.0  0.00000  0.83100  0.41000  1.0000
  N   N9        1.0  0.25000  0.55700  0.57900  1.0000
  N   N10       1.0  0.75000  0.55700  0.57900  1.0000
  N   N11       1.0  0.50000  0.18600  0.58600  1.0000
  N   N12       1.0  0.24500  0.91700  0.73900  1.0000
  N   N13       1.0  0.75500  0.91700  0.73900  1.0000
  N   N14       1.0  0.00000  0.56800  0.83900  1.0000
  N   N15       1.0  0.50000  0.58900  0.84300  1.0000
  N   N16       1.0  0.50000  0.16900  0.91000  1.0000
  Si  Si1       1.0  0.00000  0.58000  0.02790  1.0000
  Si  Si2       1.0  0.00000  0.94500  0.24600  1.0000
  Si  Si3       1.0  0.25300  0.33200  0.25100  1.0000
  Si  Si4       1.0  0.74700  0.33200  0.25100  1.0000
  Si  Si5       1.0  0.00000  0.59900  0.47100  1.0000
  Si  Si6       1.0  0.50000  0.42000  0.52800  1.0000
  Si  Si7       1.0  0.50000  0.05490  0.74600  1.0000
  Si  Si8       1.0  0.24700  0.66800  0.75100  1.0000
  Si  Si9       1.0  0.75300  0.66800  0.75100  1.0000
  Si  Si10      1.0  0.50000  0.40100  0.97100  1.0000
