data_image0
_chemical_formula_structural       Ag4Mo4Na4O16
_chemical_formula_sum              "Ag4 Mo4 Na4 O16"
_cell_length_a       10.2879
_cell_length_b       7.0812
_cell_length_c       5.51436
_cell_angle_alpha    90
_cell_angle_beta     90
_cell_angle_gamma    90

_space_group_name_H-M_alt    "P 1"
_space_group_IT_number       1

loop_
  _space_group_symop_operation_xyz
  'x, y, z'

loop_
  _atom_site_type_symbol
  _atom_site_label
  _atom_site_symmetry_multiplicity
  _atom_site_fract_x
  _atom_site_fract_y
  _atom_site_fract_z
  _atom_site_occupancy
  Ag  Ag1       1.0  0.36200  0.75000  0.01040  1.0000
  Ag  Ag2       1.0  0.86200  0.75000  0.49000  1.0000
  Ag  Ag3       1.0  0.13800  0.25000  0.51000  1.0000
  Ag  Ag4       1.0  0.63800  0.25000  0.99000  1.0000
  Mo  Mo1       1.0  0.68300  0.75000  0.00316  1.0000
  Mo  Mo2       1.0  0.18300  0.75000  0.49700  1.0000
  Mo  Mo3       1.0  0.81700  0.25000  0.50300  1.0000
  Mo  Mo4       1.0  0.31700  0.25000  0.99700  1.0000
  Na  Na1       1.0  0.00000  0.00000  0.00000  1.0000
  Na  Na2       1.0  0.00000  0.50000  0.00000  1.0000
  Na  Na3       1.0  0.50000  0.00000  0.50000  1.0000
  Na  Na4       1.0  0.50000  0.50000  0.50000  1.0000
  O   O1        1.0  0.85600  0.75000  0.06090  1.0000
  O   O2        1.0  0.61600  0.54500  0.14500  1.0000
  O   O3        1.0  0.61600  0.95500  0.14500  1.0000
  O   O4        1.0  0.85800  0.25000  0.18700  1.0000
  O   O5        1.0  0.35800  0.25000  0.31300  1.0000
  O   O6        1.0  0.11600  0.54500  0.35500  1.0000
  O   O7        1.0  0.11600  0.95500  0.35500  1.0000
  O   O8        1.0  0.35600  0.75000  0.43900  1.0000
  O   O9        1.0  0.64400  0.25000  0.56100  1.0000
  O   O10       1.0  0.88400  0.04520  0.64500  1.0000
  O   O11       1.0  0.88400  0.45500  0.64500  1.0000
  O   O12       1.0  0.64200  0.75000  0.68700  1.0000
  O   O13       1.0  0.14200  0.75000  0.81300  1.0000
  O   O14       1.0  0.38400  0.04520  0.85500  1.0000
  O   O15       1.0  0.38400  0.45500  0.85500  1.0000
  O   O16       1.0  0.14400  0.25000  0.93900  1.0000
