data_image0
_chemical_formula_structural       Ca4FNa5O16P4
_chemical_formula_sum              "Ca4 F1 Na5 O16 P4"
_cell_length_a       5.38124
_cell_length_b       8.58978
_cell_length_c       8.58978
_cell_angle_alpha    95.6307
_cell_angle_beta     71.7457
_cell_angle_gamma    108.254

_space_group_name_H-M_alt    "P 1"
_space_group_IT_number       1

loop_
  _space_group_symop_operation_xyz
  'x, y, z'

loop_
  _atom_site_type_symbol
  _atom_site_label
  _atom_site_symmetry_multiplicity
  _atom_site_fract_x
  _atom_site_fract_y
  _atom_site_fract_z
  _atom_site_occupancy
  Ca  Ca1       1.0  0.09180  0.29000  0.06670  1.0000
  Ca  Ca2       1.0  0.84100  0.93300  0.29000  1.0000
  Ca  Ca3       1.0  0.19800  0.06670  0.71000  1.0000
  Ca  Ca4       1.0  0.86800  0.71000  0.93300  1.0000
  F   F1        1.0  0.00000  0.00000  0.00000  1.0000
  Na  Na1       1.0  0.50000  0.00000  0.00000  1.0000
  Na  Na2       1.0  0.61900  0.51800  0.29600  1.0000
  Na  Na3       1.0  0.89900  0.29600  0.48200  1.0000
  Na  Na4       1.0  0.08460  0.70400  0.51800  1.0000
  Na  Na5       1.0  0.39800  0.48200  0.70400  1.0000
  O   O1        1.0  0.75200  0.43700  0.02360  1.0000
  O   O2        1.0  0.08820  0.75900  0.14300  1.0000
  O   O3        1.0  0.53000  0.74700  0.18100  1.0000
  O   O4        1.0  0.67100  0.14300  0.24100  1.0000
  O   O5        1.0  0.21700  0.18100  0.25300  1.0000
  O   O6        1.0  0.09340  0.51200  0.28200  1.0000
  O   O7        1.0  0.22400  0.97600  0.43700  1.0000
  O   O8        1.0  0.41900  0.28200  0.48800  1.0000
  O   O9        1.0  0.62500  0.71800  0.51200  1.0000
  O   O10       1.0  0.68500  0.02360  0.56300  1.0000
  O   O11       1.0  0.86300  0.48800  0.71800  1.0000
  O   O12       1.0  0.29000  0.81900  0.74700  1.0000
  O   O13       1.0  0.76900  0.85700  0.75900  1.0000
  O   O14       1.0  0.96400  0.25300  0.81900  1.0000
  O   O15       1.0  0.47200  0.24100  0.85700  1.0000
  O   O16       1.0  0.33900  0.56300  0.97600  1.0000
  P   P1        1.0  0.25900  0.64500  0.14600  1.0000
  P   P2        1.0  0.38600  0.14600  0.35500  1.0000
  P   P3        1.0  0.59500  0.85400  0.64500  1.0000
  P   P4        1.0  0.76000  0.35500  0.85400  1.0000
