data_image0
_chemical_formula_structural       Ba2Ca4O18Si6
_chemical_formula_sum              "Ba2 Ca4 O18 Si6"
_cell_length_a       6.71575
_cell_length_b       9.61223
_cell_length_c       6.67729
_cell_angle_alpha    69.5564
_cell_angle_beta     102.449
_cell_angle_gamma    96.9403

_space_group_name_H-M_alt    "P 1"
_space_group_IT_number       1

loop_
  _space_group_symop_operation_xyz
  'x, y, z'

loop_
  _atom_site_type_symbol
  _atom_site_label
  _atom_site_symmetry_multiplicity
  _atom_site_fract_x
  _atom_site_fract_y
  _atom_site_fract_z
  _atom_site_occupancy
  Ba  Ba1       1.0  0.04490  0.84900  0.32300  1.0000
  Ba  Ba2       1.0  0.95500  0.15100  0.67700  1.0000
  Ca  Ca1       1.0  0.56200  0.17200  0.05360  1.0000
  Ca  Ca2       1.0  0.72500  0.49000  0.23800  1.0000
  Ca  Ca3       1.0  0.27500  0.51000  0.76200  1.0000
  Ca  Ca4       1.0  0.43800  0.82800  0.94600  1.0000
  O   O1        1.0  0.76500  0.73900  0.03120  1.0000
  O   O2        1.0  0.89600  0.12100  0.09980  1.0000
  O   O3        1.0  0.37500  0.55600  0.10500  1.0000
  O   O4        1.0  0.04110  0.37200  0.19900  1.0000
  O   O5        1.0  0.48800  0.91300  0.24100  1.0000
  O   O6        1.0  0.61600  0.23400  0.36600  1.0000
  O   O7        1.0  0.13400  0.58700  0.37000  1.0000
  O   O8        1.0  0.22800  0.12100  0.39500  1.0000
  O   O9        1.0  0.64000  0.64500  0.49000  1.0000
  O   O10       1.0  0.36000  0.35500  0.51000  1.0000
  O   O11       1.0  0.77200  0.87900  0.60500  1.0000
  O   O12       1.0  0.86600  0.41300  0.63000  1.0000
  O   O13       1.0  0.38400  0.76600  0.63400  1.0000
  O   O14       1.0  0.51200  0.08720  0.75900  1.0000
  O   O15       1.0  0.95900  0.62800  0.80100  1.0000
  O   O16       1.0  0.62500  0.44400  0.89500  1.0000
  O   O17       1.0  0.10400  0.87900  0.90000  1.0000
  O   O18       1.0  0.23500  0.26100  0.96900  1.0000
  Si  Si1       1.0  0.09530  0.22200  0.15100  1.0000
  Si  Si2       1.0  0.23400  0.48100  0.28600  1.0000
  Si  Si3       1.0  0.55700  0.80500  0.48600  1.0000
  Si  Si4       1.0  0.44300  0.19500  0.51400  1.0000
  Si  Si5       1.0  0.76600  0.51900  0.71400  1.0000
  Si  Si6       1.0  0.90500  0.77800  0.84900  1.0000
