data_image0
_chemical_formula_structural       Au2Cl8N10S10
_chemical_formula_sum              "Au2 Cl8 N10 S10"
_cell_length_a       5.35399
_cell_length_b       12.0251
_cell_length_c       10.2438
_cell_angle_alpha    90
_cell_angle_beta     99.665
_cell_angle_gamma    90

_space_group_name_H-M_alt    "P 1"
_space_group_IT_number       1

loop_
  _space_group_symop_operation_xyz
  'x, y, z'

loop_
  _atom_site_type_symbol
  _atom_site_label
  _atom_site_symmetry_multiplicity
  _atom_site_fract_x
  _atom_site_fract_y
  _atom_site_fract_z
  _atom_site_occupancy
  Au  Au1       1.0  0.15500  0.25000  0.29600  1.0000
  Au  Au2       1.0  0.84500  0.75000  0.70400  1.0000
  Cl  Cl1       1.0  0.92600  0.11400  0.16900  1.0000
  Cl  Cl2       1.0  0.92600  0.38600  0.16900  1.0000
  Cl  Cl3       1.0  0.38800  0.11300  0.42100  1.0000
  Cl  Cl4       1.0  0.38800  0.38700  0.42100  1.0000
  Cl  Cl5       1.0  0.61200  0.61300  0.57900  1.0000
  Cl  Cl6       1.0  0.61200  0.88700  0.57900  1.0000
  Cl  Cl7       1.0  0.07440  0.61400  0.83100  1.0000
  Cl  Cl8       1.0  0.07440  0.88600  0.83100  1.0000
  N   N1        1.0  0.57600  0.63400  0.08490  1.0000
  N   N2        1.0  0.57600  0.86600  0.08490  1.0000
  N   N3        1.0  0.25600  0.63800  0.24700  1.0000
  N   N4        1.0  0.25600  0.86200  0.24700  1.0000
  N   N5        1.0  0.99400  0.75000  0.38900  1.0000
  N   N6        1.0  0.00632  0.25000  0.61100  1.0000
  N   N7        1.0  0.74400  0.13800  0.75300  1.0000
  N   N8        1.0  0.74400  0.36200  0.75300  1.0000
  N   N9        1.0  0.42400  0.13400  0.91500  1.0000
  N   N10       1.0  0.42400  0.36600  0.91500  1.0000
  S   S1        1.0  0.66400  0.75000  0.03520  1.0000
  S   S2        1.0  0.41600  0.56200  0.16900  1.0000
  S   S3        1.0  0.41600  0.93800  0.16900  1.0000
  S   S4        1.0  0.07350  0.62900  0.35200  1.0000
  S   S5        1.0  0.07350  0.87100  0.35200  1.0000
  S   S6        1.0  0.92600  0.12900  0.64800  1.0000
  S   S7        1.0  0.92600  0.37100  0.64800  1.0000
  S   S8        1.0  0.58400  0.06180  0.83100  1.0000
  S   S9        1.0  0.58400  0.43800  0.83100  1.0000
  S   S10       1.0  0.33600  0.25000  0.96500  1.0000
