data_image0
_chemical_formula_structural       Ga16Os7Sc6
_chemical_formula_sum              "Ga16 Os7 Sc6"
_cell_length_a       8.79896
_cell_length_b       8.79896
_cell_length_c       8.79896
_cell_angle_alpha    120
_cell_angle_beta     90
_cell_angle_gamma    120

_space_group_name_H-M_alt    "P 1"
_space_group_IT_number       1

loop_
  _space_group_symop_operation_xyz
  'x, y, z'

loop_
  _atom_site_type_symbol
  _atom_site_label
  _atom_site_symmetry_multiplicity
  _atom_site_fract_x
  _atom_site_fract_y
  _atom_site_fract_z
  _atom_site_occupancy
  Ga  Ga1       1.0  0.34600  0.69200  0.03760  1.0000
  Ga  Ga2       1.0  0.87600  0.75200  0.12400  1.0000
  Ga  Ga3       1.0  0.37300  0.24800  0.12400  1.0000
  Ga  Ga4       1.0  0.87600  0.24800  0.12400  1.0000
  Ga  Ga5       1.0  0.65400  0.30800  0.34600  1.0000
  Ga  Ga6       1.0  0.03760  0.69200  0.34600  1.0000
  Ga  Ga7       1.0  0.65400  0.69200  0.34600  1.0000
  Ga  Ga8       1.0  0.12400  0.24800  0.37300  1.0000
  Ga  Ga9       1.0  0.87600  0.75200  0.62700  1.0000
  Ga  Ga10      1.0  0.34600  0.30800  0.65400  1.0000
  Ga  Ga11      1.0  0.34600  0.69200  0.65400  1.0000
  Ga  Ga12      1.0  0.96200  0.30800  0.65400  1.0000
  Ga  Ga13      1.0  0.12400  0.24800  0.87600  1.0000
  Ga  Ga14      1.0  0.12400  0.75200  0.87600  1.0000
  Ga  Ga15      1.0  0.62700  0.75200  0.87600  1.0000
  Ga  Ga16      1.0  0.65400  0.30800  0.96200  1.0000
  Os  Os1       1.0  0.00000  0.00000  0.00000  1.0000
  Os  Os2       1.0  0.50000  0.00000  0.00000  1.0000
  Os  Os3       1.0  0.00000  0.50000  0.00000  1.0000
  Os  Os4       1.0  0.50000  0.50000  0.00000  1.0000
  Os  Os5       1.0  0.00000  0.50000  0.50000  1.0000
  Os  Os6       1.0  0.50000  0.50000  0.50000  1.0000
  Os  Os7       1.0  0.00000  0.00000  0.50000  1.0000
  Sc  Sc1       1.0  0.72700  0.00000  0.27300  1.0000
  Sc  Sc2       1.0  0.27300  0.00000  0.27300  1.0000
  Sc  Sc3       1.0  0.27300  0.54600  0.27300  1.0000
  Sc  Sc4       1.0  0.72700  0.45400  0.72700  1.0000
  Sc  Sc5       1.0  0.27300  1.00000  0.72700  1.0000
  Sc  Sc6       1.0  0.72700  1.00000  0.72700  1.0000
