data_image0
_chemical_formula_structural       Ga16Ru7Ti6
_chemical_formula_sum              "Ga16 Ru7 Ti6"
_cell_length_a       8.62882
_cell_length_b       8.62882
_cell_length_c       8.62882
_cell_angle_alpha    120
_cell_angle_beta     90
_cell_angle_gamma    120

_space_group_name_H-M_alt    "P 1"
_space_group_IT_number       1

loop_
  _space_group_symop_operation_xyz
  'x, y, z'

loop_
  _atom_site_type_symbol
  _atom_site_label
  _atom_site_symmetry_multiplicity
  _atom_site_fract_x
  _atom_site_fract_y
  _atom_site_fract_z
  _atom_site_occupancy
  Ga  Ga1       1.0  0.35300  0.70600  0.05970  1.0000
  Ga  Ga2       1.0  0.37200  0.24800  0.12400  1.0000
  Ga  Ga3       1.0  0.87600  0.24800  0.12400  1.0000
  Ga  Ga4       1.0  0.87600  0.75200  0.12400  1.0000
  Ga  Ga5       1.0  0.64700  0.29400  0.35300  1.0000
  Ga  Ga6       1.0  0.05970  0.70600  0.35300  1.0000
  Ga  Ga7       1.0  0.64700  0.70600  0.35300  1.0000
  Ga  Ga8       1.0  0.12400  0.24800  0.37200  1.0000
  Ga  Ga9       1.0  0.87600  0.75200  0.62800  1.0000
  Ga  Ga10      1.0  0.94000  0.29400  0.64700  1.0000
  Ga  Ga11      1.0  0.35300  0.70600  0.64700  1.0000
  Ga  Ga12      1.0  0.35300  0.29400  0.64700  1.0000
  Ga  Ga13      1.0  0.12400  0.24800  0.87600  1.0000
  Ga  Ga14      1.0  0.12400  0.75200  0.87600  1.0000
  Ga  Ga15      1.0  0.62800  0.75200  0.87600  1.0000
  Ga  Ga16      1.0  0.64700  0.29400  0.94000  1.0000
  Ru  Ru1       1.0  0.00000  0.00000  0.00000  1.0000
  Ru  Ru2       1.0  0.50000  0.00000  0.00000  1.0000
  Ru  Ru3       1.0  0.00000  0.50000  0.00000  1.0000
  Ru  Ru4       1.0  0.50000  0.50000  0.00000  1.0000
  Ru  Ru5       1.0  0.00000  0.00000  0.50000  1.0000
  Ru  Ru6       1.0  0.00000  0.50000  0.50000  1.0000
  Ru  Ru7       1.0  0.50000  0.50000  0.50000  1.0000
  Ti  Ti1       1.0  0.72200  0.00000  0.27800  1.0000
  Ti  Ti2       1.0  0.27800  0.00000  0.27800  1.0000
  Ti  Ti3       1.0  0.27800  0.55600  0.27800  1.0000
  Ti  Ti4       1.0  0.72200  0.00000  0.72200  1.0000
  Ti  Ti5       1.0  0.27800  0.00000  0.72200  1.0000
  Ti  Ti6       1.0  0.72200  0.44400  0.72200  1.0000
