data_image0
_chemical_formula_structural       K4O18Si8
_chemical_formula_sum              "K4 O18 Si8"
_cell_length_a       12.1899
_cell_length_b       4.88804
_cell_length_c       8.2386
_cell_angle_alpha    90.4692
_cell_angle_beta     111.242
_cell_angle_gamma    89.7112

_space_group_name_H-M_alt    "P 1"
_space_group_IT_number       1

loop_
  _space_group_symop_operation_xyz
  'x, y, z'

loop_
  _atom_site_type_symbol
  _atom_site_label
  _atom_site_symmetry_multiplicity
  _atom_site_fract_x
  _atom_site_fract_y
  _atom_site_fract_z
  _atom_site_occupancy
  K   K1        1.0  0.65100  0.73600  0.06930  1.0000
  K   K2        1.0  0.14300  0.76200  0.08230  1.0000
  K   K3        1.0  0.85700  0.23800  0.91800  1.0000
  K   K4        1.0  0.34900  0.26400  0.93100  1.0000
  O   O1        1.0  0.90400  0.75200  0.06180  1.0000
  O   O2        1.0  0.36800  0.77300  0.06390  1.0000
  O   O3        1.0  0.49100  0.39200  0.28400  1.0000
  O   O4        1.0  0.91300  0.38100  0.30000  1.0000
  O   O5        1.0  0.56900  0.88900  0.34200  1.0000
  O   O6        1.0  0.85700  0.88000  0.35300  1.0000
  O   O7        1.0  0.71700  0.29200  0.36100  1.0000
  O   O8        1.0  0.07810  0.76400  0.37900  1.0000
  O   O9        1.0  0.36900  0.75900  0.39000  1.0000
  O   O10       1.0  0.63100  0.24100  0.61000  1.0000
  O   O11       1.0  0.92200  0.23600  0.62100  1.0000
  O   O12       1.0  0.28300  0.70800  0.63900  1.0000
  O   O13       1.0  0.14300  0.12000  0.64700  1.0000
  O   O14       1.0  0.43100  0.11100  0.65800  1.0000
  O   O15       1.0  0.08700  0.61900  0.70000  1.0000
  O   O16       1.0  0.50900  0.60800  0.71600  1.0000
  O   O17       1.0  0.63200  0.22700  0.93600  1.0000
  O   O18       1.0  0.09560  0.24800  0.93800  1.0000
  Si  Si1       1.0  0.44400  0.71400  0.25900  1.0000
  Si  Si2       1.0  0.93700  0.70300  0.26200  1.0000
  Si  Si3       1.0  0.60100  0.20600  0.40200  1.0000
  Si  Si4       1.0  0.85400  0.19900  0.41100  1.0000
  Si  Si5       1.0  0.14600  0.80100  0.58900  1.0000
  Si  Si6       1.0  0.39900  0.79400  0.59800  1.0000
  Si  Si7       1.0  0.06260  0.29700  0.73800  1.0000
  Si  Si8       1.0  0.55600  0.28600  0.74100  1.0000
