data_image0
_chemical_formula_structural       Cl24Mo6
_chemical_formula_sum              "Cl24 Mo6"
_cell_length_a       12.2596
_cell_length_b       12.2596
_cell_length_c       5.93399
_cell_angle_alpha    90
_cell_angle_beta     90
_cell_angle_gamma    120

_space_group_name_H-M_alt    "P 1"
_space_group_IT_number       1

loop_
  _space_group_symop_operation_xyz
  'x, y, z'

loop_
  _atom_site_type_symbol
  _atom_site_label
  _atom_site_symmetry_multiplicity
  _atom_site_fract_x
  _atom_site_fract_y
  _atom_site_fract_z
  _atom_site_occupancy
  Cl  Cl1       1.0  0.82900  0.00000  0.21500  1.0000
  Cl  Cl2       1.0  0.17100  0.17100  0.21500  1.0000
  Cl  Cl3       1.0  0.00000  0.82900  0.21500  1.0000
  Cl  Cl4       1.0  0.33100  0.00000  0.22900  1.0000
  Cl  Cl5       1.0  0.00000  0.33100  0.22900  1.0000
  Cl  Cl6       1.0  0.66900  0.66900  0.22900  1.0000
  Cl  Cl7       1.0  0.68200  0.17100  0.24400  1.0000
  Cl  Cl8       1.0  0.48900  0.31800  0.24400  1.0000
  Cl  Cl9       1.0  0.31800  0.48900  0.24400  1.0000
  Cl  Cl10      1.0  0.82900  0.51100  0.24400  1.0000
  Cl  Cl11      1.0  0.17100  0.68200  0.24400  1.0000
  Cl  Cl12      1.0  0.51100  0.82900  0.24400  1.0000
  Cl  Cl13      1.0  0.48900  0.17100  0.75600  1.0000
  Cl  Cl14      1.0  0.82900  0.31800  0.75600  1.0000
  Cl  Cl15      1.0  0.17100  0.48900  0.75600  1.0000
  Cl  Cl16      1.0  0.68200  0.51100  0.75600  1.0000
  Cl  Cl17      1.0  0.51100  0.68200  0.75600  1.0000
  Cl  Cl18      1.0  0.31800  0.82900  0.75600  1.0000
  Cl  Cl19      1.0  0.66900  0.00000  0.77100  1.0000
  Cl  Cl20      1.0  0.33100  0.33100  0.77100  1.0000
  Cl  Cl21      1.0  0.00000  0.66900  0.77100  1.0000
  Cl  Cl22      1.0  0.17100  0.00000  0.78500  1.0000
  Cl  Cl23      1.0  0.00000  0.17100  0.78500  1.0000
  Cl  Cl24      1.0  0.82900  0.82900  0.78500  1.0000
  Mo  Mo1       1.0  0.34800  0.17400  0.00000  1.0000
  Mo  Mo2       1.0  0.82600  0.17400  0.00000  1.0000
  Mo  Mo3       1.0  0.17400  0.34800  0.00000  1.0000
  Mo  Mo4       1.0  0.82600  0.65200  0.00000  1.0000
  Mo  Mo5       1.0  0.17400  0.82600  0.00000  1.0000
  Mo  Mo6       1.0  0.65200  0.82600  0.00000  1.0000
