data_image0
_chemical_formula_structural       Ga16Hf6Ru7
_chemical_formula_sum              "Ga16 Hf6 Ru7"
_cell_length_a       8.73983
_cell_length_b       8.73983
_cell_length_c       8.73983
_cell_angle_alpha    120
_cell_angle_beta     90
_cell_angle_gamma    120

_space_group_name_H-M_alt    "P 1"
_space_group_IT_number       1

loop_
  _space_group_symop_operation_xyz
  'x, y, z'

loop_
  _atom_site_type_symbol
  _atom_site_label
  _atom_site_symmetry_multiplicity
  _atom_site_fract_x
  _atom_site_fract_y
  _atom_site_fract_z
  _atom_site_occupancy
  Ga  Ga1       1.0  0.34500  0.69100  0.03580  1.0000
  Ga  Ga2       1.0  0.36900  0.24600  0.12300  1.0000
  Ga  Ga3       1.0  0.87700  0.24600  0.12300  1.0000
  Ga  Ga4       1.0  0.87700  0.75400  0.12300  1.0000
  Ga  Ga5       1.0  0.65500  0.30900  0.34500  1.0000
  Ga  Ga6       1.0  0.03580  0.69100  0.34500  1.0000
  Ga  Ga7       1.0  0.65500  0.69100  0.34500  1.0000
  Ga  Ga8       1.0  0.12300  0.24600  0.36900  1.0000
  Ga  Ga9       1.0  0.87700  0.75400  0.63100  1.0000
  Ga  Ga10      1.0  0.96400  0.30900  0.65500  1.0000
  Ga  Ga11      1.0  0.34500  0.30900  0.65500  1.0000
  Ga  Ga12      1.0  0.34500  0.69100  0.65500  1.0000
  Ga  Ga13      1.0  0.12300  0.24600  0.87700  1.0000
  Ga  Ga14      1.0  0.12300  0.75400  0.87700  1.0000
  Ga  Ga15      1.0  0.63100  0.75400  0.87700  1.0000
  Ga  Ga16      1.0  0.65500  0.30900  0.96400  1.0000
  Hf  Hf1       1.0  0.71400  0.00000  0.28600  1.0000
  Hf  Hf2       1.0  0.28600  0.00000  0.28600  1.0000
  Hf  Hf3       1.0  0.28600  0.57100  0.28600  1.0000
  Hf  Hf4       1.0  0.28600  0.00000  0.71400  1.0000
  Hf  Hf5       1.0  0.71400  0.42900  0.71400  1.0000
  Hf  Hf6       1.0  0.71400  1.00000  0.71400  1.0000
  Ru  Ru1       1.0  0.00000  0.00000  0.00000  1.0000
  Ru  Ru2       1.0  0.50000  0.00000  0.00000  1.0000
  Ru  Ru3       1.0  0.00000  0.50000  0.00000  1.0000
  Ru  Ru4       1.0  0.50000  0.50000  0.00000  1.0000
  Ru  Ru5       1.0  0.00000  0.00000  0.50000  1.0000
  Ru  Ru6       1.0  0.00000  0.50000  0.50000  1.0000
  Ru  Ru7       1.0  0.50000  0.50000  0.50000  1.0000
