data_image0
_chemical_formula_structural       Ga16Pd7Zr6
_chemical_formula_sum              "Ga16 Pd7 Zr6"
_cell_length_a       8.85046
_cell_length_b       8.85046
_cell_length_c       8.85046
_cell_angle_alpha    120
_cell_angle_beta     90
_cell_angle_gamma    120

_space_group_name_H-M_alt    "P 1"
_space_group_IT_number       1

loop_
  _space_group_symop_operation_xyz
  'x, y, z'

loop_
  _atom_site_type_symbol
  _atom_site_label
  _atom_site_symmetry_multiplicity
  _atom_site_fract_x
  _atom_site_fract_y
  _atom_site_fract_z
  _atom_site_occupancy
  Ga  Ga1       1.0  0.34400  0.68800  0.03150  1.0000
  Ga  Ga2       1.0  0.36900  0.24600  0.12300  1.0000
  Ga  Ga3       1.0  0.87700  0.24600  0.12300  1.0000
  Ga  Ga4       1.0  0.87700  0.75400  0.12300  1.0000
  Ga  Ga5       1.0  0.65600  0.31200  0.34400  1.0000
  Ga  Ga6       1.0  0.03150  0.68800  0.34400  1.0000
  Ga  Ga7       1.0  0.65600  0.68800  0.34400  1.0000
  Ga  Ga8       1.0  0.12300  0.24600  0.36900  1.0000
  Ga  Ga9       1.0  0.87700  0.75400  0.63100  1.0000
  Ga  Ga10      1.0  0.34400  0.31200  0.65600  1.0000
  Ga  Ga11      1.0  0.96800  0.31200  0.65600  1.0000
  Ga  Ga12      1.0  0.34400  0.68800  0.65600  1.0000
  Ga  Ga13      1.0  0.12300  0.24600  0.87700  1.0000
  Ga  Ga14      1.0  0.12300  0.75400  0.87700  1.0000
  Ga  Ga15      1.0  0.63100  0.75400  0.87700  1.0000
  Ga  Ga16      1.0  0.65600  0.31200  0.96800  1.0000
  Pd  Pd1       1.0  0.00000  0.00000  0.00000  1.0000
  Pd  Pd2       1.0  0.50000  0.00000  0.00000  1.0000
  Pd  Pd3       1.0  0.00000  0.50000  0.00000  1.0000
  Pd  Pd4       1.0  0.50000  0.50000  0.00000  1.0000
  Pd  Pd5       1.0  0.00000  0.00000  0.50000  1.0000
  Pd  Pd6       1.0  0.00000  0.50000  0.50000  1.0000
  Pd  Pd7       1.0  0.50000  0.50000  0.50000  1.0000
  Zr  Zr1       1.0  0.69900  0.00000  0.30100  1.0000
  Zr  Zr2       1.0  0.30100  0.00000  0.30100  1.0000
  Zr  Zr3       1.0  0.30100  0.60300  0.30100  1.0000
  Zr  Zr4       1.0  0.30100  0.00000  0.69900  1.0000
  Zr  Zr5       1.0  0.69900  0.39700  0.69900  1.0000
  Zr  Zr6       1.0  0.69900  0.00000  0.69900  1.0000
