data_image0
_chemical_formula_structural       F18Ni6Rb6
_chemical_formula_sum              "F18 Ni6 Rb6"
_cell_length_a       5.5801
_cell_length_b       5.58019
_cell_length_c       13.7714
_cell_angle_alpha    89.9965
_cell_angle_beta     89.9839
_cell_angle_gamma    120.025

_space_group_name_H-M_alt    "P 1"
_space_group_IT_number       1

loop_
  _space_group_symop_operation_xyz
  'x, y, z'

loop_
  _atom_site_type_symbol
  _atom_site_label
  _atom_site_symmetry_multiplicity
  _atom_site_fract_x
  _atom_site_fract_y
  _atom_site_fract_z
  _atom_site_occupancy
  F   F1        1.0  0.50500  0.01050  0.25000  1.0000
  F   F2        1.0  0.49500  0.99000  0.75000  1.0000
  F   F3        1.0  0.99000  0.49500  0.25000  1.0000
  F   F4        1.0  0.50500  0.49500  0.25000  1.0000
  F   F5        1.0  0.49500  0.50500  0.75000  1.0000
  F   F6        1.0  0.01020  0.50500  0.75000  1.0000
  F   F7        1.0  0.83400  0.66800  0.08040  1.0000
  F   F8        1.0  0.16600  0.33200  0.58000  1.0000
  F   F9        1.0  0.33200  0.16600  0.08040  1.0000
  F   F10       1.0  0.83400  0.16600  0.08050  1.0000
  F   F11       1.0  0.16600  0.83400  0.58000  1.0000
  F   F12       1.0  0.66800  0.83400  0.58000  1.0000
  F   F13       1.0  0.16600  0.33200  0.92000  1.0000
  F   F14       1.0  0.16600  0.83400  0.91900  1.0000
  F   F15       1.0  0.66800  0.83400  0.91900  1.0000
  F   F16       1.0  0.33200  0.16600  0.42000  1.0000
  F   F17       1.0  0.83400  0.16600  0.42000  1.0000
  F   F18       1.0  0.83400  0.66800  0.42000  1.0000
  Ni  Ni1       1.0  0.33300  0.66700  0.84200  1.0000
  Ni  Ni2       1.0  0.66700  0.33300  0.34200  1.0000
  Ni  Ni3       1.0  0.66700  0.33300  0.15800  1.0000
  Ni  Ni4       1.0  0.33300  0.66700  0.65800  1.0000
  Ni  Ni5       1.0  0.00000  0.00000  0.00000  1.0000
  Ni  Ni6       1.0  0.00002  0.00002  0.50000  1.0000
  Rb  Rb1       1.0  0.33300  0.66700  0.09020  1.0000
  Rb  Rb2       1.0  0.66700  0.33300  0.59000  1.0000
  Rb  Rb3       1.0  0.66700  0.33300  0.91000  1.0000
  Rb  Rb4       1.0  0.33300  0.66700  0.41000  1.0000
  Rb  Rb5       1.0  0.00000  0.00004  0.25000  1.0000
  Rb  Rb6       1.0  0.00005  0.00000  0.75000  1.0000
