data_image0
_chemical_formula_structural       Al10B2O18
_chemical_formula_sum              "Al10 B2 O18"
_cell_length_a       5.68762
_cell_length_b       7.67837
_cell_length_c       8.01144
_cell_angle_alpha    90
_cell_angle_beta     69.2085
_cell_angle_gamma    90

_space_group_name_H-M_alt    "P 1"
_space_group_IT_number       1

loop_
  _space_group_symop_operation_xyz
  'x, y, z'

loop_
  _atom_site_type_symbol
  _atom_site_label
  _atom_site_symmetry_multiplicity
  _atom_site_fract_x
  _atom_site_fract_y
  _atom_site_fract_z
  _atom_site_occupancy
  Al  Al1       1.0  0.44400  0.51800  0.11200  1.0000
  Al  Al2       1.0  0.13600  0.83300  0.23200  1.0000
  Al  Al3       1.0  0.63200  0.83300  0.23200  1.0000
  Al  Al4       1.0  0.29700  0.16700  0.40500  1.0000
  Al  Al5       1.0  0.25500  0.51800  0.49000  1.0000
  Al  Al6       1.0  0.74500  0.01810  0.51000  1.0000
  Al  Al7       1.0  0.70300  0.66700  0.59500  1.0000
  Al  Al8       1.0  0.36800  0.33300  0.76800  1.0000
  Al  Al9       1.0  0.86400  0.33300  0.76800  1.0000
  Al  Al10      1.0  0.55600  0.01820  0.88800  1.0000
  B   B1        1.0  0.98400  0.55500  0.03160  1.0000
  B   B2        1.0  0.01580  0.05470  0.96800  1.0000
  O   O1        1.0  0.45500  0.90500  0.09080  1.0000
  O   O2        1.0  0.95400  0.92500  0.09230  1.0000
  O   O3        1.0  0.16300  0.61900  0.09620  1.0000
  O   O4        1.0  0.74100  0.61900  0.09620  1.0000
  O   O5        1.0  0.35300  0.37100  0.29500  1.0000
  O   O6        1.0  0.32900  0.70400  0.34200  1.0000
  O   O7        1.0  0.06680  0.03450  0.37900  1.0000
  O   O8        1.0  0.55400  0.03450  0.37900  1.0000
  O   O9        1.0  0.80900  0.76800  0.38200  1.0000
  O   O10       1.0  0.19100  0.26800  0.61800  1.0000
  O   O11       1.0  0.44600  0.53500  0.62100  1.0000
  O   O12       1.0  0.93300  0.53500  0.62100  1.0000
  O   O13       1.0  0.67100  0.20400  0.65800  1.0000
  O   O14       1.0  0.64700  0.87100  0.70500  1.0000
  O   O15       1.0  0.25900  0.11900  0.90400  1.0000
  O   O16       1.0  0.83700  0.11900  0.90400  1.0000
  O   O17       1.0  0.04610  0.42500  0.90800  1.0000
  O   O18       1.0  0.54500  0.40500  0.90900  1.0000
