data_image0
_chemical_formula_structural       Mn16Nd6Ni7
_chemical_formula_sum              "Mn16 Nd6 Ni7"
_cell_length_a       8.72118
_cell_length_b       8.72118
_cell_length_c       8.72118
_cell_angle_alpha    120
_cell_angle_beta     90
_cell_angle_gamma    120

_space_group_name_H-M_alt    "P 1"
_space_group_IT_number       1

loop_
  _space_group_symop_operation_xyz
  'x, y, z'

loop_
  _atom_site_type_symbol
  _atom_site_label
  _atom_site_symmetry_multiplicity
  _atom_site_fract_x
  _atom_site_fract_y
  _atom_site_fract_z
  _atom_site_occupancy
  Mn  Mn1       1.0  0.67700  0.35500  0.03230  1.0000
  Mn  Mn2       1.0  0.36100  0.24100  0.12000  1.0000
  Mn  Mn3       1.0  0.88000  0.24100  0.12000  1.0000
  Mn  Mn4       1.0  0.88000  0.75900  0.12000  1.0000
  Mn  Mn5       1.0  0.67700  0.35500  0.32300  1.0000
  Mn  Mn6       1.0  0.67700  0.64500  0.32300  1.0000
  Mn  Mn7       1.0  0.96800  0.64500  0.32300  1.0000
  Mn  Mn8       1.0  0.12000  0.24100  0.36100  1.0000
  Mn  Mn9       1.0  0.88000  0.75900  0.63900  1.0000
  Mn  Mn10      1.0  0.03230  0.35500  0.67700  1.0000
  Mn  Mn11      1.0  0.32300  0.35500  0.67700  1.0000
  Mn  Mn12      1.0  0.32300  0.64500  0.67700  1.0000
  Mn  Mn13      1.0  0.12000  0.24100  0.88000  1.0000
  Mn  Mn14      1.0  0.12000  0.75900  0.88000  1.0000
  Mn  Mn15      1.0  0.63900  0.75900  0.88000  1.0000
  Mn  Mn16      1.0  0.32300  0.64500  0.96800  1.0000
  Nd  Nd1       1.0  0.29600  0.00000  0.29600  1.0000
  Nd  Nd2       1.0  0.29600  0.59200  0.29600  1.0000
  Nd  Nd3       1.0  0.70400  0.00000  0.29600  1.0000
  Nd  Nd4       1.0  0.29600  0.00000  0.70400  1.0000
  Nd  Nd5       1.0  0.70400  0.40800  0.70400  1.0000
  Nd  Nd6       1.0  0.70400  0.00000  0.70400  1.0000
  Ni  Ni1       1.0  0.00000  0.00000  0.00000  1.0000
  Ni  Ni2       1.0  0.50000  0.00000  0.00000  1.0000
  Ni  Ni3       1.0  0.00000  0.50000  0.00000  1.0000
  Ni  Ni4       1.0  0.50000  0.50000  0.00000  1.0000
  Ni  Ni5       1.0  0.00000  0.00000  0.50000  1.0000
  Ni  Ni6       1.0  0.00000  0.50000  0.50000  1.0000
  Ni  Ni7       1.0  0.50000  0.50000  0.50000  1.0000
