data_image0
_chemical_formula_structural       Eu4O11Re4
_chemical_formula_sum              "Eu4 O11 Re4"
_cell_length_a       5.4934
_cell_length_b       5.52529
_cell_length_c       7.55646
_cell_angle_alpha    90
_cell_angle_beta     90
_cell_angle_gamma    90.1735

_space_group_name_H-M_alt    "P 1"
_space_group_IT_number       1

loop_
  _space_group_symop_operation_xyz
  'x, y, z'

loop_
  _atom_site_type_symbol
  _atom_site_label
  _atom_site_symmetry_multiplicity
  _atom_site_fract_x
  _atom_site_fract_y
  _atom_site_fract_z
  _atom_site_occupancy
  Eu  Eu1       1.0  0.99900  0.01710  0.25000  1.0000
  Eu  Eu2       1.0  0.49900  0.52900  0.25000  1.0000
  Eu  Eu3       1.0  0.50200  0.48000  0.75000  1.0000
  Eu  Eu4       1.0  0.00499  0.95200  0.75000  1.0000
  O   O1        1.0  0.77300  0.77400  0.03660  1.0000
  O   O2        1.0  0.72900  0.27500  0.04240  1.0000
  O   O3        1.0  0.43800  0.99200  0.25000  1.0000
  O   O4        1.0  0.72900  0.27500  0.45800  1.0000
  O   O5        1.0  0.77300  0.77400  0.46300  1.0000
  O   O6        1.0  0.21800  0.22700  0.51300  1.0000
  O   O7        1.0  0.27700  0.71900  0.51800  1.0000
  O   O8        1.0  0.55800  0.01490  0.75000  1.0000
  O   O9        1.0  0.93100  0.52100  0.75000  1.0000
  O   O10       1.0  0.27700  0.71900  0.98200  1.0000
  O   O11       1.0  0.21800  0.22700  0.98700  1.0000
  Re  Re1       1.0  0.50200  0.00471  0.00417  1.0000
  Re  Re2       1.0  0.99900  0.50200  0.04530  1.0000
  Re  Re3       1.0  0.99900  0.50200  0.45500  1.0000
  Re  Re4       1.0  0.50200  0.00471  0.49600  1.0000
