data_image0
_chemical_formula_structural       I18Rb6Ti6
_chemical_formula_sum              "I18 Rb6 Ti6"
_cell_length_a       14.1475
_cell_length_b       14.1475
_cell_length_c       6.94071
_cell_angle_alpha    90
_cell_angle_beta     90
_cell_angle_gamma    120.005

_space_group_name_H-M_alt    "P 1"
_space_group_IT_number       1

loop_
  _space_group_symop_operation_xyz
  'x, y, z'

loop_
  _atom_site_type_symbol
  _atom_site_label
  _atom_site_symmetry_multiplicity
  _atom_site_fract_x
  _atom_site_fract_y
  _atom_site_fract_z
  _atom_site_occupancy
  I   I1        1.0  0.83700  0.83700  0.23800  1.0000
  I   I2        1.0  0.16300  0.00000  0.23800  1.0000
  I   I3        1.0  0.00000  0.16300  0.23800  1.0000
  I   I4        1.0  0.50300  0.17200  0.33700  1.0000
  I   I5        1.0  0.17200  0.50300  0.33700  1.0000
  I   I6        1.0  0.82800  0.33100  0.33700  1.0000
  I   I7        1.0  0.33100  0.82800  0.33700  1.0000
  I   I8        1.0  0.66900  0.49700  0.33700  1.0000
  I   I9        1.0  0.49700  0.66900  0.33700  1.0000
  I   I10       1.0  0.16300  0.16300  0.73800  1.0000
  I   I11       1.0  0.83700  0.00000  0.73800  1.0000
  I   I12       1.0  0.00000  0.83700  0.73800  1.0000
  I   I13       1.0  0.82800  0.49700  0.83700  1.0000
  I   I14       1.0  0.49700  0.82800  0.83700  1.0000
  I   I15       1.0  0.66900  0.17200  0.83700  1.0000
  I   I16       1.0  0.17200  0.66900  0.83700  1.0000
  I   I17       1.0  0.50300  0.33100  0.83700  1.0000
  I   I18       1.0  0.33100  0.50300  0.83700  1.0000
  Rb  Rb1       1.0  0.66600  0.00000  0.29300  1.0000
  Rb  Rb2       1.0  0.00000  0.66600  0.29300  1.0000
  Rb  Rb3       1.0  0.33400  0.33400  0.29300  1.0000
  Rb  Rb4       1.0  0.33400  0.00000  0.79300  1.0000
  Rb  Rb5       1.0  0.00000  0.33400  0.79300  1.0000
  Rb  Rb6       1.0  0.66600  0.66600  0.79300  1.0000
  Ti  Ti1       1.0  0.66700  0.33300  0.08660  1.0000
  Ti  Ti2       1.0  0.33300  0.66700  0.08660  1.0000
  Ti  Ti3       1.0  0.00000  0.00000  0.48900  1.0000
  Ti  Ti4       1.0  0.66700  0.33300  0.58700  1.0000
  Ti  Ti5       1.0  0.33300  0.66700  0.58700  1.0000
  Ti  Ti6       1.0  0.00000  0.00000  0.98900  1.0000
