data_image0
_chemical_formula_structural       Cr4O11Pr4
_chemical_formula_sum              "Cr4 O11 Pr4"
_cell_length_a       5.47479
_cell_length_b       5.56738
_cell_length_c       7.79608
_cell_angle_alpha    90.148
_cell_angle_beta     89.7268
_cell_angle_gamma    90.4609

_space_group_name_H-M_alt    "P 1"
_space_group_IT_number       1

loop_
  _space_group_symop_operation_xyz
  'x, y, z'

loop_
  _atom_site_type_symbol
  _atom_site_label
  _atom_site_symmetry_multiplicity
  _atom_site_fract_x
  _atom_site_fract_y
  _atom_site_fract_z
  _atom_site_occupancy
  Cr  Cr1       1.0  0.99500  0.49400  0.00035  1.0000
  Cr  Cr2       1.0  0.99500  0.49700  0.50000  1.0000
  Cr  Cr3       1.0  0.50300  0.00311  0.50000  1.0000
  Cr  Cr4       1.0  0.50600  0.00429  0.99900  1.0000
  O   O1        1.0  0.79200  0.79000  0.04750  1.0000
  O   O2        1.0  0.08020  0.47600  0.25100  1.0000
  O   O3        1.0  0.42400  0.98600  0.25100  1.0000
  O   O4        1.0  0.70600  0.29200  0.44700  1.0000
  O   O5        1.0  0.79000  0.78900  0.45600  1.0000
  O   O6        1.0  0.29000  0.71000  0.54100  1.0000
  O   O7        1.0  0.20600  0.20800  0.54600  1.0000
  O   O8        1.0  0.59100  0.02950  0.74900  1.0000
  O   O9        1.0  0.90900  0.51700  0.75000  1.0000
  O   O10       1.0  0.21000  0.20900  0.95700  1.0000
  O   O11       1.0  0.29500  0.70700  0.95800  1.0000
  Pr  Pr1       1.0  0.50600  0.55400  0.24800  1.0000
  Pr  Pr2       1.0  0.99900  0.03890  0.25400  1.0000
  Pr  Pr3       1.0  0.48200  0.45700  0.74500  1.0000
  Pr  Pr4       1.0  0.01320  0.94900  0.75400  1.0000
