data_image0
_chemical_formula_structural       Ba6Li24
_chemical_formula_sum              "Ba6 Li24"
_cell_length_a       10.512
_cell_length_b       10.5117
_cell_length_c       8.58959
_cell_angle_alpha    90
_cell_angle_beta     90
_cell_angle_gamma    120.001

_space_group_name_H-M_alt    "P 1"
_space_group_IT_number       1

loop_
  _space_group_symop_operation_xyz
  'x, y, z'

loop_
  _atom_site_type_symbol
  _atom_site_label
  _atom_site_symmetry_multiplicity
  _atom_site_fract_x
  _atom_site_fract_y
  _atom_site_fract_z
  _atom_site_occupancy
  Ba  Ba1       1.0  0.47200  0.52800  0.25000  1.0000
  Ba  Ba2       1.0  0.05650  0.52800  0.25000  1.0000
  Ba  Ba3       1.0  0.47200  0.94300  0.25000  1.0000
  Ba  Ba4       1.0  0.52800  0.05650  0.75000  1.0000
  Ba  Ba5       1.0  0.94300  0.47200  0.75000  1.0000
  Ba  Ba6       1.0  0.52800  0.47200  0.75000  1.0000
  Li  Li1       1.0  0.00000  0.00000  0.00000  1.0000
  Li  Li2       1.0  0.83600  0.16400  0.06770  1.0000
  Li  Li3       1.0  0.32700  0.16400  0.06770  1.0000
  Li  Li4       1.0  0.83600  0.67300  0.06770  1.0000
  Li  Li5       1.0  0.66700  0.33300  0.08640  1.0000
  Li  Li6       1.0  0.09980  0.20000  0.25000  1.0000
  Li  Li7       1.0  0.80000  0.90000  0.25000  1.0000
  Li  Li8       1.0  0.09980  0.90000  0.25000  1.0000
  Li  Li9       1.0  0.66700  0.33300  0.41400  1.0000
  Li  Li10      1.0  0.83600  0.67300  0.43200  1.0000
  Li  Li11      1.0  0.83600  0.16400  0.43200  1.0000
  Li  Li12      1.0  0.32700  0.16400  0.43200  1.0000
  Li  Li13      1.0  0.00000  0.00000  0.50000  1.0000
  Li  Li14      1.0  0.67300  0.83600  0.56800  1.0000
  Li  Li15      1.0  0.16400  0.83600  0.56800  1.0000
  Li  Li16      1.0  0.16400  0.32700  0.56800  1.0000
  Li  Li17      1.0  0.33300  0.66700  0.58600  1.0000
  Li  Li18      1.0  0.90000  0.09980  0.75000  1.0000
  Li  Li19      1.0  0.20000  0.09980  0.75000  1.0000
  Li  Li20      1.0  0.90000  0.80000  0.75000  1.0000
  Li  Li21      1.0  0.33300  0.66700  0.91400  1.0000
  Li  Li22      1.0  0.16400  0.32700  0.93200  1.0000
  Li  Li23      1.0  0.67300  0.83600  0.93200  1.0000
  Li  Li24      1.0  0.16400  0.83600  0.93200  1.0000
