data_image0
_chemical_formula_structural       Ge6O18Ti2Tl4
_chemical_formula_sum              "Ge6 O18 Ti2 Tl4"
_cell_length_a       6.97448
_cell_length_b       6.97444
_cell_length_c       10.386
_cell_angle_alpha    90
_cell_angle_beta     90
_cell_angle_gamma    120

_space_group_name_H-M_alt    "P 1"
_space_group_IT_number       1

loop_
  _space_group_symop_operation_xyz
  'x, y, z'

loop_
  _atom_site_type_symbol
  _atom_site_label
  _atom_site_symmetry_multiplicity
  _atom_site_fract_x
  _atom_site_fract_y
  _atom_site_fract_z
  _atom_site_occupancy
  Ge  Ge1       1.0  0.75500  0.12000  0.25000  1.0000
  Ge  Ge2       1.0  0.36600  0.24500  0.25000  1.0000
  Ge  Ge3       1.0  0.88000  0.63400  0.25000  1.0000
  Ge  Ge4       1.0  0.12000  0.36600  0.75000  1.0000
  Ge  Ge5       1.0  0.63400  0.75500  0.75000  1.0000
  Ge  Ge6       1.0  0.24500  0.88000  0.75000  1.0000
  O   O1        1.0  0.76600  0.99700  0.10700  1.0000
  O   O2        1.0  0.23000  0.23400  0.10700  1.0000
  O   O3        1.0  0.00341  0.77000  0.10700  1.0000
  O   O4        1.0  0.47100  0.06030  0.25000  1.0000
  O   O5        1.0  0.94000  0.41100  0.25000  1.0000
  O   O6        1.0  0.58900  0.52900  0.25000  1.0000
  O   O7        1.0  0.00341  0.77000  0.39300  1.0000
  O   O8        1.0  0.23000  0.23400  0.39300  1.0000
  O   O9        1.0  0.76600  0.99700  0.39300  1.0000
  O   O10       1.0  0.23400  0.00341  0.60700  1.0000
  O   O11       1.0  0.77000  0.76600  0.60700  1.0000
  O   O12       1.0  0.99700  0.23000  0.60700  1.0000
  O   O13       1.0  0.41100  0.47100  0.75000  1.0000
  O   O14       1.0  0.06030  0.58900  0.75000  1.0000
  O   O15       1.0  0.52900  0.94000  0.75000  1.0000
  O   O16       1.0  0.99700  0.23000  0.89300  1.0000
  O   O17       1.0  0.77000  0.76600  0.89300  1.0000
  O   O18       1.0  0.23400  0.00341  0.89300  1.0000
  Ti  Ti1       1.0  0.00000  0.00000  0.00000  1.0000
  Ti  Ti2       1.0  0.00000  0.00000  0.50000  1.0000
  Tl  Tl1       1.0  0.33300  0.66700  0.05490  1.0000
  Tl  Tl2       1.0  0.33300  0.66700  0.44500  1.0000
  Tl  Tl3       1.0  0.66700  0.33300  0.55500  1.0000
  Tl  Tl4       1.0  0.66700  0.33300  0.94500  1.0000
