data_image0
_chemical_formula_structural       Ba6O18Ru4Sm2
_chemical_formula_sum              "Ba6 O18 Ru4 Sm2"
_cell_length_a       5.92734
_cell_length_b       5.92738
_cell_length_c       14.6426
_cell_angle_alpha    90
_cell_angle_beta     90
_cell_angle_gamma    120

_space_group_name_H-M_alt    "P 1"
_space_group_IT_number       1

loop_
  _space_group_symop_operation_xyz
  'x, y, z'

loop_
  _atom_site_type_symbol
  _atom_site_label
  _atom_site_symmetry_multiplicity
  _atom_site_fract_x
  _atom_site_fract_y
  _atom_site_fract_z
  _atom_site_occupancy
  Ba  Ba1       1.0  0.66700  0.33300  0.09770  1.0000
  Ba  Ba2       1.0  0.00000  0.00000  0.25000  1.0000
  Ba  Ba3       1.0  0.66700  0.33300  0.40200  1.0000
  Ba  Ba4       1.0  0.33300  0.66700  0.59800  1.0000
  Ba  Ba5       1.0  0.00000  0.00000  0.75000  1.0000
  Ba  Ba6       1.0  0.33300  0.66700  0.90200  1.0000
  O   O1        1.0  0.17700  0.35500  0.09050  1.0000
  O   O2        1.0  0.17700  0.82300  0.09050  1.0000
  O   O3        1.0  0.64500  0.82300  0.09050  1.0000
  O   O4        1.0  0.01500  0.50800  0.25000  1.0000
  O   O5        1.0  0.49200  0.50800  0.25000  1.0000
  O   O6        1.0  0.49200  0.98500  0.25000  1.0000
  O   O7        1.0  0.17700  0.82300  0.40900  1.0000
  O   O8        1.0  0.64500  0.82300  0.40900  1.0000
  O   O9        1.0  0.17700  0.35500  0.40900  1.0000
  O   O10       1.0  0.35500  0.17700  0.59100  1.0000
  O   O11       1.0  0.82300  0.17700  0.59100  1.0000
  O   O12       1.0  0.82300  0.64500  0.59100  1.0000
  O   O13       1.0  0.50800  0.01500  0.75000  1.0000
  O   O14       1.0  0.50800  0.49200  0.75000  1.0000
  O   O15       1.0  0.98500  0.49200  0.75000  1.0000
  O   O16       1.0  0.35500  0.17700  0.90900  1.0000
  O   O17       1.0  0.82300  0.17700  0.90900  1.0000
  O   O18       1.0  0.82300  0.64500  0.90900  1.0000
  Ru  Ru1       1.0  0.33300  0.66700  0.16600  1.0000
  Ru  Ru2       1.0  0.33300  0.66700  0.33400  1.0000
  Ru  Ru3       1.0  0.66700  0.33300  0.66600  1.0000
  Ru  Ru4       1.0  0.66700  0.33300  0.83400  1.0000
  Sm  Sm1       1.0  0.00000  0.00000  0.00000  1.0000
  Sm  Sm2       1.0  0.00000  0.00000  0.50000  1.0000
