data_image0
_chemical_formula_structural       Co16Nb6Si7
_chemical_formula_sum              "Co16 Nb6 Si7"
_cell_length_a       7.89703
_cell_length_b       7.89703
_cell_length_c       7.89703
_cell_angle_alpha    120
_cell_angle_beta     90
_cell_angle_gamma    120

_space_group_name_H-M_alt    "P 1"
_space_group_IT_number       1

loop_
  _space_group_symop_operation_xyz
  'x, y, z'

loop_
  _atom_site_type_symbol
  _atom_site_label
  _atom_site_symmetry_multiplicity
  _atom_site_fract_x
  _atom_site_fract_y
  _atom_site_fract_z
  _atom_site_occupancy
  Co  Co1       1.0  0.38100  0.76200  0.14400  1.0000
  Co  Co2       1.0  0.50000  0.33300  0.16700  1.0000
  Co  Co3       1.0  0.83400  0.33300  0.16700  1.0000
  Co  Co4       1.0  0.83400  0.66700  0.16700  1.0000
  Co  Co5       1.0  0.61900  0.23800  0.38100  1.0000
  Co  Co6       1.0  0.14400  0.76200  0.38100  1.0000
  Co  Co7       1.0  0.61900  0.76200  0.38100  1.0000
  Co  Co8       1.0  0.16700  0.33300  0.50000  1.0000
  Co  Co9       1.0  0.83400  0.66700  0.50000  1.0000
  Co  Co10      1.0  0.38100  0.23800  0.61900  1.0000
  Co  Co11      1.0  0.85600  0.23800  0.61900  1.0000
  Co  Co12      1.0  0.38100  0.76200  0.61900  1.0000
  Co  Co13      1.0  0.16700  0.66700  0.83400  1.0000
  Co  Co14      1.0  0.16700  0.33300  0.83400  1.0000
  Co  Co15      1.0  0.50000  0.66700  0.83400  1.0000
  Co  Co16      1.0  0.61900  0.23800  0.85600  1.0000
  Nb  Nb1       1.0  0.20300  0.00000  0.20300  1.0000
  Nb  Nb2       1.0  0.79700  0.00000  0.20300  1.0000
  Nb  Nb3       1.0  0.20300  0.40600  0.20300  1.0000
  Nb  Nb4       1.0  0.79700  0.00000  0.79700  1.0000
  Nb  Nb5       1.0  0.20300  0.00000  0.79700  1.0000
  Nb  Nb6       1.0  0.79700  0.59400  0.79700  1.0000
  Si  Si1       1.0  0.50000  0.00000  0.00000  1.0000
  Si  Si2       1.0  0.00000  0.50000  0.00000  1.0000
  Si  Si3       1.0  0.50000  0.50000  0.00000  1.0000
  Si  Si4       1.0  0.00000  0.00000  0.50000  1.0000
  Si  Si5       1.0  0.50000  0.00000  0.50000  1.0000
  Si  Si6       1.0  0.00000  0.50000  0.50000  1.0000
  Si  Si7       1.0  0.50000  0.50000  0.50000  1.0000
