data_image0
_chemical_formula_structural       Cu16S12Si2
_chemical_formula_sum              "Cu16 S12 Si2"
_cell_length_a       6.99073
_cell_length_b       6.87274
_cell_length_c       9.69685
_cell_angle_alpha    89.9998
_cell_angle_beta     90
_cell_angle_gamma    90

_space_group_name_H-M_alt    "P 1"
_space_group_IT_number       1

loop_
  _space_group_symop_operation_xyz
  'x, y, z'

loop_
  _atom_site_type_symbol
  _atom_site_label
  _atom_site_symmetry_multiplicity
  _atom_site_fract_x
  _atom_site_fract_y
  _atom_site_fract_z
  _atom_site_occupancy
  Cu  Cu1       1.0  0.00000  0.60400  0.03260  1.0000
  Cu  Cu2       1.0  0.20400  0.14900  0.15500  1.0000
  Cu  Cu3       1.0  0.79600  0.14900  0.15500  1.0000
  Cu  Cu4       1.0  0.20400  0.52500  0.25900  1.0000
  Cu  Cu5       1.0  0.79600  0.52500  0.25900  1.0000
  Cu  Cu6       1.0  0.29300  0.88700  0.35400  1.0000
  Cu  Cu7       1.0  0.70700  0.88700  0.35400  1.0000
  Cu  Cu8       1.0  0.00000  0.73100  0.47800  1.0000
  Cu  Cu9       1.0  0.50000  0.39600  0.53300  1.0000
  Cu  Cu10      1.0  0.29600  0.85100  0.65500  1.0000
  Cu  Cu11      1.0  0.70400  0.85100  0.65500  1.0000
  Cu  Cu12      1.0  0.29600  0.47500  0.75900  1.0000
  Cu  Cu13      1.0  0.70400  0.47500  0.75900  1.0000
  Cu  Cu14      1.0  0.20700  0.11300  0.85400  1.0000
  Cu  Cu15      1.0  0.79300  0.11300  0.85400  1.0000
  Cu  Cu16      1.0  0.50000  0.26900  0.97800  1.0000
  S   S1        1.0  0.00000  0.27000  0.00050  1.0000
  S   S2        1.0  0.50000  0.50400  0.14200  1.0000
  S   S3        1.0  0.50000  0.99600  0.14400  1.0000
  S   S4        1.0  0.00000  0.78700  0.24500  1.0000
  S   S5        1.0  0.25500  0.24600  0.39100  1.0000
  S   S6        1.0  0.74500  0.24600  0.39100  1.0000
  S   S7        1.0  0.50000  0.73000  0.50100  1.0000
  S   S8        1.0  0.00000  0.49600  0.64200  1.0000
  S   S9        1.0  0.00000  0.00433  0.64400  1.0000
  S   S10       1.0  0.50000  0.21300  0.74500  1.0000
  S   S11       1.0  0.24500  0.75400  0.89100  1.0000
  S   S12       1.0  0.75500  0.75400  0.89100  1.0000
  Si  Si1       1.0  0.50000  0.74900  0.01020  1.0000
  Si  Si2       1.0  0.00000  0.25100  0.51000  1.0000
