data_image0
_chemical_formula_structural       B8Gd4O18
_chemical_formula_sum              "B8 Gd4 O18"
_cell_length_a       6.16357
_cell_length_b       6.43449
_cell_length_c       7.49481
_cell_angle_alpha    102.503
_cell_angle_beta     97.1862
_cell_angle_gamma    102.628

_space_group_name_H-M_alt    "P 1"
_space_group_IT_number       1

loop_
  _space_group_symop_operation_xyz
  'x, y, z'

loop_
  _atom_site_type_symbol
  _atom_site_label
  _atom_site_symmetry_multiplicity
  _atom_site_fract_x
  _atom_site_fract_y
  _atom_site_fract_z
  _atom_site_occupancy
  B   B1        1.0  0.26800  0.66600  0.01940  1.0000
  B   B2        1.0  0.33800  0.31900  0.07320  1.0000
  B   B3        1.0  0.99500  0.14600  0.18900  1.0000
  B   B4        1.0  0.37400  0.64300  0.34900  1.0000
  B   B5        1.0  0.62600  0.35700  0.65100  1.0000
  B   B6        1.0  0.00518  0.85400  0.81100  1.0000
  B   B7        1.0  0.66200  0.68100  0.92700  1.0000
  B   B8        1.0  0.73200  0.33400  0.98100  1.0000
  Gd  Gd1       1.0  0.54800  0.09230  0.28500  1.0000
  Gd  Gd2       1.0  0.88700  0.67800  0.36000  1.0000
  Gd  Gd3       1.0  0.11300  0.32200  0.64000  1.0000
  Gd  Gd4       1.0  0.45200  0.90800  0.71500  1.0000
  O   O1        1.0  0.50500  0.78900  0.02040  1.0000
  O   O2        1.0  0.77500  0.57200  0.03990  1.0000
  O   O3        1.0  0.18700  0.13000  0.11800  1.0000
  O   O4        1.0  0.86200  0.28300  0.14300  1.0000
  O   O5        1.0  0.23600  0.73700  0.21100  1.0000
  O   O6        1.0  0.46100  0.46200  0.25200  1.0000
  O   O7        1.0  0.93300  0.04710  0.32500  1.0000
  O   O8        1.0  0.58000  0.81800  0.44500  1.0000
  O   O9        1.0  0.22100  0.59300  0.47600  1.0000
  O   O10       1.0  0.77900  0.40700  0.52400  1.0000
  O   O11       1.0  0.42000  0.18200  0.55500  1.0000
  O   O12       1.0  0.06660  0.95300  0.67500  1.0000
  O   O13       1.0  0.53900  0.53800  0.74800  1.0000
  O   O14       1.0  0.76400  0.26300  0.78900  1.0000
  O   O15       1.0  0.13800  0.71700  0.85700  1.0000
  O   O16       1.0  0.81300  0.87000  0.88200  1.0000
  O   O17       1.0  0.22500  0.42800  0.96000  1.0000
  O   O18       1.0  0.49500  0.21100  0.98000  1.0000
