data_image0
_chemical_formula_structural       As10Ba2Ni18
_chemical_formula_sum              "As10 Ba2 Ni18"
_cell_length_a       6.75839
_cell_length_b       6.75696
_cell_length_c       11.2887
_cell_angle_alpha    90
_cell_angle_beta     90
_cell_angle_gamma    120.007

_space_group_name_H-M_alt    "P 1"
_space_group_IT_number       1

loop_
  _space_group_symop_operation_xyz
  'x, y, z'

loop_
  _atom_site_type_symbol
  _atom_site_label
  _atom_site_symmetry_multiplicity
  _atom_site_fract_x
  _atom_site_fract_y
  _atom_site_fract_z
  _atom_site_occupancy
  As  As1       1.0  0.33300  0.66700  0.06100  1.0000
  As  As2       1.0  0.34500  0.17300  0.25000  1.0000
  As  As3       1.0  0.82700  0.17300  0.25000  1.0000
  As  As4       1.0  0.82700  0.65500  0.25000  1.0000
  As  As5       1.0  0.33300  0.66700  0.43900  1.0000
  As  As6       1.0  0.66700  0.33300  0.56100  1.0000
  As  As7       1.0  0.17300  0.34500  0.75000  1.0000
  As  As8       1.0  0.17300  0.82700  0.75000  1.0000
  As  As9       1.0  0.65500  0.82700  0.75000  1.0000
  As  As10      1.0  0.66700  0.33300  0.93900  1.0000
  Ba  Ba1       1.0  0.00000  0.00000  0.00000  1.0000
  Ba  Ba2       1.0  0.00000  0.00000  0.50000  1.0000
  Ni  Ni1       1.0  0.53600  0.07140  0.10700  1.0000
  Ni  Ni2       1.0  0.53600  0.46400  0.10700  1.0000
  Ni  Ni3       1.0  0.92900  0.46400  0.10700  1.0000
  Ni  Ni4       1.0  0.20900  0.41800  0.25000  1.0000
  Ni  Ni5       1.0  0.20900  0.79100  0.25000  1.0000
  Ni  Ni6       1.0  0.58200  0.79100  0.25000  1.0000
  Ni  Ni7       1.0  0.53600  0.46400  0.39300  1.0000
  Ni  Ni8       1.0  0.92900  0.46400  0.39300  1.0000
  Ni  Ni9       1.0  0.53600  0.07140  0.39300  1.0000
  Ni  Ni10      1.0  0.46400  0.92900  0.60700  1.0000
  Ni  Ni11      1.0  0.07140  0.53600  0.60700  1.0000
  Ni  Ni12      1.0  0.46400  0.53600  0.60700  1.0000
  Ni  Ni13      1.0  0.41800  0.20900  0.75000  1.0000
  Ni  Ni14      1.0  0.79100  0.20900  0.75000  1.0000
  Ni  Ni15      1.0  0.79100  0.58200  0.75000  1.0000
  Ni  Ni16      1.0  0.07140  0.53600  0.89300  1.0000
  Ni  Ni17      1.0  0.46400  0.53600  0.89300  1.0000
  Ni  Ni18      1.0  0.46400  0.92900  0.89300  1.0000
