data_image0
_chemical_formula_structural       Tb6Zn23
_chemical_formula_sum              "Tb6 Zn23"
_cell_length_a       8.95299
_cell_length_b       8.95299
_cell_length_c       8.95299
_cell_angle_alpha    120
_cell_angle_beta     90
_cell_angle_gamma    120

_space_group_name_H-M_alt    "P 1"
_space_group_IT_number       1

loop_
  _space_group_symop_operation_xyz
  'x, y, z'

loop_
  _atom_site_type_symbol
  _atom_site_label
  _atom_site_symmetry_multiplicity
  _atom_site_fract_x
  _atom_site_fract_y
  _atom_site_fract_z
  _atom_site_occupancy
  Tb  Tb1       1.0  0.70700  0.00000  0.29300  1.0000
  Tb  Tb2       1.0  0.29300  0.00000  0.29300  1.0000
  Tb  Tb3       1.0  0.29300  0.58700  0.29300  1.0000
  Tb  Tb4       1.0  0.29300  0.00000  0.70700  1.0000
  Tb  Tb5       1.0  0.70700  0.00000  0.70700  1.0000
  Tb  Tb6       1.0  0.70700  0.41300  0.70700  1.0000
  Zn  Zn1       1.0  0.00000  0.00000  0.00000  1.0000
  Zn  Zn2       1.0  0.50000  0.00000  0.00000  1.0000
  Zn  Zn3       1.0  0.00000  0.50000  0.00000  1.0000
  Zn  Zn4       1.0  0.50000  0.50000  0.00000  1.0000
  Zn  Zn5       1.0  0.67100  0.34200  0.01360  1.0000
  Zn  Zn6       1.0  0.87700  0.75400  0.12300  1.0000
  Zn  Zn7       1.0  0.36900  0.24600  0.12300  1.0000
  Zn  Zn8       1.0  0.87700  0.24600  0.12300  1.0000
  Zn  Zn9       1.0  0.67100  0.34200  0.32900  1.0000
  Zn  Zn10      1.0  0.67100  0.65800  0.32900  1.0000
  Zn  Zn11      1.0  0.98600  0.65800  0.32900  1.0000
  Zn  Zn12      1.0  0.12300  0.24600  0.36900  1.0000
  Zn  Zn13      1.0  0.00000  0.00000  0.50000  1.0000
  Zn  Zn14      1.0  0.00000  0.50000  0.50000  1.0000
  Zn  Zn15      1.0  0.50000  0.50000  0.50000  1.0000
  Zn  Zn16      1.0  0.87700  0.75400  0.63100  1.0000
  Zn  Zn17      1.0  0.01360  0.34200  0.67100  1.0000
  Zn  Zn18      1.0  0.32900  0.34200  0.67100  1.0000
  Zn  Zn19      1.0  0.32900  0.65800  0.67100  1.0000
  Zn  Zn20      1.0  0.12300  0.75400  0.87700  1.0000
  Zn  Zn21      1.0  0.63100  0.75400  0.87700  1.0000
  Zn  Zn22      1.0  0.12300  0.24600  0.87700  1.0000
  Zn  Zn23      1.0  0.32900  0.65800  0.98600  1.0000
