data_image0
_chemical_formula_structural       Al10Nb20
_chemical_formula_sum              "Al10 Nb20"
_cell_length_a       9.98392
_cell_length_b       9.98392
_cell_length_c       5.19389
_cell_angle_alpha    90
_cell_angle_beta     90
_cell_angle_gamma    90

_space_group_name_H-M_alt    "P 1"
_space_group_IT_number       1

loop_
  _space_group_symop_operation_xyz
  'x, y, z'

loop_
  _atom_site_type_symbol
  _atom_site_label
  _atom_site_symmetry_multiplicity
  _atom_site_fract_x
  _atom_site_fract_y
  _atom_site_fract_z
  _atom_site_occupancy
  Al  Al1       1.0  0.00000  0.00000  0.00000  1.0000
  Al  Al2       1.0  0.73800  0.06700  0.00000  1.0000
  Al  Al3       1.0  0.93300  0.26200  0.00000  1.0000
  Al  Al4       1.0  0.06700  0.73800  0.00000  1.0000
  Al  Al5       1.0  0.26200  0.93300  0.00000  1.0000
  Al  Al6       1.0  0.43300  0.23800  0.50000  1.0000
  Al  Al7       1.0  0.23800  0.43300  0.50000  1.0000
  Al  Al8       1.0  0.50000  0.50000  0.50000  1.0000
  Al  Al9       1.0  0.76200  0.56700  0.50000  1.0000
  Al  Al10      1.0  0.56700  0.76200  0.50000  1.0000
  Nb  Nb1       1.0  0.46500  0.12800  0.00000  1.0000
  Nb  Nb2       1.0  0.39600  0.39600  0.00000  1.0000
  Nb  Nb3       1.0  0.12800  0.46500  0.00000  1.0000
  Nb  Nb4       1.0  0.87200  0.53500  0.00000  1.0000
  Nb  Nb5       1.0  0.60400  0.60400  0.00000  1.0000
  Nb  Nb6       1.0  0.53500  0.87200  0.00000  1.0000
  Nb  Nb7       1.0  0.68200  0.31800  0.24800  1.0000
  Nb  Nb8       1.0  0.31800  0.68200  0.24800  1.0000
  Nb  Nb9       1.0  0.18200  0.18200  0.25200  1.0000
  Nb  Nb10      1.0  0.81800  0.81800  0.25200  1.0000
  Nb  Nb11      1.0  0.62800  0.03530  0.50000  1.0000
  Nb  Nb12      1.0  0.89600  0.10400  0.50000  1.0000
  Nb  Nb13      1.0  0.96500  0.37200  0.50000  1.0000
  Nb  Nb14      1.0  0.03530  0.62800  0.50000  1.0000
  Nb  Nb15      1.0  0.10400  0.89600  0.50000  1.0000
  Nb  Nb16      1.0  0.37200  0.96500  0.50000  1.0000
  Nb  Nb17      1.0  0.18200  0.18200  0.74800  1.0000
  Nb  Nb18      1.0  0.81800  0.81800  0.74800  1.0000
  Nb  Nb19      1.0  0.68200  0.31800  0.75200  1.0000
  Nb  Nb20      1.0  0.31800  0.68200  0.75200  1.0000
