data_image0
_chemical_formula_structural       Cl6La6O14Si4
_chemical_formula_sum              "Cl6 La6 O14 Si4"
_cell_length_a       5.35851
_cell_length_b       12.1202
_cell_length_c       7.90873
_cell_angle_alpha    90
_cell_angle_beta     108.801
_cell_angle_gamma    90

_space_group_name_H-M_alt    "P 1"
_space_group_IT_number       1

loop_
  _space_group_symop_operation_xyz
  'x, y, z'

loop_
  _atom_site_type_symbol
  _atom_site_label
  _atom_site_symmetry_multiplicity
  _atom_site_fract_x
  _atom_site_fract_y
  _atom_site_fract_z
  _atom_site_occupancy
  Cl  Cl1       1.0  0.83900  0.86900  0.06010  1.0000
  Cl  Cl2       1.0  0.45700  0.87500  0.33500  1.0000
  Cl  Cl3       1.0  0.01230  0.74600  0.49300  1.0000
  Cl  Cl4       1.0  0.98800  0.24600  0.50700  1.0000
  Cl  Cl5       1.0  0.54300  0.37500  0.66500  1.0000
  Cl  Cl6       1.0  0.16100  0.36900  0.94000  1.0000
  La  La1       1.0  0.71300  0.47100  0.02890  1.0000
  La  La2       1.0  0.43600  0.25000  0.30000  1.0000
  La  La3       1.0  0.02130  0.99400  0.42000  1.0000
  La  La4       1.0  0.97900  0.49400  0.58000  1.0000
  La  La5       1.0  0.56400  0.75000  0.70000  1.0000
  La  La6       1.0  0.28700  0.97100  0.97100  1.0000
  O   O1        1.0  0.73200  0.28500  0.09790  1.0000
  O   O2        1.0  0.09200  0.11800  0.12700  1.0000
  O   O3        1.0  0.38200  0.61800  0.13900  1.0000
  O   O4        1.0  0.64100  0.08880  0.19100  1.0000
  O   O5        1.0  0.59000  0.44300  0.30400  1.0000
  O   O6        1.0  0.09860  0.50300  0.30800  1.0000
  O   O7        1.0  0.55800  0.60700  0.50000  1.0000
  O   O8        1.0  0.44200  0.10700  0.50000  1.0000
  O   O9        1.0  0.90100  0.00301  0.69200  1.0000
  O   O10       1.0  0.41000  0.94300  0.69600  1.0000
  O   O11       1.0  0.35900  0.58900  0.80900  1.0000
  O   O12       1.0  0.61800  0.11800  0.86100  1.0000
  O   O13       1.0  0.90800  0.61800  0.87300  1.0000
  O   O14       1.0  0.26800  0.78500  0.90200  1.0000
  Si  Si1       1.0  0.78400  0.15700  0.06510  1.0000
  Si  Si2       1.0  0.39200  0.54500  0.31700  1.0000
  Si  Si3       1.0  0.60800  0.04460  0.68300  1.0000
  Si  Si4       1.0  0.21600  0.65700  0.93500  1.0000
