data_image0
_chemical_formula_structural       Ge4K12O14
_chemical_formula_sum              "Ge4 K12 O14"
_cell_length_a       6.52283
_cell_length_b       9.0742
_cell_length_c       11.4218
_cell_angle_alpha    90
_cell_angle_beta     126.794
_cell_angle_gamma    90

_space_group_name_H-M_alt    "P 1"
_space_group_IT_number       1

loop_
  _space_group_symop_operation_xyz
  'x, y, z'

loop_
  _atom_site_type_symbol
  _atom_site_label
  _atom_site_symmetry_multiplicity
  _atom_site_fract_x
  _atom_site_fract_y
  _atom_site_fract_z
  _atom_site_occupancy
  Ge  Ge1       1.0  0.58500  0.60700  0.13500  1.0000
  Ge  Ge2       1.0  0.42400  0.10900  0.37100  1.0000
  Ge  Ge3       1.0  0.58500  0.39300  0.63500  1.0000
  Ge  Ge4       1.0  0.42400  0.89100  0.87100  1.0000
  K   K1        1.0  0.31000  0.27600  0.05170  1.0000
  K   K2        1.0  0.20400  0.89400  0.08500  1.0000
  K   K3        1.0  0.84700  0.96800  0.22500  1.0000
  K   K4        1.0  0.16100  0.46200  0.28300  1.0000
  K   K5        1.0  0.81600  0.40400  0.42800  1.0000
  K   K6        1.0  0.70800  0.77500  0.45500  1.0000
  K   K7        1.0  0.31000  0.72400  0.55200  1.0000
  K   K8        1.0  0.20400  0.10600  0.58500  1.0000
  K   K9        1.0  0.84700  0.03200  0.72500  1.0000
  K   K10       1.0  0.16100  0.53800  0.78300  1.0000
  K   K11       1.0  0.81600  0.59600  0.92800  1.0000
  K   K12       1.0  0.70800  0.22500  0.95500  1.0000
  O   O1        1.0  0.65300  0.45500  0.06740  1.0000
  O   O2        1.0  0.33200  0.57400  0.14800  1.0000
  O   O3        1.0  0.15100  0.15400  0.19500  1.0000
  O   O4        1.0  0.86300  0.67400  0.30000  1.0000
  O   O5        1.0  0.70400  0.10400  0.38000  1.0000
  O   O6        1.0  0.37300  0.95000  0.43900  1.0000
  O   O7        1.0  0.45200  0.25300  0.49200  1.0000
  O   O8        1.0  0.65300  0.54500  0.56700  1.0000
  O   O9        1.0  0.33200  0.42600  0.64800  1.0000
  O   O10       1.0  0.15100  0.84600  0.69500  1.0000
  O   O11       1.0  0.86300  0.32600  0.80000  1.0000
  O   O12       1.0  0.70400  0.89600  0.88000  1.0000
  O   O13       1.0  0.37300  0.04960  0.93900  1.0000
  O   O14       1.0  0.45200  0.74700  0.99200  1.0000
