data_image0
_chemical_formula_structural       Ba6Mn2O18Sb4
_chemical_formula_sum              "Ba6 Mn2 O18 Sb4"
_cell_length_a       5.90422
_cell_length_b       5.90422
_cell_length_c       14.6387
_cell_angle_alpha    90.2238
_cell_angle_beta     90.2238
_cell_angle_gamma    120.084

_space_group_name_H-M_alt    "P 1"
_space_group_IT_number       1

loop_
  _space_group_symop_operation_xyz
  'x, y, z'

loop_
  _atom_site_type_symbol
  _atom_site_label
  _atom_site_symmetry_multiplicity
  _atom_site_fract_x
  _atom_site_fract_y
  _atom_site_fract_z
  _atom_site_occupancy
  Ba  Ba1       1.0  0.33700  0.67100  0.08870  1.0000
  Ba  Ba2       1.0  0.99900  0.00113  0.25000  1.0000
  Ba  Ba3       1.0  0.32900  0.66300  0.41100  1.0000
  Ba  Ba4       1.0  0.67100  0.33700  0.58900  1.0000
  Ba  Ba5       1.0  0.00113  0.99900  0.75000  1.0000
  Ba  Ba6       1.0  0.66300  0.32900  0.91100  1.0000
  Mn  Mn1       1.0  0.00000  0.00000  0.00000  1.0000
  Mn  Mn2       1.0  0.00000  0.00000  0.50000  1.0000
  O   O1        1.0  0.35200  0.18400  0.08010  1.0000
  O   O2        1.0  0.84200  0.18100  0.08540  1.0000
  O   O3        1.0  0.84400  0.67400  0.08980  1.0000
  O   O4        1.0  0.51600  0.03460  0.24600  1.0000
  O   O5        1.0  0.51600  0.48400  0.25000  1.0000
  O   O6        1.0  0.96500  0.48400  0.25400  1.0000
  O   O7        1.0  0.32600  0.15600  0.41000  1.0000
  O   O8        1.0  0.81900  0.15800  0.41500  1.0000
  O   O9        1.0  0.81600  0.64800  0.42000  1.0000
  O   O10       1.0  0.18400  0.35200  0.58000  1.0000
  O   O11       1.0  0.18100  0.84200  0.58500  1.0000
  O   O12       1.0  0.67400  0.84400  0.59000  1.0000
  O   O13       1.0  0.03460  0.51600  0.74600  1.0000
  O   O14       1.0  0.48400  0.51600  0.75000  1.0000
  O   O15       1.0  0.48400  0.96500  0.75400  1.0000
  O   O16       1.0  0.15600  0.32600  0.91000  1.0000
  O   O17       1.0  0.15800  0.81900  0.91500  1.0000
  O   O18       1.0  0.64800  0.81600  0.92000  1.0000
  Sb  Sb1       1.0  0.67200  0.34000  0.15300  1.0000
  Sb  Sb2       1.0  0.66000  0.32800  0.34700  1.0000
  Sb  Sb3       1.0  0.34000  0.67200  0.65300  1.0000
  Sb  Sb4       1.0  0.32800  0.66000  0.84700  1.0000
