data_image0
_chemical_formula_structural       Ca16N64Si40
_chemical_formula_sum              "Ca16 N64 Si40"
_cell_length_a       10.4881
_cell_length_b       9.6171
_cell_length_c       13.5896
_cell_angle_alpha    90
_cell_angle_beta     90
_cell_angle_gamma    90

_space_group_name_H-M_alt    "P 1"
_space_group_IT_number       1

loop_
  _space_group_symop_operation_xyz
  'x, y, z'

loop_
  _atom_site_type_symbol
  _atom_site_label
  _atom_site_symmetry_multiplicity
  _atom_site_fract_x
  _atom_site_fract_y
  _atom_site_fract_z
  _atom_site_occupancy
  Ca  Ca1       1.0  0.89200  0.05980  0.40100  1.0000
  Ca  Ca2       1.0  0.60800  0.94000  0.90100  1.0000
  Ca  Ca3       1.0  0.39200  0.44000  0.59900  1.0000
  Ca  Ca4       1.0  0.10800  0.56000  0.09850  1.0000
  Ca  Ca5       1.0  0.10800  0.94000  0.59900  1.0000
  Ca  Ca6       1.0  0.39200  0.05980  0.09850  1.0000
  Ca  Ca7       1.0  0.60800  0.56000  0.40100  1.0000
  Ca  Ca8       1.0  0.89200  0.44000  0.90100  1.0000
  Ca  Ca9       1.0  0.61600  0.15500  0.51500  1.0000
  Ca  Ca10      1.0  0.88400  0.84500  0.01480  1.0000
  Ca  Ca11      1.0  0.11600  0.34500  0.48500  1.0000
  Ca  Ca12      1.0  0.38400  0.65500  0.98500  1.0000
  Ca  Ca13      1.0  0.38400  0.84500  0.48500  1.0000
  Ca  Ca14      1.0  0.11600  0.15500  0.98500  1.0000
  Ca  Ca15      1.0  0.88400  0.65500  0.51500  1.0000
  Ca  Ca16      1.0  0.61600  0.34500  0.01480  1.0000
  N   N1        1.0  0.61800  0.89200  0.70100  1.0000
  N   N2        1.0  0.88200  0.10800  0.20100  1.0000
  N   N3        1.0  0.11800  0.60800  0.29900  1.0000
  N   N4        1.0  0.38200  0.39200  0.79900  1.0000
  N   N5        1.0  0.38200  0.10800  0.29900  1.0000
  N   N6        1.0  0.11800  0.89200  0.79900  1.0000
  N   N7        1.0  0.88200  0.39200  0.70100  1.0000
  N   N8        1.0  0.61800  0.60800  0.20100  1.0000
  N   N9        1.0  0.42300  0.27100  0.47400  1.0000
  N   N10       1.0  0.07730  0.72900  0.97400  1.0000
  N   N11       1.0  0.92300  0.22900  0.52600  1.0000
  N   N12       1.0  0.57700  0.77100  0.02580  1.0000
  N   N13       1.0  0.57700  0.72900  0.52600  1.0000
  N   N14       1.0  0.92300  0.27100  0.02580  1.0000
  N   N15       1.0  0.07730  0.77100  0.47400  1.0000
  N   N16       1.0  0.42300  0.22900  0.97400  1.0000
  N   N17       1.0  0.43300  0.04050  0.59700  1.0000
  N   N18       1.0  0.06730  0.95900  0.09730  1.0000
  N   N19       1.0  0.93300  0.45900  0.40300  1.0000
  N   N20       1.0  0.56700  0.54100  0.90300  1.0000
  N   N21       1.0  0.56700  0.95900  0.40300  1.0000
  N   N22       1.0  0.93300  0.04050  0.90300  1.0000
  N   N23       1.0  0.06730  0.54100  0.59700  1.0000
  N   N24       1.0  0.43300  0.45900  0.09730  1.0000
  N   N25       1.0  0.24100  0.25500  0.62100  1.0000
  N   N26       1.0  0.25900  0.74500  0.12100  1.0000
  N   N27       1.0  0.74100  0.24500  0.37900  1.0000
  N   N28       1.0  0.75900  0.75500  0.87900  1.0000
  N   N29       1.0  0.75900  0.74500  0.37900  1.0000
  N   N30       1.0  0.74100  0.25500  0.87900  1.0000
  N   N31       1.0  0.25900  0.75500  0.62100  1.0000
  N   N32       1.0  0.24100  0.24500  0.12100  1.0000
  N   N33       1.0  0.77500  0.94000  0.53100  1.0000
  N   N34       1.0  0.72500  0.06000  0.03090  1.0000
  N   N35       1.0  0.27500  0.56000  0.46900  1.0000
  N   N36       1.0  0.22500  0.44000  0.96900  1.0000
  N   N37       1.0  0.22500  0.06000  0.46900  1.0000
  N   N38       1.0  0.27500  0.94000  0.96900  1.0000
  N   N39       1.0  0.72500  0.44000  0.53100  1.0000
  N   N40       1.0  0.77500  0.56000  0.03090  1.0000
  N   N41       1.0  0.52200  0.13100  0.79100  1.0000
  N   N42       1.0  0.97800  0.86900  0.29100  1.0000
  N   N43       1.0  0.02240  0.36900  0.20900  1.0000
  N   N44       1.0  0.47800  0.63100  0.70900  1.0000
  N   N45       1.0  0.47800  0.86900  0.20900  1.0000
  N   N46       1.0  0.02240  0.13100  0.70900  1.0000
  N   N47       1.0  0.97800  0.63100  0.79100  1.0000
  N   N48       1.0  0.52200  0.36900  0.29100  1.0000
  N   N49       1.0  0.88300  0.88700  0.71900  1.0000
  N   N50       1.0  0.61700  0.11300  0.21900  1.0000
  N   N51       1.0  0.38300  0.61300  0.28100  1.0000
  N   N52       1.0  0.11700  0.38700  0.78100  1.0000
  N   N53       1.0  0.11700  0.11300  0.28100  1.0000
  N   N54       1.0  0.38300  0.88700  0.78100  1.0000
  N   N55       1.0  0.61700  0.38700  0.71900  1.0000
  N   N56       1.0  0.88300  0.61300  0.21900  1.0000
  N   N57       1.0  0.75300  0.14200  0.68000  1.0000
  N   N58       1.0  0.74700  0.85800  0.18000  1.0000
  N   N59       1.0  0.25300  0.35800  0.32000  1.0000
  N   N60       1.0  0.24700  0.64200  0.82000  1.0000
  N   N61       1.0  0.24700  0.85800  0.32000  1.0000
  N   N62       1.0  0.25300  0.14200  0.82000  1.0000
  N   N63       1.0  0.74700  0.64200  0.68000  1.0000
  N   N64       1.0  0.75300  0.35800  0.18000  1.0000
  Si  Si1       1.0  0.75900  0.96300  0.65400  1.0000
  Si  Si2       1.0  0.74100  0.03670  0.15400  1.0000
  Si  Si3       1.0  0.25900  0.53700  0.34600  1.0000
  Si  Si4       1.0  0.24100  0.46300  0.84600  1.0000
  Si  Si5       1.0  0.24100  0.03670  0.34600  1.0000
  Si  Si6       1.0  0.25900  0.96300  0.84600  1.0000
  Si  Si7       1.0  0.74100  0.46300  0.65400  1.0000
  Si  Si8       1.0  0.75900  0.53700  0.15400  1.0000
  Si  Si9       1.0  0.66500  0.22800  0.77300  1.0000
  Si  Si10      1.0  0.83500  0.77200  0.27300  1.0000
  Si  Si11      1.0  0.16500  0.27200  0.22700  1.0000
  Si  Si12      1.0  0.33500  0.72800  0.72700  1.0000
  Si  Si13      1.0  0.33500  0.77200  0.22700  1.0000
  Si  Si14      1.0  0.16500  0.22800  0.72700  1.0000
  Si  Si15      1.0  0.83500  0.72800  0.77300  1.0000
  Si  Si16      1.0  0.66500  0.27200  0.27300  1.0000
  Si  Si17      1.0  0.89900  0.22500  0.64900  1.0000
  Si  Si18      1.0  0.60100  0.77500  0.14900  1.0000
  Si  Si19      1.0  0.39900  0.27500  0.35100  1.0000
  Si  Si20      1.0  0.10100  0.72500  0.85100  1.0000
  Si  Si21      1.0  0.10100  0.77500  0.35100  1.0000
  Si  Si22      1.0  0.39900  0.22500  0.85100  1.0000
  Si  Si23      1.0  0.60100  0.72500  0.64900  1.0000
  Si  Si24      1.0  0.89900  0.27500  0.14900  1.0000
  Si  Si25      1.0  0.33000  0.15300  0.54200  1.0000
  Si  Si26      1.0  0.17000  0.84700  0.04250  1.0000
  Si  Si27      1.0  0.83000  0.34700  0.45800  1.0000
  Si  Si28      1.0  0.67000  0.65300  0.95800  1.0000
  Si  Si29      1.0  0.67000  0.84700  0.45800  1.0000
  Si  Si30      1.0  0.83000  0.15300  0.95800  1.0000
  Si  Si31      1.0  0.17000  0.65300  0.54200  1.0000
  Si  Si32      1.0  0.33000  0.34700  0.04250  1.0000
  Si  Si33      1.0  0.48000  0.99600  0.70900  1.0000
  Si  Si34      1.0  0.01970  0.00446  0.20900  1.0000
  Si  Si35      1.0  0.98000  0.50400  0.29100  1.0000
  Si  Si36      1.0  0.52000  0.49600  0.79100  1.0000
  Si  Si37      1.0  0.52000  0.00446  0.29100  1.0000
  Si  Si38      1.0  0.98000  0.99600  0.79100  1.0000
  Si  Si39      1.0  0.01970  0.49600  0.70900  1.0000
  Si  Si40      1.0  0.48000  0.50400  0.20900  1.0000
