data_image0
_chemical_formula_structural       Hg9O18S3
_chemical_formula_sum              "Hg9 O18 S3"
_cell_length_a       7.14424
_cell_length_b       7.14404
_cell_length_c       10.0143
_cell_angle_alpha    90.0151
_cell_angle_beta     89.9853
_cell_angle_gamma    120.001

_space_group_name_H-M_alt    "P 1"
_space_group_IT_number       1

loop_
  _space_group_symop_operation_xyz
  'x, y, z'

loop_
  _atom_site_type_symbol
  _atom_site_label
  _atom_site_symmetry_multiplicity
  _atom_site_fract_x
  _atom_site_fract_y
  _atom_site_fract_z
  _atom_site_occupancy
  Hg  Hg1       1.0  0.29800  0.29800  0.00000  1.0000
  Hg  Hg2       1.0  0.81000  0.31100  0.01560  1.0000
  Hg  Hg3       1.0  0.19000  0.50200  0.31800  1.0000
  Hg  Hg4       1.0  0.70200  0.00000  0.33300  1.0000
  Hg  Hg5       1.0  0.68900  0.49800  0.34900  1.0000
  Hg  Hg6       1.0  0.49800  0.68900  0.65100  1.0000
  Hg  Hg7       1.0  0.00000  0.70200  0.66700  1.0000
  Hg  Hg8       1.0  0.50200  0.19000  0.68200  1.0000
  Hg  Hg9       1.0  0.31100  0.81000  0.98400  1.0000
  O   O1        1.0  0.15200  0.48000  0.04990  1.0000
  O   O2        1.0  0.81600  0.97000  0.07710  1.0000
  O   O3        1.0  0.71300  0.59200  0.09560  1.0000
  O   O4        1.0  0.28700  0.87900  0.23800  1.0000
  O   O5        1.0  0.18400  0.15400  0.25600  1.0000
  O   O6        1.0  0.84800  0.32800  0.28400  1.0000
  O   O7        1.0  0.52100  0.67200  0.38300  1.0000
  O   O8        1.0  0.03000  0.84600  0.41000  1.0000
  O   O9        1.0  0.40800  0.12100  0.42900  1.0000
  O   O10       1.0  0.12100  0.40800  0.57100  1.0000
  O   O11       1.0  0.84600  0.03000  0.59000  1.0000
  O   O12       1.0  0.67200  0.52100  0.61700  1.0000
  O   O13       1.0  0.32800  0.84800  0.71600  1.0000
  O   O14       1.0  0.15400  0.18400  0.74400  1.0000
  O   O15       1.0  0.87900  0.28700  0.76200  1.0000
  O   O16       1.0  0.59200  0.71300  0.90400  1.0000
  O   O17       1.0  0.97000  0.81600  0.92300  1.0000
  O   O18       1.0  0.48000  0.15200  0.95000  1.0000
  S   S1        1.0  0.77600  0.77600  0.00000  1.0000
  S   S2        1.0  0.22400  0.00000  0.33300  1.0000
  S   S3        1.0  0.00000  0.22400  0.66700  1.0000
