data_image0
_chemical_formula_structural       Cl6O14Pr6Si4
_chemical_formula_sum              "Cl6 O14 Pr6 Si4"
_cell_length_a       5.31368
_cell_length_b       12.0855
_cell_length_c       7.92831
_cell_angle_alpha    90
_cell_angle_beta     110.503
_cell_angle_gamma    90

_space_group_name_H-M_alt    "P 1"
_space_group_IT_number       1

loop_
  _space_group_symop_operation_xyz
  'x, y, z'

loop_
  _atom_site_type_symbol
  _atom_site_label
  _atom_site_symmetry_multiplicity
  _atom_site_fract_x
  _atom_site_fract_y
  _atom_site_fract_z
  _atom_site_occupancy
  Cl  Cl1       1.0  0.52300  0.38000  0.01190  1.0000
  Cl  Cl2       1.0  0.12500  0.50700  0.16700  1.0000
  Cl  Cl3       1.0  0.78600  0.50300  0.44200  1.0000
  Cl  Cl4       1.0  0.21400  0.00332  0.55800  1.0000
  Cl  Cl5       1.0  0.87500  0.00658  0.83300  1.0000
  Cl  Cl6       1.0  0.47700  0.88000  0.98800  1.0000
  O   O1        1.0  0.94100  0.73800  0.00264  1.0000
  O   O2        1.0  0.78300  0.13900  0.19300  1.0000
  O   O3        1.0  0.27900  0.07340  0.19600  1.0000
  O   O4        1.0  0.45600  0.72000  0.30600  1.0000
  O   O5        1.0  0.24800  0.25100  0.35900  1.0000
  O   O6        1.0  0.97700  0.75100  0.37900  1.0000
  O   O7        1.0  0.63000  0.91700  0.39900  1.0000
  O   O8        1.0  0.37000  0.41700  0.60100  1.0000
  O   O9        1.0  0.02330  0.25100  0.62100  1.0000
  O   O10       1.0  0.75200  0.75100  0.64100  1.0000
  O   O11       1.0  0.54400  0.22000  0.69400  1.0000
  O   O12       1.0  0.72100  0.57300  0.80400  1.0000
  O   O13       1.0  0.21700  0.63900  0.80700  1.0000
  O   O14       1.0  0.05860  0.23800  0.99700  1.0000
  Pr  Pr1       1.0  0.61000  0.62200  0.08150  1.0000
  Pr  Pr2       1.0  0.14600  0.88100  0.20300  1.0000
  Pr  Pr3       1.0  0.67700  0.10400  0.47000  1.0000
  Pr  Pr4       1.0  0.32300  0.60400  0.53000  1.0000
  Pr  Pr5       1.0  0.85400  0.38100  0.79700  1.0000
  Pr  Pr6       1.0  0.39000  0.12200  0.91900  1.0000
  Si  Si1       1.0  0.07030  0.17700  0.18200  1.0000
  Si  Si2       1.0  0.72300  0.78900  0.43500  1.0000
  Si  Si3       1.0  0.27700  0.28900  0.56500  1.0000
  Si  Si4       1.0  0.93000  0.67700  0.81800  1.0000
