data_image0
_chemical_formula_structural       Ba2Cu20P8
_chemical_formula_sum              "Ba2 Cu20 P8"
_cell_length_a       3.86954
_cell_length_b       9.5579
_cell_length_c       11.8081
_cell_angle_alpha    92.9144
_cell_angle_beta     99.4305
_cell_angle_gamma    90

_space_group_name_H-M_alt    "P 1"
_space_group_IT_number       1

loop_
  _space_group_symop_operation_xyz
  'x, y, z'

loop_
  _atom_site_type_symbol
  _atom_site_label
  _atom_site_symmetry_multiplicity
  _atom_site_fract_x
  _atom_site_fract_y
  _atom_site_fract_z
  _atom_site_occupancy
  Ba  Ba1       1.0  0.14300  0.78300  0.28600  1.0000
  Ba  Ba2       1.0  0.85700  0.21700  0.71400  1.0000
  Cu  Cu1       1.0  0.52700  0.88200  0.05310  1.0000
  Cu  Cu2       1.0  0.53300  0.61900  0.06530  1.0000
  Cu  Cu3       1.0  0.04910  0.07160  0.09820  1.0000
  Cu  Cu4       1.0  0.05690  0.45100  0.11400  1.0000
  Cu  Cu5       1.0  0.58700  0.27200  0.17400  1.0000
  Cu  Cu6       1.0  0.15100  0.15100  0.30200  1.0000
  Cu  Cu7       1.0  0.16600  0.42900  0.33300  1.0000
  Cu  Cu8       1.0  0.71300  0.03490  0.42700  1.0000
  Cu  Cu9       1.0  0.71400  0.30200  0.42800  1.0000
  Cu  Cu10      1.0  0.72400  0.56800  0.44700  1.0000
  Cu  Cu11      1.0  0.27600  0.43200  0.55300  1.0000
  Cu  Cu12      1.0  0.28600  0.69800  0.57200  1.0000
  Cu  Cu13      1.0  0.28700  0.96500  0.57300  1.0000
  Cu  Cu14      1.0  0.83400  0.57100  0.66700  1.0000
  Cu  Cu15      1.0  0.84900  0.84900  0.69800  1.0000
  Cu  Cu16      1.0  0.41300  0.72800  0.82600  1.0000
  Cu  Cu17      1.0  0.94300  0.54900  0.88600  1.0000
  Cu  Cu18      1.0  0.95100  0.92800  0.90200  1.0000
  Cu  Cu19      1.0  0.46700  0.38100  0.93500  1.0000
  Cu  Cu20      1.0  0.47300  0.11800  0.94700  1.0000
  P   P1        1.0  0.00778  0.73700  0.01560  1.0000
  P   P2        1.0  0.60800  0.03690  0.21600  1.0000
  P   P3        1.0  0.62100  0.50400  0.24200  1.0000
  P   P4        1.0  0.24800  0.18900  0.49500  1.0000
  P   P5        1.0  0.75200  0.81100  0.50500  1.0000
  P   P6        1.0  0.37900  0.49600  0.75800  1.0000
  P   P7        1.0  0.39200  0.96300  0.78400  1.0000
  P   P8        1.0  0.99200  0.26300  0.98400  1.0000
