data_image0
_chemical_formula_structural       O16Si2Sn12
_chemical_formula_sum              "O16 Si2 Sn12"
_cell_length_a       7.2697
_cell_length_b       7.26955
_cell_length_c       11.834
_cell_angle_alpha    90
_cell_angle_beta     90
_cell_angle_gamma    120.001

_space_group_name_H-M_alt    "P 1"
_space_group_IT_number       1

loop_
  _space_group_symop_operation_xyz
  'x, y, z'

loop_
  _atom_site_type_symbol
  _atom_site_label
  _atom_site_symmetry_multiplicity
  _atom_site_fract_x
  _atom_site_fract_y
  _atom_site_fract_z
  _atom_site_occupancy
  O   O1        1.0  0.54300  0.08590  0.04840  1.0000
  O   O2        1.0  0.54300  0.45700  0.04840  1.0000
  O   O3        1.0  0.91400  0.45700  0.04840  1.0000
  O   O4        1.0  0.33300  0.66700  0.11900  1.0000
  O   O5        1.0  0.66700  0.33300  0.23500  1.0000
  O   O6        1.0  0.37600  0.18800  0.41800  1.0000
  O   O7        1.0  0.81200  0.18800  0.41800  1.0000
  O   O8        1.0  0.81200  0.62400  0.41800  1.0000
  O   O9        1.0  0.45700  0.91400  0.54800  1.0000
  O   O10       1.0  0.08590  0.54300  0.54800  1.0000
  O   O11       1.0  0.45700  0.54300  0.54800  1.0000
  O   O12       1.0  0.66700  0.33300  0.61900  1.0000
  O   O13       1.0  0.33300  0.66700  0.73500  1.0000
  O   O14       1.0  0.18800  0.81200  0.91800  1.0000
  O   O15       1.0  0.62400  0.81200  0.91800  1.0000
  O   O16       1.0  0.18800  0.37600  0.91800  1.0000
  Si  Si1       1.0  0.66700  0.33300  0.09580  1.0000
  Si  Si2       1.0  0.33300  0.66700  0.59600  1.0000
  Sn  Sn1       1.0  0.16900  0.33800  0.09490  1.0000
  Sn  Sn2       1.0  0.16900  0.83100  0.09490  1.0000
  Sn  Sn3       1.0  0.66200  0.83100  0.09490  1.0000
  Sn  Sn4       1.0  0.50300  0.49700  0.35000  1.0000
  Sn  Sn5       1.0  0.99400  0.49700  0.35000  1.0000
  Sn  Sn6       1.0  0.50300  0.00598  0.35000  1.0000
  Sn  Sn7       1.0  0.33800  0.16900  0.59500  1.0000
  Sn  Sn8       1.0  0.83100  0.16900  0.59500  1.0000
  Sn  Sn9       1.0  0.83100  0.66200  0.59500  1.0000
  Sn  Sn10      1.0  0.00599  0.50300  0.85000  1.0000
  Sn  Sn11      1.0  0.49700  0.50300  0.85000  1.0000
  Sn  Sn12      1.0  0.49700  0.99400  0.85000  1.0000
