data_image0
_chemical_formula_structural       Ni4P8Zr18
_chemical_formula_sum              "Ni4 P8 Zr18"
_cell_length_a       12.0689
_cell_length_b       12.0689
_cell_length_c       3.69019
_cell_angle_alpha    90
_cell_angle_beta     90
_cell_angle_gamma    90

_space_group_name_H-M_alt    "P 1"
_space_group_IT_number       1

loop_
  _space_group_symop_operation_xyz
  'x, y, z'

loop_
  _atom_site_type_symbol
  _atom_site_label
  _atom_site_symmetry_multiplicity
  _atom_site_fract_x
  _atom_site_fract_y
  _atom_site_fract_z
  _atom_site_occupancy
  Ni  Ni1       1.0  0.74600  0.24600  0.00000  1.0000
  Ni  Ni2       1.0  0.24600  0.25400  0.00000  1.0000
  Ni  Ni3       1.0  0.75400  0.74600  0.00000  1.0000
  Ni  Ni4       1.0  0.25400  0.75400  0.00000  1.0000
  P   P1        1.0  0.77500  0.05660  0.00000  1.0000
  P   P2        1.0  0.05660  0.22500  0.00000  1.0000
  P   P3        1.0  0.55700  0.27500  0.00000  1.0000
  P   P4        1.0  0.27500  0.44300  0.00000  1.0000
  P   P5        1.0  0.72500  0.55700  0.00000  1.0000
  P   P6        1.0  0.44300  0.72500  0.00000  1.0000
  P   P7        1.0  0.94300  0.77500  0.00000  1.0000
  P   P8        1.0  0.22500  0.94300  0.00000  1.0000
  Zr  Zr1       1.0  0.00000  0.00000  0.00000  1.0000
  Zr  Zr2       1.0  0.40400  0.09600  0.00000  1.0000
  Zr  Zr3       1.0  0.90400  0.40400  0.00000  1.0000
  Zr  Zr4       1.0  0.50000  0.50000  0.00000  1.0000
  Zr  Zr5       1.0  0.09600  0.59600  0.00000  1.0000
  Zr  Zr6       1.0  0.59600  0.90400  0.00000  1.0000
  Zr  Zr7       1.0  0.18100  0.10200  0.50000  1.0000
  Zr  Zr8       1.0  0.61900  0.11900  0.50000  1.0000
  Zr  Zr9       1.0  0.89800  0.18100  0.50000  1.0000
  Zr  Zr10      1.0  0.39800  0.31900  0.50000  1.0000
  Zr  Zr11      1.0  0.11900  0.38100  0.50000  1.0000
  Zr  Zr12      1.0  0.68100  0.39800  0.50000  1.0000
  Zr  Zr13      1.0  0.31900  0.60200  0.50000  1.0000
  Zr  Zr14      1.0  0.88100  0.61900  0.50000  1.0000
  Zr  Zr15      1.0  0.60200  0.68100  0.50000  1.0000
  Zr  Zr16      1.0  0.10200  0.81900  0.50000  1.0000
  Zr  Zr17      1.0  0.38100  0.88100  0.50000  1.0000
  Zr  Zr18      1.0  0.81900  0.89800  0.50000  1.0000
