data_image0
_chemical_formula_structural       Mn4Nb2P24
_chemical_formula_sum              "Mn4 Nb2 P24"
_cell_length_a       5.77864
_cell_length_b       8.54005
_cell_length_c       10.6033
_cell_angle_alpha    102.242
_cell_angle_beta     105.813
_cell_angle_gamma    109.775

_space_group_name_H-M_alt    "P 1"
_space_group_IT_number       1

loop_
  _space_group_symop_operation_xyz
  'x, y, z'

loop_
  _atom_site_type_symbol
  _atom_site_label
  _atom_site_symmetry_multiplicity
  _atom_site_fract_x
  _atom_site_fract_y
  _atom_site_fract_z
  _atom_site_occupancy
  Mn  Mn1       1.0  0.67300  0.68100  0.04570  1.0000
  Mn  Mn2       1.0  0.44700  0.81900  0.45400  1.0000
  Mn  Mn3       1.0  0.55300  0.18100  0.54600  1.0000
  Mn  Mn4       1.0  0.32700  0.31900  0.95400  1.0000
  Nb  Nb1       1.0  0.94600  0.25000  0.25000  1.0000
  Nb  Nb2       1.0  0.05390  0.75000  0.75000  1.0000
  P   P1        1.0  0.33700  0.77000  0.00417  1.0000
  P   P2        1.0  0.15400  0.13900  0.07240  1.0000
  P   P3        1.0  0.02560  0.62200  0.07450  1.0000
  P   P4        1.0  0.51500  0.52100  0.16500  1.0000
  P   P5        1.0  0.45800  0.04080  0.16500  1.0000
  P   P6        1.0  0.90900  0.93000  0.24100  1.0000
  P   P7        1.0  0.23800  0.57000  0.25900  1.0000
  P   P8        1.0  0.75200  0.45900  0.33500  1.0000
  P   P9        1.0  0.33000  0.97900  0.33500  1.0000
  P   P10       1.0  0.82900  0.87800  0.42600  1.0000
  P   P11       1.0  0.44300  0.36100  0.42800  1.0000
  P   P12       1.0  0.06300  0.73000  0.49600  1.0000
  P   P13       1.0  0.93700  0.27000  0.50400  1.0000
  P   P14       1.0  0.55700  0.63900  0.57200  1.0000
  P   P15       1.0  0.17100  0.12200  0.57400  1.0000
  P   P16       1.0  0.67000  0.02060  0.66500  1.0000
  P   P17       1.0  0.24800  0.54100  0.66500  1.0000
  P   P18       1.0  0.76200  0.43000  0.74100  1.0000
  P   P19       1.0  0.09080  0.07050  0.75900  1.0000
  P   P20       1.0  0.54200  0.95900  0.83500  1.0000
  P   P21       1.0  0.48500  0.47900  0.83500  1.0000
  P   P22       1.0  0.97400  0.37800  0.92600  1.0000
  P   P23       1.0  0.84600  0.86100  0.92800  1.0000
  P   P24       1.0  0.66300  0.23000  0.99600  1.0000
