data_image0
_chemical_formula_structural       S18Y12
_chemical_formula_sum              "S18 Y12"
_cell_length_a       17.6208
_cell_length_b       4.03866
_cell_length_c       10.2157
_cell_angle_alpha    90
_cell_angle_beta     98.6179
_cell_angle_gamma    90

_space_group_name_H-M_alt    "P 1"
_space_group_IT_number       1

loop_
  _space_group_symop_operation_xyz
  'x, y, z'

loop_
  _atom_site_type_symbol
  _atom_site_label
  _atom_site_symmetry_multiplicity
  _atom_site_fract_x
  _atom_site_fract_y
  _atom_site_fract_z
  _atom_site_occupancy
  S   S1        1.0  0.26800  0.25000  0.00748  1.0000
  S   S2        1.0  0.07580  0.75000  0.04870  1.0000
  S   S3        1.0  0.57500  0.25000  0.05200  1.0000
  S   S4        1.0  0.87300  0.25000  0.26800  1.0000
  S   S5        1.0  0.37000  0.75000  0.28900  1.0000
  S   S6        1.0  0.18300  0.25000  0.32000  1.0000
  S   S7        1.0  0.71800  0.75000  0.36200  1.0000
  S   S8        1.0  0.53200  0.25000  0.36800  1.0000
  S   S9        1.0  0.03340  0.75000  0.38500  1.0000
  S   S10       1.0  0.96700  0.25000  0.61500  1.0000
  S   S11       1.0  0.46800  0.75000  0.63200  1.0000
  S   S12       1.0  0.28200  0.25000  0.63800  1.0000
  S   S13       1.0  0.81700  0.75000  0.68000  1.0000
  S   S14       1.0  0.63000  0.25000  0.71100  1.0000
  S   S15       1.0  0.12700  0.75000  0.73200  1.0000
  S   S16       1.0  0.42500  0.75000  0.94800  1.0000
  S   S17       1.0  0.92400  0.25000  0.95100  1.0000
  S   S18       1.0  0.73200  0.75000  0.99300  1.0000
  Y   Y1        1.0  0.43000  0.25000  0.12400  1.0000
  Y   Y2        1.0  0.21900  0.75000  0.17100  1.0000
  Y   Y3        1.0  0.72100  0.25000  0.18700  1.0000
  Y   Y4        1.0  0.02090  0.25000  0.19000  1.0000
  Y   Y5        1.0  0.88500  0.75000  0.45000  1.0000
  Y   Y6        1.0  0.39900  0.25000  0.48600  1.0000
  Y   Y7        1.0  0.60100  0.75000  0.51400  1.0000
  Y   Y8        1.0  0.11500  0.25000  0.55000  1.0000
  Y   Y9        1.0  0.97900  0.75000  0.81000  1.0000
  Y   Y10       1.0  0.27900  0.75000  0.81300  1.0000
  Y   Y11       1.0  0.78100  0.25000  0.82900  1.0000
  Y   Y12       1.0  0.57000  0.75000  0.87600  1.0000
