data_image0
_chemical_formula_structural       Cl24Os2Se4
_chemical_formula_sum              "Cl24 Os2 Se4"
_cell_length_a       8.64006
_cell_length_b       8.64006
_cell_length_c       12.2441
_cell_angle_alpha    108.96
_cell_angle_beta     108.96
_cell_angle_gamma    94.5378

_space_group_name_H-M_alt    "P 1"
_space_group_IT_number       1

loop_
  _space_group_symop_operation_xyz
  'x, y, z'

loop_
  _atom_site_type_symbol
  _atom_site_label
  _atom_site_symmetry_multiplicity
  _atom_site_fract_x
  _atom_site_fract_y
  _atom_site_fract_z
  _atom_site_occupancy
  Cl  Cl1       1.0  0.53100  0.22700  0.01340  1.0000
  Cl  Cl2       1.0  0.48200  0.78600  0.01340  1.0000
  Cl  Cl3       1.0  0.96800  0.31800  0.01400  1.0000
  Cl  Cl4       1.0  0.04610  0.69600  0.01400  1.0000
  Cl  Cl5       1.0  0.86100  0.02410  0.15900  1.0000
  Cl  Cl6       1.0  0.29700  0.13400  0.15900  1.0000
  Cl  Cl7       1.0  0.34900  0.54400  0.16700  1.0000
  Cl  Cl8       1.0  0.81800  0.62300  0.16700  1.0000
  Cl  Cl9       1.0  0.12200  0.46500  0.31900  1.0000
  Cl  Cl10      1.0  0.19800  0.85400  0.31900  1.0000
  Cl  Cl11      1.0  0.71900  0.39400  0.35300  1.0000
  Cl  Cl12      1.0  0.63300  0.95900  0.35300  1.0000
  Cl  Cl13      1.0  0.53600  0.73200  0.51300  1.0000
  Cl  Cl14      1.0  0.97700  0.78100  0.51300  1.0000
  Cl  Cl15      1.0  0.06840  0.21800  0.51400  1.0000
  Cl  Cl16      1.0  0.44600  0.29600  0.51400  1.0000
  Cl  Cl17      1.0  0.77400  0.11100  0.65900  1.0000
  Cl  Cl18      1.0  0.88400  0.54700  0.65900  1.0000
  Cl  Cl19      1.0  0.37300  0.06780  0.66700  1.0000
  Cl  Cl20      1.0  0.29400  0.59900  0.66700  1.0000
  Cl  Cl21      1.0  0.21500  0.37200  0.81900  1.0000
  Cl  Cl22      1.0  0.60400  0.44800  0.81900  1.0000
  Cl  Cl23      1.0  0.70900  0.88300  0.85300  1.0000
  Cl  Cl24      1.0  0.14400  0.96900  0.85300  1.0000
  Os  Os1       1.0  0.08470  0.58500  0.16900  1.0000
  Os  Os2       1.0  0.33500  0.33500  0.66900  1.0000
  Se  Se1       1.0  0.27100  0.21900  0.00281  1.0000
  Se  Se2       1.0  0.73200  0.78400  0.00281  1.0000
  Se  Se3       1.0  0.96900  0.52100  0.50300  1.0000
  Se  Se4       1.0  0.53400  0.98200  0.50300  1.0000
