data_image0
_chemical_formula_structural       Au12Rb8S10
_chemical_formula_sum              "Au12 Rb8 S10"
_cell_length_a       10.1378
_cell_length_b       10.1378
_cell_length_c       10.2182
_cell_angle_alpha    90
_cell_angle_beta     90
_cell_angle_gamma    120

_space_group_name_H-M_alt    "P 1"
_space_group_IT_number       1

loop_
  _space_group_symop_operation_xyz
  'x, y, z'

loop_
  _atom_site_type_symbol
  _atom_site_label
  _atom_site_symmetry_multiplicity
  _atom_site_fract_x
  _atom_site_fract_y
  _atom_site_fract_z
  _atom_site_occupancy
  Au  Au1       1.0  0.17100  0.71700  0.09220  1.0000
  Au  Au2       1.0  0.54600  0.82900  0.09220  1.0000
  Au  Au3       1.0  0.28300  0.45400  0.09220  1.0000
  Au  Au4       1.0  0.28300  0.45400  0.40800  1.0000
  Au  Au5       1.0  0.17100  0.71700  0.40800  1.0000
  Au  Au6       1.0  0.54600  0.82900  0.40800  1.0000
  Au  Au7       1.0  0.71700  0.17100  0.59200  1.0000
  Au  Au8       1.0  0.82900  0.54600  0.59200  1.0000
  Au  Au9       1.0  0.45400  0.28300  0.59200  1.0000
  Au  Au10      1.0  0.71700  0.17100  0.90800  1.0000
  Au  Au11      1.0  0.45400  0.28300  0.90800  1.0000
  Au  Au12      1.0  0.82900  0.54600  0.90800  1.0000
  Rb  Rb1       1.0  0.00000  0.00000  0.00000  1.0000
  Rb  Rb2       1.0  0.42000  0.07500  0.25000  1.0000
  Rb  Rb3       1.0  0.92500  0.34500  0.25000  1.0000
  Rb  Rb4       1.0  0.65500  0.58000  0.25000  1.0000
  Rb  Rb5       1.0  0.00000  0.00000  0.50000  1.0000
  Rb  Rb6       1.0  0.07500  0.42000  0.75000  1.0000
  Rb  Rb7       1.0  0.58000  0.65500  0.75000  1.0000
  Rb  Rb8       1.0  0.34500  0.92500  0.75000  1.0000
  S   S1        1.0  0.66700  0.33300  0.03760  1.0000
  S   S2        1.0  0.22900  0.26700  0.25000  1.0000
  S   S3        1.0  0.03840  0.77100  0.25000  1.0000
  S   S4        1.0  0.73300  0.96200  0.25000  1.0000
  S   S5        1.0  0.66700  0.33300  0.46200  1.0000
  S   S6        1.0  0.33300  0.66700  0.53800  1.0000
  S   S7        1.0  0.77100  0.03840  0.75000  1.0000
  S   S8        1.0  0.26700  0.22900  0.75000  1.0000
  S   S9        1.0  0.96200  0.73300  0.75000  1.0000
  S   S10       1.0  0.33300  0.66700  0.96200  1.0000
