data_image0
_chemical_formula_structural       O18Rb4V8
_chemical_formula_sum              "O18 Rb4 V8"
_cell_length_a       5.66832
_cell_length_b       5.66832
_cell_length_c       14.5941
_cell_angle_alpha    90
_cell_angle_beta     90
_cell_angle_gamma    90

_space_group_name_H-M_alt    "P 1"
_space_group_IT_number       1

loop_
  _space_group_symop_operation_xyz
  'x, y, z'

loop_
  _atom_site_type_symbol
  _atom_site_label
  _atom_site_symmetry_multiplicity
  _atom_site_fract_x
  _atom_site_fract_y
  _atom_site_fract_z
  _atom_site_occupancy
  O   O1        1.0  0.21800  0.24500  0.09360  1.0000
  O   O2        1.0  0.78200  0.75500  0.09360  1.0000
  O   O3        1.0  0.62500  0.18800  0.20600  1.0000
  O   O4        1.0  0.37500  0.81200  0.20600  1.0000
  O   O5        1.0  0.00000  0.00000  0.25000  1.0000
  O   O6        1.0  0.18800  0.37500  0.29400  1.0000
  O   O7        1.0  0.81200  0.62500  0.29400  1.0000
  O   O8        1.0  0.75500  0.21800  0.40600  1.0000
  O   O9        1.0  0.24500  0.78200  0.40600  1.0000
  O   O10       1.0  0.75500  0.21800  0.59400  1.0000
  O   O11       1.0  0.24500  0.78200  0.59400  1.0000
  O   O12       1.0  0.18800  0.37500  0.70600  1.0000
  O   O13       1.0  0.81200  0.62500  0.70600  1.0000
  O   O14       1.0  0.00000  0.00000  0.75000  1.0000
  O   O15       1.0  0.62500  0.18800  0.79400  1.0000
  O   O16       1.0  0.37500  0.81200  0.79400  1.0000
  O   O17       1.0  0.21800  0.24500  0.90600  1.0000
  O   O18       1.0  0.78200  0.75500  0.90600  1.0000
  Rb  Rb1       1.0  0.75100  0.27400  0.00000  1.0000
  Rb  Rb2       1.0  0.24900  0.72600  0.00000  1.0000
  Rb  Rb3       1.0  0.27400  0.24900  0.50000  1.0000
  Rb  Rb4       1.0  0.72600  0.75100  0.50000  1.0000
  V   V1        1.0  0.28600  0.15300  0.19800  1.0000
  V   V2        1.0  0.71400  0.84700  0.19800  1.0000
  V   V3        1.0  0.84700  0.28600  0.30200  1.0000
  V   V4        1.0  0.15300  0.71400  0.30200  1.0000
  V   V5        1.0  0.84700  0.28600  0.69800  1.0000
  V   V6        1.0  0.15300  0.71400  0.69800  1.0000
  V   V7        1.0  0.28600  0.15300  0.80200  1.0000
  V   V8        1.0  0.71400  0.84700  0.80200  1.0000
