data_image0
_chemical_formula_structural       Bi4O20Te4W2
_chemical_formula_sum              "Bi4 O20 Te4 W2"
_cell_length_a       5.60157
_cell_length_b       6.78092
_cell_length_c       12.262
_cell_angle_alpha    91.1269
_cell_angle_beta     90
_cell_angle_gamma    114.396

_space_group_name_H-M_alt    "P 1"
_space_group_IT_number       1

loop_
  _space_group_symop_operation_xyz
  'x, y, z'

loop_
  _atom_site_type_symbol
  _atom_site_label
  _atom_site_symmetry_multiplicity
  _atom_site_fract_x
  _atom_site_fract_y
  _atom_site_fract_z
  _atom_site_occupancy
  Bi  Bi1       1.0  0.34100  0.18800  0.04730  1.0000
  Bi  Bi2       1.0  0.15300  0.81200  0.45300  1.0000
  Bi  Bi3       1.0  0.84700  0.18800  0.54700  1.0000
  Bi  Bi4       1.0  0.65900  0.81200  0.95300  1.0000
  O   O1        1.0  0.77700  0.55700  0.04910  1.0000
  O   O2        1.0  0.32000  0.84800  0.06190  1.0000
  O   O3        1.0  0.90200  0.99600  0.10000  1.0000
  O   O4        1.0  0.72900  0.22700  0.24200  1.0000
  O   O5        1.0  0.23000  0.23700  0.24400  1.0000
  O   O6        1.0  0.99300  0.76300  0.25600  1.0000
  O   O7        1.0  0.50200  0.77300  0.25800  1.0000
  O   O8        1.0  0.90600  0.00391  0.40000  1.0000
  O   O9        1.0  0.47200  0.15200  0.43800  1.0000
  O   O10       1.0  0.22000  0.44300  0.45100  1.0000
  O   O11       1.0  0.78000  0.55700  0.54900  1.0000
  O   O12       1.0  0.52800  0.84800  0.56200  1.0000
  O   O13       1.0  0.09370  0.99600  0.60000  1.0000
  O   O14       1.0  0.49800  0.22700  0.74200  1.0000
  O   O15       1.0  0.00713  0.23700  0.74400  1.0000
  O   O16       1.0  0.77000  0.76300  0.75600  1.0000
  O   O17       1.0  0.27100  0.77300  0.75800  1.0000
  O   O18       1.0  0.09760  0.00391  0.90000  1.0000
  O   O19       1.0  0.68000  0.15200  0.93800  1.0000
  O   O20       1.0  0.22300  0.44300  0.95100  1.0000
  Te  Te1       1.0  0.07680  0.60700  0.14200  1.0000
  Te  Te2       1.0  0.46900  0.39300  0.35800  1.0000
  Te  Te3       1.0  0.53100  0.60700  0.64200  1.0000
  Te  Te4       1.0  0.92300  0.39300  0.85800  1.0000
  W   W1        1.0  0.81600  0.00000  0.25000  1.0000
  W   W2        1.0  0.18400  0.00000  0.75000  1.0000
