data_image0
_chemical_formula_structural       Mn8Sn14Tm8
_chemical_formula_sum              "Mn8 Sn14 Tm8"
_cell_length_a       5.79135
_cell_length_b       10.9501
_cell_length_c       10.9501
_cell_angle_alpha    94.01
_cell_angle_beta     74.6662
_cell_angle_gamma    105.334

_space_group_name_H-M_alt    "P 1"
_space_group_IT_number       1

loop_
  _space_group_symop_operation_xyz
  'x, y, z'

loop_
  _atom_site_type_symbol
  _atom_site_label
  _atom_site_symmetry_multiplicity
  _atom_site_fract_x
  _atom_site_fract_y
  _atom_site_fract_z
  _atom_site_occupancy
  Mn  Mn1       1.0  0.40000  0.50000  0.20000  1.0000
  Mn  Mn2       1.0  0.90000  0.50000  0.20000  1.0000
  Mn  Mn3       1.0  0.40000  0.80000  0.50000  1.0000
  Mn  Mn4       1.0  0.90000  0.80000  0.50000  1.0000
  Mn  Mn5       1.0  0.10000  0.20000  0.50000  1.0000
  Mn  Mn6       1.0  0.60000  0.20000  0.50000  1.0000
  Mn  Mn7       1.0  0.10000  0.50000  0.80000  1.0000
  Mn  Mn8       1.0  0.60000  0.50000  0.80000  1.0000
  Sn  Sn1       1.0  0.25000  0.00000  0.00000  1.0000
  Sn  Sn2       1.0  0.75000  0.00000  0.00000  1.0000
  Sn  Sn3       1.0  0.70400  0.40800  0.00000  1.0000
  Sn  Sn4       1.0  0.29600  0.59200  0.00000  1.0000
  Sn  Sn5       1.0  0.00000  0.28700  0.28700  1.0000
  Sn  Sn6       1.0  0.71300  0.71300  0.28700  1.0000
  Sn  Sn7       1.0  0.50000  0.40300  0.40300  1.0000
  Sn  Sn8       1.0  0.09730  0.59700  0.40300  1.0000
  Sn  Sn9       1.0  0.29600  0.00000  0.40800  1.0000
  Sn  Sn10      1.0  0.70400  0.00000  0.59200  1.0000
  Sn  Sn11      1.0  0.90300  0.40300  0.59700  1.0000
  Sn  Sn12      1.0  0.50000  0.59700  0.59700  1.0000
  Sn  Sn13      1.0  0.28700  0.28700  0.71300  1.0000
  Sn  Sn14      1.0  0.00000  0.71300  0.71300  1.0000
  Tm  Tm1       1.0  0.13900  0.27900  0.00000  1.0000
  Tm  Tm2       1.0  0.86100  0.72100  0.00000  1.0000
  Tm  Tm3       1.0  0.50000  0.19300  0.19300  1.0000
  Tm  Tm4       1.0  0.30700  0.80700  0.19300  1.0000
  Tm  Tm5       1.0  0.86100  0.00000  0.27900  1.0000
  Tm  Tm6       1.0  0.13900  0.00000  0.72100  1.0000
  Tm  Tm7       1.0  0.69300  0.19300  0.80700  1.0000
  Tm  Tm8       1.0  0.50000  0.80700  0.80700  1.0000
