data_image0
_chemical_formula_structural       F24Ge2S4
_chemical_formula_sum              "F24 Ge2 S4"
_cell_length_a       5.63068
_cell_length_b       8.98847
_cell_length_c       6.86459
_cell_angle_alpha    90
_cell_angle_beta     90
_cell_angle_gamma    90

_space_group_name_H-M_alt    "P 1"
_space_group_IT_number       1

loop_
  _space_group_symop_operation_xyz
  'x, y, z'

loop_
  _atom_site_type_symbol
  _atom_site_label
  _atom_site_symmetry_multiplicity
  _atom_site_fract_x
  _atom_site_fract_y
  _atom_site_fract_z
  _atom_site_occupancy
  F   F1        1.0  0.20600  0.13700  0.03500  1.0000
  F   F2        1.0  0.79400  0.13700  0.03500  1.0000
  F   F3        1.0  0.50000  0.67700  0.12800  1.0000
  F   F4        1.0  0.00000  0.68900  0.14800  1.0000
  F   F5        1.0  0.27300  0.43000  0.16200  1.0000
  F   F6        1.0  0.72700  0.43000  0.16200  1.0000
  F   F7        1.0  0.22700  0.93000  0.33800  1.0000
  F   F8        1.0  0.77300  0.93000  0.33800  1.0000
  F   F9        1.0  0.50000  0.18900  0.35200  1.0000
  F   F10       1.0  0.00000  0.17700  0.37200  1.0000
  F   F11       1.0  0.29400  0.63700  0.46500  1.0000
  F   F12       1.0  0.70600  0.63700  0.46500  1.0000
  F   F13       1.0  0.29400  0.36300  0.53500  1.0000
  F   F14       1.0  0.70600  0.36300  0.53500  1.0000
  F   F15       1.0  0.00000  0.82300  0.62800  1.0000
  F   F16       1.0  0.50000  0.81100  0.64800  1.0000
  F   F17       1.0  0.22700  0.07010  0.66200  1.0000
  F   F18       1.0  0.77300  0.07010  0.66200  1.0000
  F   F19       1.0  0.27300  0.57000  0.83800  1.0000
  F   F20       1.0  0.72700  0.57000  0.83800  1.0000
  F   F21       1.0  0.00000  0.31100  0.85200  1.0000
  F   F22       1.0  0.50000  0.32300  0.87200  1.0000
  F   F23       1.0  0.20600  0.86300  0.96500  1.0000
  F   F24       1.0  0.79400  0.86300  0.96500  1.0000
  Ge  Ge1       1.0  0.50000  0.50000  0.00000  1.0000
  Ge  Ge2       1.0  0.00000  0.00000  0.50000  1.0000
  S   S1        1.0  0.00000  0.25100  0.06730  1.0000
  S   S2        1.0  0.50000  0.75100  0.43300  1.0000
  S   S3        1.0  0.50000  0.24900  0.56700  1.0000
  S   S4        1.0  0.00000  0.74900  0.93300  1.0000
