data_image0
_chemical_formula_structural       Mn4Mo2P24
_chemical_formula_sum              "Mn4 Mo2 P24"
_cell_length_a       5.72546
_cell_length_b       8.47873
_cell_length_c       10.4865
_cell_angle_alpha    102.18
_cell_angle_beta     105.842
_cell_angle_gamma    109.733

_space_group_name_H-M_alt    "P 1"
_space_group_IT_number       1

loop_
  _space_group_symop_operation_xyz
  'x, y, z'

loop_
  _atom_site_type_symbol
  _atom_site_label
  _atom_site_symmetry_multiplicity
  _atom_site_fract_x
  _atom_site_fract_y
  _atom_site_fract_z
  _atom_site_occupancy
  Mn  Mn1       1.0  0.67300  0.68400  0.04550  1.0000
  Mn  Mn2       1.0  0.44300  0.81600  0.45400  1.0000
  Mn  Mn3       1.0  0.55700  0.18400  0.54600  1.0000
  Mn  Mn4       1.0  0.32700  0.31600  0.95400  1.0000
  Mo  Mo1       1.0  0.94500  0.25000  0.25000  1.0000
  Mo  Mo2       1.0  0.05460  0.75000  0.75000  1.0000
  P   P1        1.0  0.33500  0.77100  0.00290  1.0000
  P   P2        1.0  0.15100  0.14100  0.07420  1.0000
  P   P3        1.0  0.02440  0.62100  0.07580  1.0000
  P   P4        1.0  0.51800  0.52100  0.16500  1.0000
  P   P5        1.0  0.46600  0.04440  0.16600  1.0000
  P   P6        1.0  0.91100  0.93600  0.24000  1.0000
  P   P7        1.0  0.23500  0.56400  0.26000  1.0000
  P   P8        1.0  0.75500  0.45600  0.33400  1.0000
  P   P9        1.0  0.33200  0.97900  0.33500  1.0000
  P   P10       1.0  0.82700  0.87900  0.42400  1.0000
  P   P11       1.0  0.43600  0.35900  0.42600  1.0000
  P   P12       1.0  0.06160  0.72900  0.49700  1.0000
  P   P13       1.0  0.93800  0.27100  0.50300  1.0000
  P   P14       1.0  0.56400  0.64100  0.57400  1.0000
  P   P15       1.0  0.17300  0.12100  0.57600  1.0000
  P   P16       1.0  0.66800  0.02060  0.66500  1.0000
  P   P17       1.0  0.24500  0.54400  0.66600  1.0000
  P   P18       1.0  0.76500  0.43600  0.74000  1.0000
  P   P19       1.0  0.08950  0.06440  0.76000  1.0000
  P   P20       1.0  0.53400  0.95600  0.83400  1.0000
  P   P21       1.0  0.48200  0.47900  0.83500  1.0000
  P   P22       1.0  0.97600  0.37900  0.92400  1.0000
  P   P23       1.0  0.84900  0.85900  0.92600  1.0000
  P   P24       1.0  0.66500  0.22900  0.99700  1.0000
