data_image0
_chemical_formula_structural       Co2F2H12O12P2
_chemical_formula_sum              "Co2 F2 H12 O12 P2"
_cell_length_a       4.68159
_cell_length_b       5.45171
_cell_length_c       10.056
_cell_angle_alpha    95.901
_cell_angle_beta     99.8805
_cell_angle_gamma    91.9774

_space_group_name_H-M_alt    "P 1"
_space_group_IT_number       1

loop_
  _space_group_symop_operation_xyz
  'x, y, z'

loop_
  _atom_site_type_symbol
  _atom_site_label
  _atom_site_symmetry_multiplicity
  _atom_site_fract_x
  _atom_site_fract_y
  _atom_site_fract_z
  _atom_site_occupancy
  Co  Co1       1.0  0.00000  0.00000  0.00000  1.0000
  Co  Co2       1.0  0.50000  0.00000  0.50000  1.0000
  F   F1        1.0  0.12900  0.41700  0.31300  1.0000
  F   F2        1.0  0.87100  0.58300  0.68700  1.0000
  H   H1        1.0  0.26500  0.45600  0.07740  1.0000
  H   H2        1.0  0.49400  0.24000  0.10000  1.0000
  H   H3        1.0  0.47600  0.80000  0.11800  1.0000
  H   H4        1.0  0.24200  0.81300  0.21600  1.0000
  H   H5        1.0  0.86600  0.74800  0.38700  1.0000
  H   H6        1.0  0.64300  0.53100  0.40200  1.0000
  H   H7        1.0  0.35700  0.46900  0.59800  1.0000
  H   H8        1.0  0.13400  0.25200  0.61300  1.0000
  H   H9        1.0  0.75800  0.18700  0.78400  1.0000
  H   H10       1.0  0.52400  0.20000  0.88200  1.0000
  H   H11       1.0  0.50600  0.76000  0.90000  1.0000
  H   H12       1.0  0.73500  0.54400  0.92300  1.0000
  O   O1        1.0  0.30500  0.28300  0.04530  1.0000
  O   O2        1.0  0.27000  0.76100  0.12100  1.0000
  O   O3        1.0  0.78500  0.11800  0.15700  1.0000
  O   O4        1.0  0.13400  0.97100  0.34800  1.0000
  O   O5        1.0  0.66000  0.71100  0.39100  1.0000
  O   O6        1.0  0.71900  0.24000  0.40000  1.0000
  O   O7        1.0  0.28100  0.76000  0.60000  1.0000
  O   O8        1.0  0.34000  0.28900  0.60900  1.0000
  O   O9        1.0  0.86600  0.02930  0.65200  1.0000
  O   O10       1.0  0.21500  0.88200  0.84300  1.0000
  O   O11       1.0  0.73000  0.23900  0.87900  1.0000
  O   O12       1.0  0.69500  0.71700  0.95500  1.0000
  P   P1        1.0  0.93000  0.17300  0.30500  1.0000
  P   P2        1.0  0.06970  0.82700  0.69500  1.0000
