data_image0
_chemical_formula_structural       Cu16Ge2S12
_chemical_formula_sum              "Cu16 Ge2 S12"
_cell_length_a       7.05285
_cell_length_b       6.95983
_cell_length_c       9.80586
_cell_angle_alpha    90
_cell_angle_beta     90
_cell_angle_gamma    90

_space_group_name_H-M_alt    "P 1"
_space_group_IT_number       1

loop_
  _space_group_symop_operation_xyz
  'x, y, z'

loop_
  _atom_site_type_symbol
  _atom_site_label
  _atom_site_symmetry_multiplicity
  _atom_site_fract_x
  _atom_site_fract_y
  _atom_site_fract_z
  _atom_site_occupancy
  Cu  Cu1       1.0  0.00000  0.59900  0.02730  1.0000
  Cu  Cu2       1.0  0.20900  0.15700  0.15100  1.0000
  Cu  Cu3       1.0  0.79100  0.15700  0.15100  1.0000
  Cu  Cu4       1.0  0.20600  0.52300  0.25500  1.0000
  Cu  Cu5       1.0  0.79400  0.52300  0.25500  1.0000
  Cu  Cu6       1.0  0.29300  0.88800  0.35200  1.0000
  Cu  Cu7       1.0  0.70700  0.88800  0.35200  1.0000
  Cu  Cu8       1.0  0.00000  0.73400  0.47700  1.0000
  Cu  Cu9       1.0  0.50000  0.40100  0.52700  1.0000
  Cu  Cu10      1.0  0.29100  0.84300  0.65100  1.0000
  Cu  Cu11      1.0  0.70900  0.84300  0.65100  1.0000
  Cu  Cu12      1.0  0.29400  0.47700  0.75500  1.0000
  Cu  Cu13      1.0  0.70600  0.47700  0.75500  1.0000
  Cu  Cu14      1.0  0.20700  0.11200  0.85200  1.0000
  Cu  Cu15      1.0  0.79300  0.11200  0.85200  1.0000
  Cu  Cu16      1.0  0.50000  0.26600  0.97700  1.0000
  Ge  Ge1       1.0  0.50000  0.75000  0.00670  1.0000
  Ge  Ge2       1.0  0.00000  0.25000  0.50700  1.0000
  S   S1        1.0  0.50000  0.49700  0.14200  1.0000
  S   S2        1.0  0.50000  0.00083  0.14800  1.0000
  S   S3        1.0  0.00000  0.77900  0.24600  1.0000
  S   S4        1.0  0.26400  0.24500  0.38500  1.0000
  S   S5        1.0  0.73600  0.24500  0.38500  1.0000
  S   S6        1.0  0.50000  0.73200  0.49900  1.0000
  S   S7        1.0  0.00000  0.50300  0.64200  1.0000
  S   S8        1.0  0.00000  0.99900  0.64800  1.0000
  S   S9        1.0  0.50000  0.22100  0.74600  1.0000
  S   S10       1.0  0.23600  0.75500  0.88500  1.0000
  S   S11       1.0  0.76400  0.75500  0.88500  1.0000
  S   S12       1.0  0.00000  0.26800  0.99900  1.0000
