data_image0
_chemical_formula_structural       Cl2Cu6Nd2O16Se4
_chemical_formula_sum              "Cl2 Cu6 Nd2 O16 Se4"
_cell_length_a       6.36464
_cell_length_b       9.61469
_cell_length_c       7.05788
_cell_angle_alpha    90
_cell_angle_beta     90
_cell_angle_gamma    90

_space_group_name_H-M_alt    "P 1"
_space_group_IT_number       1

loop_
  _space_group_symop_operation_xyz
  'x, y, z'

loop_
  _atom_site_type_symbol
  _atom_site_label
  _atom_site_symmetry_multiplicity
  _atom_site_fract_x
  _atom_site_fract_y
  _atom_site_fract_z
  _atom_site_occupancy
  Cl  Cl1       1.0  0.25000  0.75000  0.15700  1.0000
  Cl  Cl2       1.0  0.75000  0.25000  0.84300  1.0000
  Cu  Cu1       1.0  0.00000  0.00000  0.00000  1.0000
  Cu  Cu2       1.0  0.50000  0.00000  0.00000  1.0000
  Cu  Cu3       1.0  0.00000  0.50000  0.00000  1.0000
  Cu  Cu4       1.0  0.50000  0.50000  0.00000  1.0000
  Cu  Cu5       1.0  0.75000  0.75000  0.20700  1.0000
  Cu  Cu6       1.0  0.25000  0.25000  0.79300  1.0000
  Nd  Nd1       1.0  0.25000  0.25000  0.26400  1.0000
  Nd  Nd2       1.0  0.75000  0.75000  0.73600  1.0000
  O   O1        1.0  0.75000  0.60900  0.01180  1.0000
  O   O2        1.0  0.75000  0.89100  0.01180  1.0000
  O   O3        1.0  0.53900  0.08490  0.25700  1.0000
  O   O4        1.0  0.96100  0.08490  0.25700  1.0000
  O   O5        1.0  0.53900  0.41500  0.25700  1.0000
  O   O6        1.0  0.96100  0.41500  0.25700  1.0000
  O   O7        1.0  0.75000  0.62100  0.42300  1.0000
  O   O8        1.0  0.75000  0.87900  0.42300  1.0000
  O   O9        1.0  0.25000  0.12100  0.57700  1.0000
  O   O10       1.0  0.25000  0.37900  0.57700  1.0000
  O   O11       1.0  0.03870  0.58500  0.74300  1.0000
  O   O12       1.0  0.46100  0.58500  0.74300  1.0000
  O   O13       1.0  0.03870  0.91500  0.74300  1.0000
  O   O14       1.0  0.46100  0.91500  0.74300  1.0000
  O   O15       1.0  0.25000  0.10900  0.98800  1.0000
  O   O16       1.0  0.25000  0.39100  0.98800  1.0000
  Se  Se1       1.0  0.75000  0.05790  0.40600  1.0000
  Se  Se2       1.0  0.75000  0.44200  0.40600  1.0000
  Se  Se3       1.0  0.25000  0.55800  0.59400  1.0000
  Se  Se4       1.0  0.25000  0.94200  0.59400  1.0000
