data_image0
_chemical_formula_structural       Ni18P10Sr2
_chemical_formula_sum              "Ni18 P10 Sr2"
_cell_length_a       6.50517
_cell_length_b       6.5072
_cell_length_c       10.743
_cell_angle_alpha    90
_cell_angle_beta     90
_cell_angle_gamma    119.99

_space_group_name_H-M_alt    "P 1"
_space_group_IT_number       1

loop_
  _space_group_symop_operation_xyz
  'x, y, z'

loop_
  _atom_site_type_symbol
  _atom_site_label
  _atom_site_symmetry_multiplicity
  _atom_site_fract_x
  _atom_site_fract_y
  _atom_site_fract_z
  _atom_site_occupancy
  Ni  Ni1       1.0  0.53600  0.46400  0.10700  1.0000
  Ni  Ni2       1.0  0.92800  0.46400  0.10700  1.0000
  Ni  Ni3       1.0  0.53600  0.07190  0.10700  1.0000
  Ni  Ni4       1.0  0.20300  0.40500  0.25000  1.0000
  Ni  Ni5       1.0  0.20300  0.79700  0.25000  1.0000
  Ni  Ni6       1.0  0.59500  0.79700  0.25000  1.0000
  Ni  Ni7       1.0  0.53600  0.07190  0.39300  1.0000
  Ni  Ni8       1.0  0.53600  0.46400  0.39300  1.0000
  Ni  Ni9       1.0  0.92800  0.46400  0.39300  1.0000
  Ni  Ni10      1.0  0.07190  0.53600  0.60700  1.0000
  Ni  Ni11      1.0  0.46400  0.53600  0.60700  1.0000
  Ni  Ni12      1.0  0.46400  0.92800  0.60700  1.0000
  Ni  Ni13      1.0  0.40500  0.20300  0.75000  1.0000
  Ni  Ni14      1.0  0.79700  0.20300  0.75000  1.0000
  Ni  Ni15      1.0  0.79700  0.59500  0.75000  1.0000
  Ni  Ni16      1.0  0.46400  0.92800  0.89300  1.0000
  Ni  Ni17      1.0  0.07190  0.53600  0.89300  1.0000
  Ni  Ni18      1.0  0.46400  0.53600  0.89300  1.0000
  P   P1        1.0  0.33300  0.66700  0.06190  1.0000
  P   P2        1.0  0.34700  0.17400  0.25000  1.0000
  P   P3        1.0  0.82600  0.17400  0.25000  1.0000
  P   P4        1.0  0.82600  0.65300  0.25000  1.0000
  P   P5        1.0  0.33300  0.66700  0.43800  1.0000
  P   P6        1.0  0.66700  0.33300  0.56200  1.0000
  P   P7        1.0  0.17400  0.34700  0.75000  1.0000
  P   P8        1.0  0.17400  0.82600  0.75000  1.0000
  P   P9        1.0  0.65300  0.82600  0.75000  1.0000
  P   P10       1.0  0.66700  0.33300  0.93800  1.0000
  Sr  Sr1       1.0  0.00000  0.00000  0.00000  1.0000
  Sr  Sr2       1.0  0.00000  0.00000  0.50000  1.0000
