data_image0
_chemical_formula_structural       Ga20Os6Tm4
_chemical_formula_sum              "Ga20 Os6 Tm4"
_cell_length_a       8.87643
_cell_length_b       8.87643
_cell_length_c       6.36229
_cell_angle_alpha    90
_cell_angle_beta     90
_cell_angle_gamma    90

_space_group_name_H-M_alt    "P 1"
_space_group_IT_number       1

loop_
  _space_group_symop_operation_xyz
  'x, y, z'

loop_
  _atom_site_type_symbol
  _atom_site_label
  _atom_site_symmetry_multiplicity
  _atom_site_fract_x
  _atom_site_fract_y
  _atom_site_fract_z
  _atom_site_occupancy
  Ga  Ga1       1.0  0.50000  0.00000  0.28200  1.0000
  Ga  Ga2       1.0  0.00000  0.50000  0.28200  1.0000
  Ga  Ga3       1.0  0.79300  0.06130  0.29200  1.0000
  Ga  Ga4       1.0  0.06130  0.20700  0.29200  1.0000
  Ga  Ga5       1.0  0.56100  0.29300  0.29200  1.0000
  Ga  Ga6       1.0  0.29300  0.43900  0.29200  1.0000
  Ga  Ga7       1.0  0.70700  0.56100  0.29200  1.0000
  Ga  Ga8       1.0  0.43900  0.70700  0.29200  1.0000
  Ga  Ga9       1.0  0.93900  0.79300  0.29200  1.0000
  Ga  Ga10      1.0  0.20700  0.93900  0.29200  1.0000
  Ga  Ga11      1.0  0.79300  0.06130  0.70800  1.0000
  Ga  Ga12      1.0  0.06130  0.20700  0.70800  1.0000
  Ga  Ga13      1.0  0.56100  0.29300  0.70800  1.0000
  Ga  Ga14      1.0  0.29300  0.43900  0.70800  1.0000
  Ga  Ga15      1.0  0.70700  0.56100  0.70800  1.0000
  Ga  Ga16      1.0  0.43900  0.70700  0.70800  1.0000
  Ga  Ga17      1.0  0.93900  0.79300  0.70800  1.0000
  Ga  Ga18      1.0  0.20700  0.93900  0.70800  1.0000
  Ga  Ga19      1.0  0.50000  0.00000  0.71800  1.0000
  Ga  Ga20      1.0  0.00000  0.50000  0.71800  1.0000
  Os  Os1       1.0  0.00000  0.00000  0.00000  1.0000
  Os  Os2       1.0  0.50000  0.50000  0.00000  1.0000
  Os  Os3       1.0  0.32200  0.17800  0.50000  1.0000
  Os  Os4       1.0  0.82200  0.32200  0.50000  1.0000
  Os  Os5       1.0  0.17800  0.67800  0.50000  1.0000
  Os  Os6       1.0  0.67800  0.82200  0.50000  1.0000
  Tm  Tm1       1.0  0.31700  0.18300  0.00000  1.0000
  Tm  Tm2       1.0  0.81700  0.31700  0.00000  1.0000
  Tm  Tm3       1.0  0.18300  0.68300  0.00000  1.0000
  Tm  Tm4       1.0  0.68300  0.81700  0.00000  1.0000
