data_image0
_chemical_formula_structural       Ga20Ru6Yb4
_chemical_formula_sum              "Ga20 Ru6 Yb4"
_cell_length_a       8.92939
_cell_length_b       8.92939
_cell_length_c       6.3149
_cell_angle_alpha    90
_cell_angle_beta     90
_cell_angle_gamma    90

_space_group_name_H-M_alt    "P 1"
_space_group_IT_number       1

loop_
  _space_group_symop_operation_xyz
  'x, y, z'

loop_
  _atom_site_type_symbol
  _atom_site_label
  _atom_site_symmetry_multiplicity
  _atom_site_fract_x
  _atom_site_fract_y
  _atom_site_fract_z
  _atom_site_occupancy
  Ga  Ga1       1.0  0.50000  0.00000  0.28500  1.0000
  Ga  Ga2       1.0  0.00000  0.50000  0.28500  1.0000
  Ga  Ga3       1.0  0.79400  0.06010  0.29000  1.0000
  Ga  Ga4       1.0  0.06010  0.20600  0.29000  1.0000
  Ga  Ga5       1.0  0.56000  0.29400  0.29000  1.0000
  Ga  Ga6       1.0  0.29400  0.44000  0.29000  1.0000
  Ga  Ga7       1.0  0.70600  0.56000  0.29000  1.0000
  Ga  Ga8       1.0  0.44000  0.70600  0.29000  1.0000
  Ga  Ga9       1.0  0.94000  0.79400  0.29000  1.0000
  Ga  Ga10      1.0  0.20600  0.94000  0.29000  1.0000
  Ga  Ga11      1.0  0.79400  0.06010  0.71000  1.0000
  Ga  Ga12      1.0  0.06010  0.20600  0.71000  1.0000
  Ga  Ga13      1.0  0.56000  0.29400  0.71000  1.0000
  Ga  Ga14      1.0  0.29400  0.44000  0.71000  1.0000
  Ga  Ga15      1.0  0.70600  0.56000  0.71000  1.0000
  Ga  Ga16      1.0  0.44000  0.70600  0.71000  1.0000
  Ga  Ga17      1.0  0.94000  0.79400  0.71000  1.0000
  Ga  Ga18      1.0  0.20600  0.94000  0.71000  1.0000
  Ga  Ga19      1.0  0.50000  0.00000  0.71500  1.0000
  Ga  Ga20      1.0  0.00000  0.50000  0.71500  1.0000
  Ru  Ru1       1.0  0.00000  0.00000  0.00000  1.0000
  Ru  Ru2       1.0  0.50000  0.50000  0.00000  1.0000
  Ru  Ru3       1.0  0.32000  0.18000  0.50000  1.0000
  Ru  Ru4       1.0  0.82000  0.32000  0.50000  1.0000
  Ru  Ru5       1.0  0.18000  0.68000  0.50000  1.0000
  Ru  Ru6       1.0  0.68000  0.82000  0.50000  1.0000
  Yb  Yb1       1.0  0.31600  0.18400  0.00000  1.0000
  Yb  Yb2       1.0  0.81600  0.31600  0.00000  1.0000
  Yb  Yb3       1.0  0.18400  0.68400  0.00000  1.0000
  Yb  Yb4       1.0  0.68400  0.81600  0.00000  1.0000
