data_image0
_chemical_formula_structural       Nd4O11Sc4
_chemical_formula_sum              "Nd4 O11 Sc4"
_cell_length_a       5.57965
_cell_length_b       5.7754
_cell_length_c       8.00038
_cell_angle_alpha    90.1743
_cell_angle_beta     89.925
_cell_angle_gamma    90.3336

_space_group_name_H-M_alt    "P 1"
_space_group_IT_number       1

loop_
  _space_group_symop_operation_xyz
  'x, y, z'

loop_
  _atom_site_type_symbol
  _atom_site_label
  _atom_site_symmetry_multiplicity
  _atom_site_fract_x
  _atom_site_fract_y
  _atom_site_fract_z
  _atom_site_occupancy
  Nd  Nd1       1.0  0.51700  0.55800  0.24900  1.0000
  Nd  Nd2       1.0  0.98900  0.05060  0.25400  1.0000
  Nd  Nd3       1.0  0.48400  0.44500  0.74700  1.0000
  Nd  Nd4       1.0  0.01210  0.94500  0.75200  1.0000
  O   O1        1.0  0.80000  0.79700  0.05800  1.0000
  O   O2        1.0  0.39800  0.96400  0.24800  1.0000
  O   O3        1.0  0.10700  0.46000  0.24900  1.0000
  O   O4        1.0  0.69700  0.30100  0.43900  1.0000
  O   O5        1.0  0.79800  0.79800  0.44500  1.0000
  O   O6        1.0  0.19600  0.19900  0.55700  1.0000
  O   O7        1.0  0.29600  0.70400  0.55800  1.0000
  O   O8        1.0  0.60900  0.04250  0.75000  1.0000
  O   O9        1.0  0.89100  0.53800  0.75100  1.0000
  O   O10       1.0  0.30300  0.70000  0.94200  1.0000
  O   O11       1.0  0.20300  0.20100  0.94400  1.0000
  Sc  Sc1       1.0  0.49900  0.00000  0.49900  1.0000
  Sc  Sc2       1.0  0.99900  0.49900  0.50000  1.0000
  Sc  Sc3       1.0  0.50000  0.99800  0.99900  1.0000
  Sc  Sc4       1.0  0.00581  0.50000  0.00000  1.0000
