data_image0
_chemical_formula_structural       Co4K12O14
_chemical_formula_sum              "Co4 K12 O14"
_cell_length_a       6.50706
_cell_length_b       9.04822
_cell_length_c       11.4325
_cell_angle_alpha    90
_cell_angle_beta     127.097
_cell_angle_gamma    90

_space_group_name_H-M_alt    "P 1"
_space_group_IT_number       1

loop_
  _space_group_symop_operation_xyz
  'x, y, z'

loop_
  _atom_site_type_symbol
  _atom_site_label
  _atom_site_symmetry_multiplicity
  _atom_site_fract_x
  _atom_site_fract_y
  _atom_site_fract_z
  _atom_site_occupancy
  Co  Co1       1.0  0.58400  0.85700  0.13800  1.0000
  Co  Co2       1.0  0.41600  0.35700  0.36200  1.0000
  Co  Co3       1.0  0.58400  0.64300  0.63800  1.0000
  Co  Co4       1.0  0.41600  0.14300  0.86200  1.0000
  K   K1        1.0  0.31600  0.52500  0.06070  1.0000
  K   K2        1.0  0.20100  0.15000  0.06910  1.0000
  K   K3        1.0  0.84400  0.20400  0.21100  1.0000
  K   K4        1.0  0.15600  0.70400  0.28900  1.0000
  K   K5        1.0  0.79900  0.65000  0.43100  1.0000
  K   K6        1.0  0.68400  0.02490  0.43900  1.0000
  K   K7        1.0  0.31600  0.97500  0.56100  1.0000
  K   K8        1.0  0.20100  0.35000  0.56900  1.0000
  K   K9        1.0  0.84400  0.29600  0.71100  1.0000
  K   K10       1.0  0.15600  0.79600  0.78900  1.0000
  K   K11       1.0  0.79900  0.85000  0.93100  1.0000
  K   K12       1.0  0.68400  0.47500  0.93900  1.0000
  O   O1        1.0  0.50000  0.00000  0.00000  1.0000
  O   O2        1.0  0.64700  0.69700  0.07340  1.0000
  O   O3        1.0  0.32000  0.83500  0.14700  1.0000
  O   O4        1.0  0.12900  0.40600  0.18800  1.0000
  O   O5        1.0  0.87100  0.90600  0.31200  1.0000
  O   O6        1.0  0.68000  0.33500  0.35300  1.0000
  O   O7        1.0  0.35300  0.19700  0.42700  1.0000
  O   O8        1.0  0.50000  0.50000  0.50000  1.0000
  O   O9        1.0  0.64700  0.80300  0.57300  1.0000
  O   O10       1.0  0.32000  0.66500  0.64700  1.0000
  O   O11       1.0  0.12900  0.09440  0.68800  1.0000
  O   O12       1.0  0.87100  0.59400  0.81200  1.0000
  O   O13       1.0  0.68000  0.16500  0.85300  1.0000
  O   O14       1.0  0.35300  0.30300  0.92700  1.0000
