data_image0
_chemical_formula_structural       C2Gd2H10O14P2
_chemical_formula_sum              "C2 Gd2 H10 O14 P2"
_cell_length_a       6.40657
_cell_length_b       6.81017
_cell_length_c       7.36423
_cell_angle_alpha    109.87
_cell_angle_beta     93.5767
_cell_angle_gamma    91.5409

_space_group_name_H-M_alt    "P 1"
_space_group_IT_number       1

loop_
  _space_group_symop_operation_xyz
  'x, y, z'

loop_
  _atom_site_type_symbol
  _atom_site_label
  _atom_site_symmetry_multiplicity
  _atom_site_fract_x
  _atom_site_fract_y
  _atom_site_fract_z
  _atom_site_occupancy
  C   C1        1.0  0.93900  0.09440  0.49600  1.0000
  C   C2        1.0  0.06080  0.90600  0.50400  1.0000
  Gd  Gd1       1.0  0.87300  0.77300  0.05940  1.0000
  Gd  Gd2       1.0  0.12700  0.22700  0.94100  1.0000
  H   H1        1.0  0.58600  0.26700  0.19200  1.0000
  H   H2        1.0  0.17000  0.52700  0.33200  1.0000
  H   H3        1.0  0.29100  0.33100  0.36800  1.0000
  H   H4        1.0  0.54000  0.76100  0.37200  1.0000
  H   H5        1.0  0.54400  0.14100  0.42200  1.0000
  H   H6        1.0  0.45600  0.85900  0.57800  1.0000
  H   H7        1.0  0.46000  0.23900  0.62800  1.0000
  H   H8        1.0  0.70900  0.66900  0.63200  1.0000
  H   H9        1.0  0.83000  0.47300  0.66800  1.0000
  H   H10       1.0  0.41400  0.73300  0.80800  1.0000
  O   O1        1.0  0.82100  0.42900  0.04070  1.0000
  O   O2        1.0  0.20700  0.95200  0.05250  1.0000
  O   O3        1.0  0.52700  0.76500  0.12800  1.0000
  O   O4        1.0  0.21700  0.38300  0.27100  1.0000
  O   O5        1.0  0.83800  0.07950  0.34000  1.0000
  O   O6        1.0  0.05050  0.74900  0.34900  1.0000
  O   O7        1.0  0.42200  0.20700  0.48800  1.0000
  O   O8        1.0  0.57800  0.79300  0.51200  1.0000
  O   O9        1.0  0.95000  0.25100  0.65100  1.0000
  O   O10       1.0  0.16200  0.92000  0.66000  1.0000
  O   O11       1.0  0.78300  0.61700  0.72900  1.0000
  O   O12       1.0  0.47300  0.23500  0.87200  1.0000
  O   O13       1.0  0.79300  0.04830  0.94800  1.0000
  O   O14       1.0  0.17900  0.57100  0.95900  1.0000
  P   P1        1.0  0.66200  0.24500  0.01220  1.0000
  P   P2        1.0  0.33800  0.75500  0.98800  1.0000
