data_image0
_chemical_formula_structural       Cs4O18Si6Zr2
_chemical_formula_sum              "Cs4 O18 Si6 Zr2"
_cell_length_a       7.18141
_cell_length_b       7.18142
_cell_length_c       10.3307
_cell_angle_alpha    90
_cell_angle_beta     90
_cell_angle_gamma    120.001

_space_group_name_H-M_alt    "P 1"
_space_group_IT_number       1

loop_
  _space_group_symop_operation_xyz
  'x, y, z'

loop_
  _atom_site_type_symbol
  _atom_site_label
  _atom_site_symmetry_multiplicity
  _atom_site_fract_x
  _atom_site_fract_y
  _atom_site_fract_z
  _atom_site_occupancy
  Cs  Cs1       1.0  0.33300  0.66700  0.06240  1.0000
  Cs  Cs2       1.0  0.33300  0.66700  0.43800  1.0000
  Cs  Cs3       1.0  0.66700  0.33300  0.56200  1.0000
  Cs  Cs4       1.0  0.66700  0.33300  0.93800  1.0000
  O   O1        1.0  0.78600  0.04420  0.11700  1.0000
  O   O2        1.0  0.95600  0.74200  0.11700  1.0000
  O   O3        1.0  0.25800  0.21400  0.11700  1.0000
  O   O4        1.0  0.50000  0.09160  0.25000  1.0000
  O   O5        1.0  0.90800  0.40900  0.25000  1.0000
  O   O6        1.0  0.59100  0.50000  0.25000  1.0000
  O   O7        1.0  0.25800  0.21400  0.38300  1.0000
  O   O8        1.0  0.95600  0.74200  0.38300  1.0000
  O   O9        1.0  0.78600  0.04420  0.38300  1.0000
  O   O10       1.0  0.21400  0.95600  0.61700  1.0000
  O   O11       1.0  0.04420  0.25800  0.61700  1.0000
  O   O12       1.0  0.74200  0.78600  0.61700  1.0000
  O   O13       1.0  0.40900  0.50000  0.75000  1.0000
  O   O14       1.0  0.09150  0.59100  0.75000  1.0000
  O   O15       1.0  0.50000  0.90800  0.75000  1.0000
  O   O16       1.0  0.04420  0.25800  0.88300  1.0000
  O   O17       1.0  0.74200  0.78600  0.88300  1.0000
  O   O18       1.0  0.21400  0.95600  0.88300  1.0000
  Si  Si1       1.0  0.75500  0.14300  0.25000  1.0000
  Si  Si2       1.0  0.38800  0.24500  0.25000  1.0000
  Si  Si3       1.0  0.85700  0.61200  0.25000  1.0000
  Si  Si4       1.0  0.14300  0.38800  0.75000  1.0000
  Si  Si5       1.0  0.61200  0.75500  0.75000  1.0000
  Si  Si6       1.0  0.24500  0.85700  0.75000  1.0000
  Zr  Zr1       1.0  0.00000  0.00000  0.00000  1.0000
  Zr  Zr2       1.0  0.00000  0.00000  0.50000  1.0000
