data_image0
_chemical_formula_structural       Eu4O11Tc4
_chemical_formula_sum              "Eu4 O11 Tc4"
_cell_length_a       5.447
_cell_length_b       5.51088
_cell_length_c       7.6308
_cell_angle_alpha    90
_cell_angle_beta     90
_cell_angle_gamma    90.1791

_space_group_name_H-M_alt    "P 1"
_space_group_IT_number       1

loop_
  _space_group_symop_operation_xyz
  'x, y, z'

loop_
  _atom_site_type_symbol
  _atom_site_label
  _atom_site_symmetry_multiplicity
  _atom_site_fract_x
  _atom_site_fract_y
  _atom_site_fract_z
  _atom_site_occupancy
  Eu  Eu1       1.0  0.99700  0.02330  0.25000  1.0000
  Eu  Eu2       1.0  0.50000  0.53500  0.25000  1.0000
  Eu  Eu3       1.0  0.49600  0.47300  0.75000  1.0000
  Eu  Eu4       1.0  0.00575  0.95500  0.75000  1.0000
  O   O1        1.0  0.77800  0.77600  0.03770  1.0000
  O   O2        1.0  0.72500  0.27700  0.04210  1.0000
  O   O3        1.0  0.43000  0.98700  0.25000  1.0000
  O   O4        1.0  0.72500  0.27700  0.45800  1.0000
  O   O5        1.0  0.77800  0.77600  0.46200  1.0000
  O   O6        1.0  0.21800  0.22300  0.51600  1.0000
  O   O7        1.0  0.28200  0.71700  0.52300  1.0000
  O   O8        1.0  0.56600  0.02070  0.75000  1.0000
  O   O9        1.0  0.92600  0.52500  0.75000  1.0000
  O   O10       1.0  0.28200  0.71700  0.97700  1.0000
  O   O11       1.0  0.21800  0.22300  0.98400  1.0000
  Tc  Tc1       1.0  0.50200  0.00385  0.00393  1.0000
  Tc  Tc2       1.0  0.99900  0.50100  0.02500  1.0000
  Tc  Tc3       1.0  0.99900  0.50100  0.47500  1.0000
  Tc  Tc4       1.0  0.50200  0.00385  0.49600  1.0000
