data_image0
_chemical_formula_structural       H8O16P4Pb2
_chemical_formula_sum              "H8 O16 P4 Pb2"
_cell_length_a       7.69499
_cell_length_b       8.08652
_cell_length_c       5.80232
_cell_angle_alpha    110.22
_cell_angle_beta     96.7574
_cell_angle_gamma    104.649

_space_group_name_H-M_alt    "P 1"
_space_group_IT_number       1

loop_
  _space_group_symop_operation_xyz
  'x, y, z'

loop_
  _atom_site_type_symbol
  _atom_site_label
  _atom_site_symmetry_multiplicity
  _atom_site_fract_x
  _atom_site_fract_y
  _atom_site_fract_z
  _atom_site_occupancy
  H   H1        1.0  0.83600  0.43000  0.17500  1.0000
  H   H2        1.0  0.28100  0.63900  0.24400  1.0000
  H   H3        1.0  0.53600  0.49900  0.25000  1.0000
  H   H4        1.0  0.53200  0.27300  0.40500  1.0000
  H   H5        1.0  0.46800  0.72700  0.59500  1.0000
  H   H6        1.0  0.46400  0.50100  0.75000  1.0000
  H   H7        1.0  0.71900  0.36100  0.75600  1.0000
  H   H8        1.0  0.16400  0.57000  0.82500  1.0000
  O   O1        1.0  0.89700  0.80800  0.00351  1.0000
  O   O2        1.0  0.69200  0.08180  0.03330  1.0000
  O   O3        1.0  0.20700  0.53500  0.08010  1.0000
  O   O4        1.0  0.66400  0.67500  0.23200  1.0000
  O   O5        1.0  0.42500  0.39000  0.23800  1.0000
  O   O6        1.0  0.83800  0.41600  0.34100  1.0000
  O   O7        1.0  0.91300  0.16000  0.45800  1.0000
  O   O8        1.0  0.61100  0.21100  0.46800  1.0000
  O   O9        1.0  0.38900  0.78900  0.53200  1.0000
  O   O10       1.0  0.08730  0.84000  0.54200  1.0000
  O   O11       1.0  0.16200  0.58400  0.65900  1.0000
  O   O12       1.0  0.57500  0.61000  0.76200  1.0000
  O   O13       1.0  0.33600  0.32500  0.76800  1.0000
  O   O14       1.0  0.79300  0.46500  0.92000  1.0000
  O   O15       1.0  0.30800  0.91800  0.96700  1.0000
  O   O16       1.0  0.10300  0.19200  0.99600  1.0000
  P   P1        1.0  0.26400  0.34900  0.00610  1.0000
  P   P2        1.0  0.77100  0.20700  0.30500  1.0000
  P   P3        1.0  0.22900  0.79300  0.69500  1.0000
  P   P4        1.0  0.73600  0.65100  0.99400  1.0000
  Pb  Pb1       1.0  0.17600  0.05070  0.31500  1.0000
  Pb  Pb2       1.0  0.82400  0.94900  0.68500  1.0000
