data_image0
_chemical_formula_structural       Cs4Ge6O18Ti2
_chemical_formula_sum              "Cs4 Ge6 O18 Ti2"
_cell_length_a       7.17593
_cell_length_b       7.17589
_cell_length_c       10.4247
_cell_angle_alpha    90
_cell_angle_beta     90
_cell_angle_gamma    120

_space_group_name_H-M_alt    "P 1"
_space_group_IT_number       1

loop_
  _space_group_symop_operation_xyz
  'x, y, z'

loop_
  _atom_site_type_symbol
  _atom_site_label
  _atom_site_symmetry_multiplicity
  _atom_site_fract_x
  _atom_site_fract_y
  _atom_site_fract_z
  _atom_site_occupancy
  Cs  Cs1       1.0  0.33300  0.66700  0.05710  1.0000
  Cs  Cs2       1.0  0.33300  0.66700  0.44300  1.0000
  Cs  Cs3       1.0  0.66700  0.33300  0.55700  1.0000
  Cs  Cs4       1.0  0.66700  0.33300  0.94300  1.0000
  Ge  Ge1       1.0  0.76700  0.13500  0.25000  1.0000
  Ge  Ge2       1.0  0.36800  0.23300  0.25000  1.0000
  Ge  Ge3       1.0  0.86500  0.63200  0.25000  1.0000
  Ge  Ge4       1.0  0.13500  0.36800  0.75000  1.0000
  Ge  Ge5       1.0  0.63200  0.76700  0.75000  1.0000
  Ge  Ge6       1.0  0.23300  0.86500  0.75000  1.0000
  O   O1        1.0  0.78700  0.02280  0.10700  1.0000
  O   O2        1.0  0.23600  0.21300  0.10700  1.0000
  O   O3        1.0  0.97700  0.76400  0.10700  1.0000
  O   O4        1.0  0.48800  0.06730  0.25000  1.0000
  O   O5        1.0  0.93300  0.42000  0.25000  1.0000
  O   O6        1.0  0.58000  0.51200  0.25000  1.0000
  O   O7        1.0  0.78700  0.02280  0.39300  1.0000
  O   O8        1.0  0.23600  0.21300  0.39300  1.0000
  O   O9        1.0  0.97700  0.76400  0.39300  1.0000
  O   O10       1.0  0.02280  0.23600  0.60700  1.0000
  O   O11       1.0  0.21300  0.97700  0.60700  1.0000
  O   O12       1.0  0.76400  0.78700  0.60700  1.0000
  O   O13       1.0  0.42000  0.48800  0.75000  1.0000
  O   O14       1.0  0.06730  0.58000  0.75000  1.0000
  O   O15       1.0  0.51200  0.93300  0.75000  1.0000
  O   O16       1.0  0.02280  0.23600  0.89300  1.0000
  O   O17       1.0  0.76400  0.78700  0.89300  1.0000
  O   O18       1.0  0.21300  0.97700  0.89300  1.0000
  Ti  Ti1       1.0  0.00000  0.00000  0.00000  1.0000
  Ti  Ti2       1.0  0.00000  0.00000  0.50000  1.0000
