data_image0
_chemical_formula_structural       Cl12S16W2
_chemical_formula_sum              "Cl12 S16 W2"
_cell_length_a       8.00877
_cell_length_b       8.02635
_cell_length_c       12.8073
_cell_angle_alpha    97.101
_cell_angle_beta     100.647
_cell_angle_gamma    90.2365

_space_group_name_H-M_alt    "P 1"
_space_group_IT_number       1

loop_
  _space_group_symop_operation_xyz
  'x, y, z'

loop_
  _atom_site_type_symbol
  _atom_site_label
  _atom_site_symmetry_multiplicity
  _atom_site_fract_x
  _atom_site_fract_y
  _atom_site_fract_z
  _atom_site_occupancy
  Cl  Cl1       1.0  0.75800  0.25500  0.07790  1.0000
  Cl  Cl2       1.0  0.00899  0.69400  0.10200  1.0000
  Cl  Cl3       1.0  0.36500  0.50000  0.10600  1.0000
  Cl  Cl4       1.0  0.20500  0.05230  0.10800  1.0000
  Cl  Cl5       1.0  0.56500  0.85800  0.11100  1.0000
  Cl  Cl6       1.0  0.33800  0.81100  0.29100  1.0000
  Cl  Cl7       1.0  0.66200  0.18900  0.70900  1.0000
  Cl  Cl8       1.0  0.43500  0.14200  0.88900  1.0000
  Cl  Cl9       1.0  0.79500  0.94800  0.89200  1.0000
  Cl  Cl10      1.0  0.63500  0.50000  0.89400  1.0000
  Cl  Cl11      1.0  0.99100  0.30600  0.89800  1.0000
  Cl  Cl12      1.0  0.24200  0.74500  0.92200  1.0000
  S   S1        1.0  0.11500  0.37600  0.29600  1.0000
  S   S2        1.0  0.76000  0.59200  0.30400  1.0000
  S   S3        1.0  0.91200  0.02600  0.33100  1.0000
  S   S4        1.0  0.55500  0.24400  0.34000  1.0000
  S   S5        1.0  0.01440  0.58400  0.37000  1.0000
  S   S6        1.0  0.12100  0.18300  0.38900  1.0000
  S   S7        1.0  0.62000  0.49000  0.40100  1.0000
  S   S8        1.0  0.72500  0.08840  0.41900  1.0000
  S   S9        1.0  0.27500  0.91200  0.58100  1.0000
  S   S10       1.0  0.38000  0.51000  0.59900  1.0000
  S   S11       1.0  0.87900  0.81700  0.61100  1.0000
  S   S12       1.0  0.98600  0.41600  0.63000  1.0000
  S   S13       1.0  0.44500  0.75600  0.66000  1.0000
  S   S14       1.0  0.08810  0.97400  0.66900  1.0000
  S   S15       1.0  0.24000  0.40800  0.69600  1.0000
  S   S16       1.0  0.88500  0.62400  0.70400  1.0000
  W   W1        1.0  0.28700  0.77700  0.10600  1.0000
  W   W2        1.0  0.71300  0.22300  0.89400  1.0000
