data_image0
_chemical_formula_structural       Ba2C4Ca2O12
_chemical_formula_sum              "Ba2 C4 Ca2 O12"
_cell_length_a       7.97147
_cell_length_b       5.25564
_cell_length_c       6.52755
_cell_angle_alpha    90
_cell_angle_beta     107.777
_cell_angle_gamma    90

_space_group_name_H-M_alt    "P 1"
_space_group_IT_number       1

loop_
  _space_group_symop_operation_xyz
  'x, y, z'

loop_
  _atom_site_type_symbol
  _atom_site_label
  _atom_site_symmetry_multiplicity
  _atom_site_fract_x
  _atom_site_fract_y
  _atom_site_fract_z
  _atom_site_occupancy
  Ba  Ba1       1.0  0.65200  0.99700  0.29000  1.0000
  Ba  Ba2       1.0  0.34800  0.49700  0.71000  1.0000
  C   C1        1.0  0.39900  0.49500  0.25100  1.0000
  C   C2        1.0  0.88700  0.50500  0.25200  1.0000
  C   C3        1.0  0.11300  0.00535  0.74800  1.0000
  C   C4        1.0  0.60100  0.99500  0.74900  1.0000
  Ca  Ca1       1.0  0.12200  0.00073  0.19600  1.0000
  Ca  Ca2       1.0  0.87800  0.50100  0.80400  1.0000
  O   O1        1.0  0.51000  0.50200  0.14300  1.0000
  O   O2        1.0  0.89100  0.71400  0.14400  1.0000
  O   O3        1.0  0.89200  0.29100  0.15300  1.0000
  O   O4        1.0  0.33900  0.70400  0.30900  1.0000
  O   O5        1.0  0.35300  0.27900  0.31400  1.0000
  O   O6        1.0  0.87300  0.51300  0.44100  1.0000
  O   O7        1.0  0.12700  0.01300  0.55900  1.0000
  O   O8        1.0  0.64700  0.77900  0.68600  1.0000
  O   O9        1.0  0.66100  0.20400  0.69100  1.0000
  O   O10       1.0  0.10800  0.79100  0.84700  1.0000
  O   O11       1.0  0.10900  0.21400  0.85600  1.0000
  O   O12       1.0  0.49000  0.00189  0.85700  1.0000
