data_image0
_chemical_formula_structural       Ba2CaCu2O14Sm2Ti3
_chemical_formula_sum              "Ba2 Ca1 Cu2 O14 Sm2 Ti3"
_cell_length_a       3.86395
_cell_length_b       3.86395
_cell_length_c       20.0916
_cell_angle_alpha    90
_cell_angle_beta     90
_cell_angle_gamma    90

_space_group_name_H-M_alt    "P 1"
_space_group_IT_number       1

loop_
  _space_group_symop_operation_xyz
  'x, y, z'

loop_
  _atom_site_type_symbol
  _atom_site_label
  _atom_site_symmetry_multiplicity
  _atom_site_fract_x
  _atom_site_fract_y
  _atom_site_fract_z
  _atom_site_occupancy
  Ba  Ba1       1.0  0.00000  0.00000  0.17100  1.0000
  Ba  Ba2       1.0  0.00000  0.00000  0.82900  1.0000
  Ca  Ca1       1.0  0.00000  0.00000  0.00000  1.0000
  Cu  Cu1       1.0  0.50000  0.50000  0.07320  1.0000
  Cu  Cu2       1.0  0.50000  0.50000  0.92700  1.0000
  O   O1        1.0  0.50000  0.00000  0.07620  1.0000
  O   O2        1.0  0.00000  0.50000  0.07620  1.0000
  O   O3        1.0  0.50000  0.50000  0.21000  1.0000
  O   O4        1.0  0.50000  0.00000  0.31800  1.0000
  O   O5        1.0  0.00000  0.50000  0.31800  1.0000
  O   O6        1.0  0.50000  0.50000  0.40500  1.0000
  O   O7        1.0  0.50000  0.00000  0.50000  1.0000
  O   O8        1.0  0.00000  0.50000  0.50000  1.0000
  O   O9        1.0  0.50000  0.50000  0.59500  1.0000
  O   O10       1.0  0.50000  0.00000  0.68200  1.0000
  O   O11       1.0  0.00000  0.50000  0.68200  1.0000
  O   O12       1.0  0.50000  0.50000  0.79000  1.0000
  O   O13       1.0  0.50000  0.00000  0.92400  1.0000
  O   O14       1.0  0.00000  0.50000  0.92400  1.0000
  Sm  Sm1       1.0  0.00000  0.00000  0.39500  1.0000
  Sm  Sm2       1.0  0.00000  0.00000  0.60500  1.0000
  Ti  Ti1       1.0  0.50000  0.50000  0.29800  1.0000
  Ti  Ti2       1.0  0.50000  0.50000  0.50000  1.0000
  Ti  Ti3       1.0  0.50000  0.50000  0.70200  1.0000
