data_image0
_chemical_formula_structural       Br8Hg8S8Sn4
_chemical_formula_sum              "Br8 Hg8 S8 Sn4"
_cell_length_a       9.72454
_cell_length_b       8.1898
_cell_length_c       11.1391
_cell_angle_alpha    90
_cell_angle_beta     103.88
_cell_angle_gamma    90

_space_group_name_H-M_alt    "P 1"
_space_group_IT_number       1

loop_
  _space_group_symop_operation_xyz
  'x, y, z'

loop_
  _atom_site_type_symbol
  _atom_site_label
  _atom_site_symmetry_multiplicity
  _atom_site_fract_x
  _atom_site_fract_y
  _atom_site_fract_z
  _atom_site_occupancy
  Br  Br1       1.0  0.68600  0.09720  0.10900  1.0000
  Br  Br2       1.0  0.02320  0.82300  0.11700  1.0000
  Br  Br3       1.0  0.47700  0.32300  0.38300  1.0000
  Br  Br4       1.0  0.81400  0.59700  0.39100  1.0000
  Br  Br5       1.0  0.18600  0.40300  0.60900  1.0000
  Br  Br6       1.0  0.52300  0.67700  0.61700  1.0000
  Br  Br7       1.0  0.97700  0.17700  0.88300  1.0000
  Br  Br8       1.0  0.31400  0.90300  0.89100  1.0000
  Hg  Hg1       1.0  0.87200  0.45200  0.12200  1.0000
  Hg  Hg2       1.0  0.53800  0.68500  0.12500  1.0000
  Hg  Hg3       1.0  0.96200  0.18500  0.37500  1.0000
  Hg  Hg4       1.0  0.62800  0.95200  0.37800  1.0000
  Hg  Hg5       1.0  0.37200  0.04800  0.62200  1.0000
  Hg  Hg6       1.0  0.03770  0.81500  0.62500  1.0000
  Hg  Hg7       1.0  0.46200  0.31500  0.87500  1.0000
  Hg  Hg8       1.0  0.12800  0.54800  0.87800  1.0000
  S   S1        1.0  0.32400  0.41200  0.01300  1.0000
  S   S2        1.0  0.08140  0.32000  0.23800  1.0000
  S   S3        1.0  0.41900  0.82000  0.26200  1.0000
  S   S4        1.0  0.17600  0.91200  0.48700  1.0000
  S   S5        1.0  0.82400  0.08770  0.51300  1.0000
  S   S6        1.0  0.58100  0.18000  0.73800  1.0000
  S   S7        1.0  0.91900  0.68000  0.76200  1.0000
  S   S8        1.0  0.67600  0.58800  0.98700  1.0000
  Sn  Sn1       1.0  0.21600  0.08470  0.07420  1.0000
  Sn  Sn2       1.0  0.28400  0.58500  0.42600  1.0000
  Sn  Sn3       1.0  0.71600  0.41500  0.57400  1.0000
  Sn  Sn4       1.0  0.78400  0.91500  0.92600  1.0000
