data_image0
_chemical_formula_structural       Br12Mo12S6
_chemical_formula_sum              "Br12 Mo12 S6"
_cell_length_a       6.69911
_cell_length_b       9.5851
_cell_length_c       12.0611
_cell_angle_alpha    90
_cell_angle_beta     90
_cell_angle_gamma    110.454

_space_group_name_H-M_alt    "P 1"
_space_group_IT_number       1

loop_
  _space_group_symop_operation_xyz
  'x, y, z'

loop_
  _atom_site_type_symbol
  _atom_site_label
  _atom_site_symmetry_multiplicity
  _atom_site_fract_x
  _atom_site_fract_y
  _atom_site_fract_z
  _atom_site_occupancy
  Br  Br1       1.0  0.40000  0.29500  0.06340  1.0000
  Br  Br2       1.0  0.10500  0.70500  0.06340  1.0000
  Br  Br3       1.0  0.97800  0.35400  0.25000  1.0000
  Br  Br4       1.0  0.62500  0.64600  0.25000  1.0000
  Br  Br5       1.0  0.40000  0.29500  0.43700  1.0000
  Br  Br6       1.0  0.10500  0.70500  0.43700  1.0000
  Br  Br7       1.0  0.89500  0.29500  0.56300  1.0000
  Br  Br8       1.0  0.60000  0.70500  0.56300  1.0000
  Br  Br9       1.0  0.37500  0.35400  0.75000  1.0000
  Br  Br10      1.0  0.02170  0.64600  0.75000  1.0000
  Br  Br11      1.0  0.89500  0.29500  0.93700  1.0000
  Br  Br12      1.0  0.60000  0.70500  0.93700  1.0000
  Mo  Mo1       1.0  0.25600  0.00000  0.06180  1.0000
  Mo  Mo2       1.0  0.99000  0.14800  0.10200  1.0000
  Mo  Mo3       1.0  0.84200  0.85200  0.10200  1.0000
  Mo  Mo4       1.0  0.99000  0.14800  0.39800  1.0000
  Mo  Mo5       1.0  0.84200  0.85200  0.39800  1.0000
  Mo  Mo6       1.0  0.25600  0.00000  0.43800  1.0000
  Mo  Mo7       1.0  0.74400  0.00000  0.56200  1.0000
  Mo  Mo8       1.0  0.15800  0.14800  0.60200  1.0000
  Mo  Mo9       1.0  0.01010  0.85200  0.60200  1.0000
  Mo  Mo10      1.0  0.15800  0.14800  0.89800  1.0000
  Mo  Mo11      1.0  0.01010  0.85200  0.89800  1.0000
  Mo  Mo12      1.0  0.74400  0.00000  0.93800  1.0000
  S   S1        1.0  0.61800  0.00000  0.12800  1.0000
  S   S2        1.0  0.08870  0.00000  0.25000  1.0000
  S   S3        1.0  0.61800  0.00000  0.37200  1.0000
  S   S4        1.0  0.38200  0.00000  0.62800  1.0000
  S   S5        1.0  0.91100  0.00000  0.75000  1.0000
  S   S6        1.0  0.38200  0.00000  0.87200  1.0000
