data_image0
_chemical_formula_structural       I6O6Rb18
_chemical_formula_sum              "I6 O6 Rb18"
_cell_length_a       7.92638
_cell_length_b       7.92627
_cell_length_c       19.754
_cell_angle_alpha    90
_cell_angle_beta     90
_cell_angle_gamma    120

_space_group_name_H-M_alt    "P 1"
_space_group_IT_number       1

loop_
  _space_group_symop_operation_xyz
  'x, y, z'

loop_
  _atom_site_type_symbol
  _atom_site_label
  _atom_site_symmetry_multiplicity
  _atom_site_fract_x
  _atom_site_fract_y
  _atom_site_fract_z
  _atom_site_occupancy
  I   I1        1.0  0.33300  0.66700  0.08740  1.0000
  I   I2        1.0  0.00000  0.00000  0.25000  1.0000
  I   I3        1.0  0.33300  0.66700  0.41300  1.0000
  I   I4        1.0  0.66700  0.33300  0.58700  1.0000
  I   I5        1.0  0.00000  0.00000  0.75000  1.0000
  I   I6        1.0  0.66700  0.33300  0.91300  1.0000
  O   O1        1.0  0.00000  0.00000  0.00000  1.0000
  O   O2        1.0  0.66700  0.33300  0.15900  1.0000
  O   O3        1.0  0.66700  0.33300  0.34100  1.0000
  O   O4        1.0  0.00000  0.00000  0.50000  1.0000
  O   O5        1.0  0.33300  0.66700  0.65900  1.0000
  O   O6        1.0  0.33300  0.66700  0.84100  1.0000
  Rb  Rb1       1.0  0.83400  0.66800  0.08120  1.0000
  Rb  Rb2       1.0  0.33200  0.16600  0.08120  1.0000
  Rb  Rb3       1.0  0.83400  0.16600  0.08120  1.0000
  Rb  Rb4       1.0  0.51800  0.03590  0.25000  1.0000
  Rb  Rb5       1.0  0.51800  0.48200  0.25000  1.0000
  Rb  Rb6       1.0  0.96400  0.48200  0.25000  1.0000
  Rb  Rb7       1.0  0.33200  0.16600  0.41900  1.0000
  Rb  Rb8       1.0  0.83400  0.16600  0.41900  1.0000
  Rb  Rb9       1.0  0.83400  0.66800  0.41900  1.0000
  Rb  Rb10      1.0  0.16600  0.33200  0.58100  1.0000
  Rb  Rb11      1.0  0.16600  0.83400  0.58100  1.0000
  Rb  Rb12      1.0  0.66800  0.83400  0.58100  1.0000
  Rb  Rb13      1.0  0.03590  0.51800  0.75000  1.0000
  Rb  Rb14      1.0  0.48200  0.51800  0.75000  1.0000
  Rb  Rb15      1.0  0.48200  0.96400  0.75000  1.0000
  Rb  Rb16      1.0  0.16600  0.83400  0.91900  1.0000
  Rb  Rb17      1.0  0.66800  0.83400  0.91900  1.0000
  Rb  Rb18      1.0  0.16600  0.33200  0.91900  1.0000
