data_image0
_chemical_formula_structural       Ce2Fe18Si8
_chemical_formula_sum              "Ce2 Fe18 Si8"
_cell_length_a       7.76055
_cell_length_b       7.76055
_cell_length_c       7.9675
_cell_angle_alpha    119.144
_cell_angle_beta     119.144
_cell_angle_gamma    90

_space_group_name_H-M_alt    "P 1"
_space_group_IT_number       1

loop_
  _space_group_symop_operation_xyz
  'x, y, z'

loop_
  _atom_site_type_symbol
  _atom_site_label
  _atom_site_symmetry_multiplicity
  _atom_site_fract_x
  _atom_site_fract_y
  _atom_site_fract_z
  _atom_site_occupancy
  Ce  Ce1       1.0  0.25000  0.25000  0.50000  1.0000
  Ce  Ce2       1.0  0.75000  0.75000  0.50000  1.0000
  Fe  Fe1       1.0  0.50000  0.00000  0.00000  1.0000
  Fe  Fe2       1.0  0.19900  0.06710  0.00000  1.0000
  Fe  Fe3       1.0  0.93300  0.19900  0.00000  1.0000
  Fe  Fe4       1.0  0.43300  0.30100  0.00000  1.0000
  Fe  Fe5       1.0  0.69900  0.43300  0.00000  1.0000
  Fe  Fe6       1.0  0.00000  0.50000  0.00000  1.0000
  Fe  Fe7       1.0  0.30100  0.56700  0.00000  1.0000
  Fe  Fe8       1.0  0.56700  0.69900  0.00000  1.0000
  Fe  Fe9       1.0  0.06710  0.80100  0.00000  1.0000
  Fe  Fe10      1.0  0.80100  0.93300  0.00000  1.0000
  Fe  Fe11      1.0  0.79900  0.05450  0.35400  1.0000
  Fe  Fe12      1.0  0.55400  0.29900  0.35400  1.0000
  Fe  Fe13      1.0  0.05450  0.55400  0.35400  1.0000
  Fe  Fe14      1.0  0.29900  0.79900  0.35400  1.0000
  Fe  Fe15      1.0  0.70100  0.20100  0.64600  1.0000
  Fe  Fe16      1.0  0.94600  0.44600  0.64600  1.0000
  Fe  Fe17      1.0  0.44600  0.70100  0.64600  1.0000
  Fe  Fe18      1.0  0.20100  0.94600  0.64600  1.0000
  Si  Si1       1.0  0.79500  0.29500  0.24700  1.0000
  Si  Si2       1.0  0.29500  0.45200  0.24700  1.0000
  Si  Si3       1.0  0.95200  0.79500  0.24700  1.0000
  Si  Si4       1.0  0.45200  0.95200  0.24700  1.0000
  Si  Si5       1.0  0.54800  0.04790  0.75300  1.0000
  Si  Si6       1.0  0.04790  0.20500  0.75300  1.0000
  Si  Si7       1.0  0.70500  0.54800  0.75300  1.0000
  Si  Si8       1.0  0.20500  0.70500  0.75300  1.0000
