data_image0
_chemical_formula_structural       Br4Co2H16O8
_chemical_formula_sum              "Br4 Co2 H16 O8"
_cell_length_a       8.50721
_cell_length_b       6.97769
_cell_length_c       6.03826
_cell_angle_alpha    90
_cell_angle_beta     110.245
_cell_angle_gamma    90

_space_group_name_H-M_alt    "P 1"
_space_group_IT_number       1

loop_
  _space_group_symop_operation_xyz
  'x, y, z'

loop_
  _atom_site_type_symbol
  _atom_site_label
  _atom_site_symmetry_multiplicity
  _atom_site_fract_x
  _atom_site_fract_y
  _atom_site_fract_z
  _atom_site_occupancy
  Br  Br1       1.0  0.07920  0.72200  0.31600  1.0000
  Br  Br2       1.0  0.57900  0.77800  0.31600  1.0000
  Br  Br3       1.0  0.42100  0.22200  0.68400  1.0000
  Br  Br4       1.0  0.92100  0.27800  0.68400  1.0000
  Co  Co1       1.0  0.50000  0.50000  0.00000  1.0000
  Co  Co2       1.0  0.00000  0.00000  0.00000  1.0000
  H   H1        1.0  0.71400  0.93400  0.10600  1.0000
  H   H2        1.0  0.21400  0.56600  0.10600  1.0000
  H   H3        1.0  0.83800  0.56800  0.12000  1.0000
  H   H4        1.0  0.33800  0.93200  0.12000  1.0000
  H   H5        1.0  0.49500  0.28800  0.36700  1.0000
  H   H6        1.0  0.99500  0.21200  0.36700  1.0000
  H   H7        1.0  0.68000  0.30700  0.37900  1.0000
  H   H8        1.0  0.18000  0.19300  0.37900  1.0000
  H   H9        1.0  0.82000  0.80700  0.62100  1.0000
  H   H10       1.0  0.32000  0.69300  0.62100  1.0000
  H   H11       1.0  0.00548  0.78800  0.63300  1.0000
  H   H12       1.0  0.50500  0.71200  0.63300  1.0000
  H   H13       1.0  0.16200  0.43200  0.88000  1.0000
  H   H14       1.0  0.66200  0.06790  0.88000  1.0000
  H   H15       1.0  0.78600  0.43400  0.89400  1.0000
  H   H16       1.0  0.28600  0.06600  0.89400  1.0000
  O   O1        1.0  0.74300  0.49700  0.00838  1.0000
  O   O2        1.0  0.24300  0.00302  0.00838  1.0000
  O   O3        1.0  0.06400  0.20100  0.26600  1.0000
  O   O4        1.0  0.56400  0.29900  0.26600  1.0000
  O   O5        1.0  0.93600  0.79900  0.73400  1.0000
  O   O6        1.0  0.43600  0.70100  0.73400  1.0000
  O   O7        1.0  0.75700  0.99700  0.99200  1.0000
  O   O8        1.0  0.25700  0.50300  0.99200  1.0000
