data_image0
_chemical_formula_structural       Ba6Bi4O18Te2
_chemical_formula_sum              "Ba6 Bi4 O18 Te2"
_cell_length_a       6.20353
_cell_length_b       6.20356
_cell_length_c       14.8186
_cell_angle_alpha    90
_cell_angle_beta     89.9997
_cell_angle_gamma    120

_space_group_name_H-M_alt    "P 1"
_space_group_IT_number       1

loop_
  _space_group_symop_operation_xyz
  'x, y, z'

loop_
  _atom_site_type_symbol
  _atom_site_label
  _atom_site_symmetry_multiplicity
  _atom_site_fract_x
  _atom_site_fract_y
  _atom_site_fract_z
  _atom_site_occupancy
  Ba  Ba1       1.0  0.33300  0.66700  0.08350  1.0000
  Ba  Ba2       1.0  0.00000  0.00000  0.25000  1.0000
  Ba  Ba3       1.0  0.66700  0.33300  0.41700  1.0000
  Ba  Ba4       1.0  0.33300  0.66700  0.58300  1.0000
  Ba  Ba5       1.0  0.00000  0.00000  0.75000  1.0000
  Ba  Ba6       1.0  0.66700  0.33300  0.91700  1.0000
  Bi  Bi1       1.0  0.66700  0.33300  0.16600  1.0000
  Bi  Bi2       1.0  0.33300  0.66700  0.33400  1.0000
  Bi  Bi3       1.0  0.66700  0.33300  0.66600  1.0000
  Bi  Bi4       1.0  0.33300  0.66700  0.83400  1.0000
  O   O1        1.0  0.29000  0.08160  0.07570  1.0000
  O   O2        1.0  0.91800  0.20900  0.07580  1.0000
  O   O3        1.0  0.79100  0.71000  0.07580  1.0000
  O   O4        1.0  0.55700  0.00000  0.25000  1.0000
  O   O5        1.0  0.00000  0.55800  0.25000  1.0000
  O   O6        1.0  0.44300  0.44300  0.25000  1.0000
  O   O7        1.0  0.20900  0.91800  0.42400  1.0000
  O   O8        1.0  0.08160  0.29000  0.42400  1.0000
  O   O9        1.0  0.71000  0.79100  0.42400  1.0000
  O   O10       1.0  0.29000  0.20900  0.57600  1.0000
  O   O11       1.0  0.91800  0.71000  0.57600  1.0000
  O   O12       1.0  0.79100  0.08160  0.57600  1.0000
  O   O13       1.0  0.55700  0.55700  0.75000  1.0000
  O   O14       1.0  0.00000  0.44200  0.75000  1.0000
  O   O15       1.0  0.44300  0.00000  0.75000  1.0000
  O   O16       1.0  0.20900  0.29000  0.92400  1.0000
  O   O17       1.0  0.08160  0.79100  0.92400  1.0000
  O   O18       1.0  0.71000  0.91800  0.92400  1.0000
  Te  Te1       1.0  0.00000  0.00000  0.00000  1.0000
  Te  Te2       1.0  0.00000  0.00000  0.50000  1.0000
