data_image0
_chemical_formula_structural       Cl24Re2Se4
_chemical_formula_sum              "Cl24 Re2 Se4"
_cell_length_a       8.65515
_cell_length_b       8.65515
_cell_length_c       12.2767
_cell_angle_alpha    108.964
_cell_angle_beta     108.964
_cell_angle_gamma    94.479

_space_group_name_H-M_alt    "P 1"
_space_group_IT_number       1

loop_
  _space_group_symop_operation_xyz
  'x, y, z'

loop_
  _atom_site_type_symbol
  _atom_site_label
  _atom_site_symmetry_multiplicity
  _atom_site_fract_x
  _atom_site_fract_y
  _atom_site_fract_z
  _atom_site_occupancy
  Cl  Cl1       1.0  0.96400  0.31000  0.00249  1.0000
  Cl  Cl2       1.0  0.03870  0.69300  0.00249  1.0000
  Cl  Cl3       1.0  0.52500  0.22000  0.00448  1.0000
  Cl  Cl4       1.0  0.48000  0.78500  0.00448  1.0000
  Cl  Cl5       1.0  0.85800  0.02080  0.14900  1.0000
  Cl  Cl6       1.0  0.29100  0.12800  0.14900  1.0000
  Cl  Cl7       1.0  0.34600  0.54000  0.15900  1.0000
  Cl  Cl8       1.0  0.81200  0.61800  0.15900  1.0000
  Cl  Cl9       1.0  0.11500  0.45900  0.31100  1.0000
  Cl  Cl10      1.0  0.19600  0.85200  0.31100  1.0000
  Cl  Cl11      1.0  0.71600  0.39100  0.34400  1.0000
  Cl  Cl12      1.0  0.62800  0.95300  0.34400  1.0000
  Cl  Cl13      1.0  0.05990  0.21400  0.50200  1.0000
  Cl  Cl14      1.0  0.44300  0.28900  0.50200  1.0000
  Cl  Cl15      1.0  0.53500  0.73000  0.50400  1.0000
  Cl  Cl16      1.0  0.97000  0.77500  0.50400  1.0000
  Cl  Cl17      1.0  0.77100  0.10800  0.64900  1.0000
  Cl  Cl18      1.0  0.87800  0.54100  0.64900  1.0000
  Cl  Cl19      1.0  0.36800  0.06220  0.65900  1.0000
  Cl  Cl20      1.0  0.29000  0.59600  0.65900  1.0000
  Cl  Cl21      1.0  0.20900  0.36500  0.81100  1.0000
  Cl  Cl22      1.0  0.60200  0.44600  0.81100  1.0000
  Cl  Cl23      1.0  0.70300  0.87800  0.84400  1.0000
  Cl  Cl24      1.0  0.14100  0.96600  0.84400  1.0000
  Re  Re1       1.0  0.07990  0.58000  0.16000  1.0000
  Re  Re2       1.0  0.33000  0.33000  0.66000  1.0000
  Se  Se1       1.0  0.96200  0.51600  0.49400  1.0000
  Se  Se2       1.0  0.53100  0.97800  0.49400  1.0000
  Se  Se3       1.0  0.26600  0.21200  0.99400  1.0000
  Se  Se4       1.0  0.72800  0.78200  0.99400  1.0000
