data_image0
_chemical_formula_structural       F24Th2Zr4
_chemical_formula_sum              "F24 Th2 Zr4"
_cell_length_a       7.76596
_cell_length_b       8.07201
_cell_length_c       8.07201
_cell_angle_alpha    100.784
_cell_angle_beta     61.5014
_cell_angle_gamma    118.499

_space_group_name_H-M_alt    "P 1"
_space_group_IT_number       1

loop_
  _space_group_symop_operation_xyz
  'x, y, z'

loop_
  _atom_site_type_symbol
  _atom_site_label
  _atom_site_symmetry_multiplicity
  _atom_site_fract_x
  _atom_site_fract_y
  _atom_site_fract_z
  _atom_site_occupancy
  F   F1        1.0  0.00000  0.00000  0.00000  1.0000
  F   F2        1.0  0.50000  0.00000  0.00000  1.0000
  F   F3        1.0  0.88800  0.63100  0.06110  1.0000
  F   F4        1.0  0.33700  0.21800  0.07160  1.0000
  F   F5        1.0  0.28600  0.53200  0.16200  1.0000
  F   F6        1.0  0.66300  0.07160  0.21800  1.0000
  F   F7        1.0  0.13700  0.78200  0.21800  1.0000
  F   F8        1.0  0.57700  0.71600  0.28400  1.0000
  F   F9        1.0  0.86600  0.44000  0.31300  1.0000
  F   F10       1.0  0.88800  0.93900  0.36900  1.0000
  F   F11       1.0  0.50000  0.38200  0.38200  1.0000
  F   F12       1.0  0.13400  0.31300  0.44000  1.0000
  F   F13       1.0  0.28600  0.83800  0.46800  1.0000
  F   F14       1.0  0.71400  0.16200  0.53200  1.0000
  F   F15       1.0  0.86600  0.68700  0.56000  1.0000
  F   F16       1.0  0.50000  0.61800  0.61800  1.0000
  F   F17       1.0  0.11200  0.06110  0.63100  1.0000
  F   F18       1.0  0.13400  0.56000  0.68700  1.0000
  F   F19       1.0  0.42300  0.28400  0.71600  1.0000
  F   F20       1.0  0.86300  0.21800  0.78200  1.0000
  F   F21       1.0  0.33700  0.92800  0.78200  1.0000
  F   F22       1.0  0.71400  0.46800  0.83800  1.0000
  F   F23       1.0  0.66300  0.78200  0.92800  1.0000
  F   F24       1.0  0.11200  0.36900  0.93900  1.0000
  Th  Th1       1.0  0.00000  0.22300  0.22300  1.0000
  Th  Th2       1.0  0.00000  0.77700  0.77700  1.0000
  Zr  Zr1       1.0  0.43000  0.81300  0.18700  1.0000
  Zr  Zr2       1.0  0.77500  0.65100  0.34900  1.0000
  Zr  Zr3       1.0  0.22500  0.34900  0.65100  1.0000
  Zr  Zr4       1.0  0.57000  0.18700  0.81300  1.0000
