data_image0
_chemical_formula_structural       K12O2S12Si4
_chemical_formula_sum              "K12 O2 S12 Si4"
_cell_length_a       8.82653
_cell_length_b       11.7904
_cell_length_c       8.38797
_cell_angle_alpha    90
_cell_angle_beta     111.926
_cell_angle_gamma    90

_space_group_name_H-M_alt    "P 1"
_space_group_IT_number       1

loop_
  _space_group_symop_operation_xyz
  'x, y, z'

loop_
  _atom_site_type_symbol
  _atom_site_label
  _atom_site_symmetry_multiplicity
  _atom_site_fract_x
  _atom_site_fract_y
  _atom_site_fract_z
  _atom_site_occupancy
  K   K1        1.0  0.00773  0.67200  0.01140  1.0000
  K   K2        1.0  0.54300  0.27900  0.19200  1.0000
  K   K3        1.0  0.22500  0.06200  0.21700  1.0000
  K   K4        1.0  0.77500  0.56200  0.28300  1.0000
  K   K5        1.0  0.45700  0.77900  0.30800  1.0000
  K   K6        1.0  0.99200  0.17200  0.48900  1.0000
  K   K7        1.0  0.00773  0.82800  0.51100  1.0000
  K   K8        1.0  0.54300  0.22100  0.69200  1.0000
  K   K9        1.0  0.22500  0.43800  0.71700  1.0000
  K   K10       1.0  0.77500  0.93800  0.78300  1.0000
  K   K11       1.0  0.45700  0.72100  0.80800  1.0000
  K   K12       1.0  0.99200  0.32800  0.98900  1.0000
  O   O1        1.0  0.50000  0.00000  0.00000  1.0000
  O   O2        1.0  0.50000  0.50000  0.50000  1.0000
  S   S1        1.0  0.82800  0.11600  0.08800  1.0000
  S   S2        1.0  0.33500  0.52300  0.10900  1.0000
  S   S3        1.0  0.76100  0.82100  0.13100  1.0000
  S   S4        1.0  0.23900  0.32100  0.36900  1.0000
  S   S5        1.0  0.66500  0.02330  0.39100  1.0000
  S   S6        1.0  0.17200  0.61600  0.41200  1.0000
  S   S7        1.0  0.82800  0.38400  0.58800  1.0000
  S   S8        1.0  0.33500  0.97700  0.60900  1.0000
  S   S9        1.0  0.76100  0.67900  0.63100  1.0000
  S   S10       1.0  0.23900  0.17900  0.86900  1.0000
  S   S11       1.0  0.66500  0.47700  0.89100  1.0000
  S   S12       1.0  0.17200  0.88400  0.91200  1.0000
  Si  Si1       1.0  0.68500  0.99000  0.15000  1.0000
  Si  Si2       1.0  0.31500  0.49000  0.35000  1.0000
  Si  Si3       1.0  0.68500  0.51000  0.65000  1.0000
  Si  Si4       1.0  0.31500  0.01010  0.85000  1.0000
