data_image0
_chemical_formula_structural       Al6F21NaRb2
_chemical_formula_sum              "Al6 F21 Na1 Rb2"
_cell_length_a       6.82641
_cell_length_b       6.82641
_cell_length_c       9.70624
_cell_angle_alpha    110.336
_cell_angle_beta     110.336
_cell_angle_gamma    60.2717

_space_group_name_H-M_alt    "P 1"
_space_group_IT_number       1

loop_
  _space_group_symop_operation_xyz
  'x, y, z'

loop_
  _atom_site_type_symbol
  _atom_site_label
  _atom_site_symmetry_multiplicity
  _atom_site_fract_x
  _atom_site_fract_y
  _atom_site_fract_z
  _atom_site_occupancy
  Al  Al1       1.0  0.58700  0.04070  0.19300  1.0000
  Al  Al2       1.0  0.58800  0.54300  0.19600  1.0000
  Al  Al3       1.0  0.08590  0.54400  0.20000  1.0000
  Al  Al4       1.0  0.45600  0.91400  0.80000  1.0000
  Al  Al5       1.0  0.45700  0.41200  0.80400  1.0000
  Al  Al6       1.0  0.95900  0.41300  0.80700  1.0000
  F   F1        1.0  0.44500  0.55500  0.00000  1.0000
  F   F2        1.0  0.07730  0.49100  0.00243  1.0000
  F   F3        1.0  0.64500  0.24100  0.14900  1.0000
  F   F4        1.0  0.86000  0.45300  0.15100  1.0000
  F   F5        1.0  0.88500  0.83800  0.18800  1.0000
  F   F6        1.0  0.28700  0.24300  0.19100  1.0000
  F   F7        1.0  0.51800  0.84500  0.23300  1.0000
  F   F8        1.0  0.31400  0.63300  0.23900  1.0000
  F   F9        1.0  0.66900  0.13600  0.38400  1.0000
  F   F10       1.0  0.71700  0.54200  0.38600  1.0000
  F   F11       1.0  0.11800  0.59200  0.39400  1.0000
  F   F12       1.0  0.40800  0.88200  0.60600  1.0000
  F   F13       1.0  0.45800  0.28300  0.61400  1.0000
  F   F14       1.0  0.86400  0.33100  0.61600  1.0000
  F   F15       1.0  0.36700  0.68600  0.76100  1.0000
  F   F16       1.0  0.15500  0.48200  0.76700  1.0000
  F   F17       1.0  0.75700  0.71300  0.80900  1.0000
  F   F18       1.0  0.16200  0.11500  0.81200  1.0000
  F   F19       1.0  0.54700  0.14000  0.84900  1.0000
  F   F20       1.0  0.75900  0.35500  0.85100  1.0000
  F   F21       1.0  0.50900  0.92300  0.99800  1.0000
  Na  Na1       1.0  0.49700  0.50300  0.50000  1.0000
  Rb  Rb1       1.0  0.12800  0.14100  0.39800  1.0000
  Rb  Rb2       1.0  0.85900  0.87200  0.60200  1.0000
