data_image0
_chemical_formula_structural       Ga4O11Pr4
_chemical_formula_sum              "Ga4 O11 Pr4"
_cell_length_a       5.44442
_cell_length_b       5.49776
_cell_length_c       7.82428
_cell_angle_alpha    90.0205
_cell_angle_beta     89.6651
_cell_angle_gamma    91.8628

_space_group_name_H-M_alt    "P 1"
_space_group_IT_number       1

loop_
  _space_group_symop_operation_xyz
  'x, y, z'

loop_
  _atom_site_type_symbol
  _atom_site_label
  _atom_site_symmetry_multiplicity
  _atom_site_fract_x
  _atom_site_fract_y
  _atom_site_fract_z
  _atom_site_occupancy
  Ga  Ga1       1.0  0.96700  0.47100  0.00267  1.0000
  Ga  Ga2       1.0  0.99700  0.49800  0.50000  1.0000
  Ga  Ga3       1.0  0.50400  0.00393  0.50100  1.0000
  Ga  Ga4       1.0  0.50600  0.00289  0.99800  1.0000
  O   O1        1.0  0.78400  0.79400  0.04090  1.0000
  O   O2        1.0  0.43000  0.99100  0.24900  1.0000
  O   O3        1.0  0.08130  0.48900  0.25400  1.0000
  O   O4        1.0  0.71200  0.28900  0.44800  1.0000
  O   O5        1.0  0.78500  0.78800  0.45800  1.0000
  O   O6        1.0  0.28800  0.71500  0.54200  1.0000
  O   O7        1.0  0.21400  0.21100  0.54400  1.0000
  O   O8        1.0  0.91900  0.51200  0.74600  1.0000
  O   O9        1.0  0.58500  0.02190  0.75000  1.0000
  O   O10       1.0  0.28100  0.71200  0.96000  1.0000
  O   O11       1.0  0.22900  0.21700  0.96100  1.0000
  Pr  Pr1       1.0  0.50700  0.54400  0.24600  1.0000
  Pr  Pr2       1.0  0.00000  0.03550  0.25300  1.0000
  Pr  Pr3       1.0  0.48100  0.46700  0.74800  1.0000
  Pr  Pr4       1.0  0.01540  0.95100  0.75500  1.0000
