data_image0
_chemical_formula_structural       Ba6O18Pr2Ru4
_chemical_formula_sum              "Ba6 O18 Pr2 Ru4"
_cell_length_a       5.94018
_cell_length_b       5.94019
_cell_length_c       14.7959
_cell_angle_alpha    90
_cell_angle_beta     90
_cell_angle_gamma    120

_space_group_name_H-M_alt    "P 1"
_space_group_IT_number       1

loop_
  _space_group_symop_operation_xyz
  'x, y, z'

loop_
  _atom_site_type_symbol
  _atom_site_label
  _atom_site_symmetry_multiplicity
  _atom_site_fract_x
  _atom_site_fract_y
  _atom_site_fract_z
  _atom_site_occupancy
  Ba  Ba1       1.0  0.66700  0.33300  0.10300  1.0000
  Ba  Ba2       1.0  0.00000  0.00000  0.25000  1.0000
  Ba  Ba3       1.0  0.66700  0.33300  0.39700  1.0000
  Ba  Ba4       1.0  0.33300  0.66700  0.60300  1.0000
  Ba  Ba5       1.0  0.00000  0.00000  0.75000  1.0000
  Ba  Ba6       1.0  0.33300  0.66700  0.89700  1.0000
  O   O1        1.0  0.17800  0.35700  0.09340  1.0000
  O   O2        1.0  0.17800  0.82200  0.09340  1.0000
  O   O3        1.0  0.64300  0.82200  0.09340  1.0000
  O   O4        1.0  0.01220  0.50600  0.25000  1.0000
  O   O5        1.0  0.49400  0.50600  0.25000  1.0000
  O   O6        1.0  0.49400  0.98800  0.25000  1.0000
  O   O7        1.0  0.17800  0.35700  0.40700  1.0000
  O   O8        1.0  0.17800  0.82200  0.40700  1.0000
  O   O9        1.0  0.64300  0.82200  0.40700  1.0000
  O   O10       1.0  0.35700  0.17800  0.59300  1.0000
  O   O11       1.0  0.82200  0.17800  0.59300  1.0000
  O   O12       1.0  0.82200  0.64300  0.59300  1.0000
  O   O13       1.0  0.50600  0.01220  0.75000  1.0000
  O   O14       1.0  0.50600  0.49400  0.75000  1.0000
  O   O15       1.0  0.98800  0.49400  0.75000  1.0000
  O   O16       1.0  0.35700  0.17800  0.90700  1.0000
  O   O17       1.0  0.82200  0.17800  0.90700  1.0000
  O   O18       1.0  0.82200  0.64300  0.90700  1.0000
  Pr  Pr1       1.0  0.00000  0.00000  0.00000  1.0000
  Pr  Pr2       1.0  0.00000  0.00000  0.50000  1.0000
  Ru  Ru1       1.0  0.33300  0.66700  0.16700  1.0000
  Ru  Ru2       1.0  0.33300  0.66700  0.33300  1.0000
  Ru  Ru3       1.0  0.66700  0.33300  0.66700  1.0000
  Ru  Ru4       1.0  0.66700  0.33300  0.83300  1.0000
