data_image0
_chemical_formula_structural       Ba6Ni3O18Os3
_chemical_formula_sum              "Ba6 Ni3 O18 Os3"
_cell_length_a       5.73455
_cell_length_b       5.73452
_cell_length_c       14.0844
_cell_angle_alpha    90
_cell_angle_beta     89.9996
_cell_angle_gamma    120

_space_group_name_H-M_alt    "P 1"
_space_group_IT_number       1

loop_
  _space_group_symop_operation_xyz
  'x, y, z'

loop_
  _atom_site_type_symbol
  _atom_site_label
  _atom_site_symmetry_multiplicity
  _atom_site_fract_x
  _atom_site_fract_y
  _atom_site_fract_z
  _atom_site_occupancy
  Ba  Ba1       1.0  0.33300  0.66700  0.08960  1.0000
  Ba  Ba2       1.0  0.00000  0.00000  0.24900  1.0000
  Ba  Ba3       1.0  0.33300  0.66700  0.40300  1.0000
  Ba  Ba4       1.0  0.66700  0.33300  0.59700  1.0000
  Ba  Ba5       1.0  0.00000  0.00000  0.75100  1.0000
  Ba  Ba6       1.0  0.66700  0.33300  0.91000  1.0000
  Ni  Ni1       1.0  0.00000  0.00000  0.00000  1.0000
  Ni  Ni2       1.0  0.66700  0.33300  0.34800  1.0000
  Ni  Ni3       1.0  0.33300  0.66700  0.65200  1.0000
  O   O1        1.0  0.34200  0.17100  0.08310  1.0000
  O   O2        1.0  0.82900  0.17100  0.08310  1.0000
  O   O3        1.0  0.82900  0.65800  0.08310  1.0000
  O   O4        1.0  0.97600  0.48800  0.24600  1.0000
  O   O5        1.0  0.51200  0.48800  0.24600  1.0000
  O   O6        1.0  0.51200  0.02400  0.24600  1.0000
  O   O7        1.0  0.32000  0.16000  0.42100  1.0000
  O   O8        1.0  0.84000  0.16000  0.42100  1.0000
  O   O9        1.0  0.84000  0.68000  0.42100  1.0000
  O   O10       1.0  0.16000  0.84000  0.57900  1.0000
  O   O11       1.0  0.16000  0.32000  0.57900  1.0000
  O   O12       1.0  0.68000  0.84000  0.57900  1.0000
  O   O13       1.0  0.48800  0.97600  0.75400  1.0000
  O   O14       1.0  0.48800  0.51200  0.75400  1.0000
  O   O15       1.0  0.02400  0.51200  0.75400  1.0000
  O   O16       1.0  0.17100  0.82900  0.91700  1.0000
  O   O17       1.0  0.17100  0.34200  0.91700  1.0000
  O   O18       1.0  0.65800  0.82900  0.91700  1.0000
  Os  Os1       1.0  0.66700  0.33300  0.15900  1.0000
  Os  Os2       1.0  0.00000  0.00000  0.50000  1.0000
  Os  Os3       1.0  0.33300  0.66700  0.84100  1.0000
