data_image0
_chemical_formula_structural       Cl2Cu6O16Se4Y2
_chemical_formula_sum              "Cl2 Cu6 O16 Se4 Y2"
_cell_length_a       6.29979
_cell_length_b       9.448
_cell_length_c       6.94721
_cell_angle_alpha    90
_cell_angle_beta     90
_cell_angle_gamma    90

_space_group_name_H-M_alt    "P 1"
_space_group_IT_number       1

loop_
  _space_group_symop_operation_xyz
  'x, y, z'

loop_
  _atom_site_type_symbol
  _atom_site_label
  _atom_site_symmetry_multiplicity
  _atom_site_fract_x
  _atom_site_fract_y
  _atom_site_fract_z
  _atom_site_occupancy
  Cl  Cl1       1.0  0.25000  0.75000  0.14900  1.0000
  Cl  Cl2       1.0  0.75000  0.25000  0.85100  1.0000
  Cu  Cu1       1.0  0.00000  0.00000  0.00000  1.0000
  Cu  Cu2       1.0  0.50000  0.00000  0.00000  1.0000
  Cu  Cu3       1.0  0.00000  0.50000  0.00000  1.0000
  Cu  Cu4       1.0  0.50000  0.50000  0.00000  1.0000
  Cu  Cu5       1.0  0.75000  0.75000  0.20700  1.0000
  Cu  Cu6       1.0  0.25000  0.25000  0.79300  1.0000
  O   O1        1.0  0.75000  0.61200  0.00676  1.0000
  O   O2        1.0  0.75000  0.88800  0.00676  1.0000
  O   O3        1.0  0.53600  0.08820  0.26100  1.0000
  O   O4        1.0  0.96400  0.08820  0.26100  1.0000
  O   O5        1.0  0.53600  0.41200  0.26100  1.0000
  O   O6        1.0  0.96400  0.41200  0.26100  1.0000
  O   O7        1.0  0.75000  0.62100  0.42800  1.0000
  O   O8        1.0  0.75000  0.87900  0.42800  1.0000
  O   O9        1.0  0.25000  0.12100  0.57200  1.0000
  O   O10       1.0  0.25000  0.37900  0.57200  1.0000
  O   O11       1.0  0.03600  0.58800  0.73900  1.0000
  O   O12       1.0  0.46400  0.58800  0.73900  1.0000
  O   O13       1.0  0.03600  0.91200  0.73900  1.0000
  O   O14       1.0  0.46400  0.91200  0.73900  1.0000
  O   O15       1.0  0.25000  0.11200  0.99300  1.0000
  O   O16       1.0  0.25000  0.38800  0.99300  1.0000
  Se  Se1       1.0  0.75000  0.06160  0.41300  1.0000
  Se  Se2       1.0  0.75000  0.43800  0.41300  1.0000
  Se  Se3       1.0  0.25000  0.56200  0.58700  1.0000
  Se  Se4       1.0  0.25000  0.93800  0.58700  1.0000
  Y   Y1        1.0  0.25000  0.25000  0.26500  1.0000
  Y   Y2        1.0  0.75000  0.75000  0.73500  1.0000
