data_image0
_chemical_formula_structural       Nb4O18Zn8
_chemical_formula_sum              "Nb4 O18 Zn8"
_cell_length_a       5.21
_cell_length_b       5.20999
_cell_length_c       14.1739
_cell_angle_alpha    89.9998
_cell_angle_beta     90.0004
_cell_angle_gamma    120

_space_group_name_H-M_alt    "P 1"
_space_group_IT_number       1

loop_
  _space_group_symop_operation_xyz
  'x, y, z'

loop_
  _atom_site_type_symbol
  _atom_site_label
  _atom_site_symmetry_multiplicity
  _atom_site_fract_x
  _atom_site_fract_y
  _atom_site_fract_z
  _atom_site_occupancy
  Nb  Nb1       1.0  0.00000  0.00000  0.13900  1.0000
  Nb  Nb2       1.0  0.00000  0.00000  0.36100  1.0000
  Nb  Nb3       1.0  0.00000  0.00000  0.63900  1.0000
  Nb  Nb4       1.0  0.00000  0.00000  0.86100  1.0000
  O   O1        1.0  0.97700  0.65600  0.08370  1.0000
  O   O2        1.0  0.67800  0.02270  0.08370  1.0000
  O   O3        1.0  0.34400  0.32200  0.08370  1.0000
  O   O4        1.0  0.71300  0.71300  0.25000  1.0000
  O   O5        1.0  0.00000  0.28700  0.25000  1.0000
  O   O6        1.0  0.28700  0.00000  0.25000  1.0000
  O   O7        1.0  0.65600  0.97700  0.41600  1.0000
  O   O8        1.0  0.32200  0.34400  0.41600  1.0000
  O   O9        1.0  0.02270  0.67800  0.41600  1.0000
  O   O10       1.0  0.97700  0.32200  0.58400  1.0000
  O   O11       1.0  0.67800  0.65600  0.58400  1.0000
  O   O12       1.0  0.34400  0.02270  0.58400  1.0000
  O   O13       1.0  0.71300  0.00000  0.75000  1.0000
  O   O14       1.0  0.00000  0.71300  0.75000  1.0000
  O   O15       1.0  0.28700  0.28700  0.75000  1.0000
  O   O16       1.0  0.65600  0.67800  0.91600  1.0000
  O   O17       1.0  0.32200  0.97700  0.91600  1.0000
  O   O18       1.0  0.02270  0.34400  0.91600  1.0000
  Zn  Zn1       1.0  0.33300  0.66700  0.01640  1.0000
  Zn  Zn2       1.0  0.66700  0.33300  0.20100  1.0000
  Zn  Zn3       1.0  0.33300  0.66700  0.29900  1.0000
  Zn  Zn4       1.0  0.66700  0.33300  0.48400  1.0000
  Zn  Zn5       1.0  0.33300  0.66700  0.51600  1.0000
  Zn  Zn6       1.0  0.66700  0.33300  0.70100  1.0000
  Zn  Zn7       1.0  0.33300  0.66700  0.79900  1.0000
  Zn  Zn8       1.0  0.66700  0.33300  0.98400  1.0000
