data_image0
_chemical_formula_structural       Ba6Co2O18Sb4
_chemical_formula_sum              "Ba6 Co2 O18 Sb4"
_cell_length_a       5.86495
_cell_length_b       5.85753
_cell_length_c       14.4983
_cell_angle_alpha    90
_cell_angle_beta     90
_cell_angle_gamma    120.042

_space_group_name_H-M_alt    "P 1"
_space_group_IT_number       1

loop_
  _space_group_symop_operation_xyz
  'x, y, z'

loop_
  _atom_site_type_symbol
  _atom_site_label
  _atom_site_symmetry_multiplicity
  _atom_site_fract_x
  _atom_site_fract_y
  _atom_site_fract_z
  _atom_site_occupancy
  Ba  Ba1       1.0  0.66700  0.33400  0.08820  1.0000
  Ba  Ba2       1.0  0.00000  0.00000  0.25000  1.0000
  Ba  Ba3       1.0  0.66700  0.33400  0.41200  1.0000
  Ba  Ba4       1.0  0.33300  0.66600  0.58800  1.0000
  Ba  Ba5       1.0  0.00000  0.00017  0.75000  1.0000
  Ba  Ba6       1.0  0.33300  0.66600  0.91200  1.0000
  Co  Co1       1.0  0.00000  0.00000  0.00000  1.0000
  Co  Co2       1.0  0.00000  0.00000  0.50000  1.0000
  O   O1        1.0  0.16800  0.33500  0.08370  1.0000
  O   O2        1.0  0.16800  0.83200  0.08380  1.0000
  O   O3        1.0  0.66400  0.83200  0.08380  1.0000
  O   O4        1.0  0.03270  0.51600  0.25000  1.0000
  O   O5        1.0  0.48300  0.51600  0.25000  1.0000
  O   O6        1.0  0.48400  0.96700  0.25000  1.0000
  O   O7        1.0  0.16800  0.83200  0.41600  1.0000
  O   O8        1.0  0.66400  0.83200  0.41600  1.0000
  O   O9        1.0  0.16800  0.33500  0.41600  1.0000
  O   O10       1.0  0.83200  0.66500  0.58400  1.0000
  O   O11       1.0  0.33600  0.16800  0.58400  1.0000
  O   O12       1.0  0.83200  0.16800  0.58400  1.0000
  O   O13       1.0  0.51600  0.03250  0.75000  1.0000
  O   O14       1.0  0.51700  0.48400  0.75000  1.0000
  O   O15       1.0  0.96700  0.48400  0.75000  1.0000
  O   O16       1.0  0.33600  0.16800  0.91600  1.0000
  O   O17       1.0  0.83200  0.16800  0.91600  1.0000
  O   O18       1.0  0.83200  0.66500  0.91600  1.0000
  Sb  Sb1       1.0  0.33300  0.66700  0.15200  1.0000
  Sb  Sb2       1.0  0.33300  0.66700  0.34800  1.0000
  Sb  Sb3       1.0  0.66700  0.33300  0.65200  1.0000
  Sb  Sb4       1.0  0.66700  0.33300  0.84800  1.0000
