data_image0
_chemical_formula_structural       K12N8O6W4
_chemical_formula_sum              "K12 N8 O6 W4"
_cell_length_a       6.69883
_cell_length_b       9.48965
_cell_length_c       9.63886
_cell_angle_alpha    90
_cell_angle_beta     92.2649
_cell_angle_gamma    90

_space_group_name_H-M_alt    "P 1"
_space_group_IT_number       1

loop_
  _space_group_symop_operation_xyz
  'x, y, z'

loop_
  _atom_site_type_symbol
  _atom_site_label
  _atom_site_symmetry_multiplicity
  _atom_site_fract_x
  _atom_site_fract_y
  _atom_site_fract_z
  _atom_site_occupancy
  K   K1        1.0  0.25200  0.02510  0.05090  1.0000
  K   K2        1.0  0.11600  0.65600  0.06780  1.0000
  K   K3        1.0  0.62500  0.71400  0.21700  1.0000
  K   K4        1.0  0.87500  0.21400  0.28300  1.0000
  K   K5        1.0  0.38400  0.15600  0.43200  1.0000
  K   K6        1.0  0.24800  0.52500  0.44900  1.0000
  K   K7        1.0  0.75200  0.47500  0.55100  1.0000
  K   K8        1.0  0.61600  0.84400  0.56800  1.0000
  K   K9        1.0  0.12500  0.78600  0.71700  1.0000
  K   K10       1.0  0.37500  0.28600  0.78300  1.0000
  K   K11       1.0  0.88400  0.34400  0.93200  1.0000
  K   K12       1.0  0.74800  0.97500  0.94900  1.0000
  N   N1        1.0  0.56900  0.19900  0.07870  1.0000
  N   N2        1.0  0.17800  0.32500  0.14000  1.0000
  N   N3        1.0  0.32200  0.82500  0.36000  1.0000
  N   N4        1.0  0.93100  0.69900  0.42100  1.0000
  N   N5        1.0  0.06920  0.30100  0.57900  1.0000
  N   N6        1.0  0.67800  0.17500  0.64000  1.0000
  N   N7        1.0  0.82200  0.67500  0.86000  1.0000
  N   N8        1.0  0.43100  0.80100  0.92100  1.0000
  O   O1        1.0  0.50000  0.50000  0.00000  1.0000
  O   O2        1.0  0.94900  0.90100  0.18600  1.0000
  O   O3        1.0  0.55100  0.40100  0.31400  1.0000
  O   O4        1.0  0.00000  0.00000  0.50000  1.0000
  O   O5        1.0  0.44900  0.59900  0.68600  1.0000
  O   O6        1.0  0.05060  0.09930  0.81400  1.0000
  W   W1        1.0  0.44600  0.35600  0.13700  1.0000
  W   W2        1.0  0.05430  0.85600  0.36300  1.0000
  W   W3        1.0  0.94600  0.14400  0.63700  1.0000
  W   W4        1.0  0.55400  0.64400  0.86300  1.0000
