data_image0
_chemical_formula_structural       As4F24Mn2
_chemical_formula_sum              "As4 F24 Mn2"
_cell_length_a       7.05025
_cell_length_b       7.05025
_cell_length_c       8.82957
_cell_angle_alpha    113.531
_cell_angle_beta     113.531
_cell_angle_gamma    90

_space_group_name_H-M_alt    "P 1"
_space_group_IT_number       1

loop_
  _space_group_symop_operation_xyz
  'x, y, z'

loop_
  _atom_site_type_symbol
  _atom_site_label
  _atom_site_symmetry_multiplicity
  _atom_site_fract_x
  _atom_site_fract_y
  _atom_site_fract_z
  _atom_site_occupancy
  As  As1       1.0  0.02630  0.52600  0.05250  1.0000
  As  As2       1.0  0.22400  0.22400  0.44700  1.0000
  As  As3       1.0  0.77600  0.77600  0.55300  1.0000
  As  As4       1.0  0.47400  0.97400  0.94700  1.0000
  F   F1        1.0  0.12900  0.29900  0.06650  1.0000
  F   F2        1.0  0.93800  0.76700  0.06650  1.0000
  F   F3        1.0  0.49500  0.22300  0.10700  1.0000
  F   F4        1.0  0.61200  0.88500  0.10700  1.0000
  F   F5        1.0  0.95400  0.55600  0.23200  1.0000
  F   F6        1.0  0.27700  0.67600  0.23200  1.0000
  F   F7        1.0  0.29600  0.07410  0.26800  1.0000
  F   F8        1.0  0.97300  0.19400  0.26800  1.0000
  F   F9        1.0  0.63800  0.52700  0.39300  1.0000
  F   F10       1.0  0.75500  0.86500  0.39300  1.0000
  F   F11       1.0  0.31200  0.45100  0.43400  1.0000
  F   F12       1.0  0.12100  0.98300  0.43400  1.0000
  F   F13       1.0  0.01730  0.68800  0.56600  1.0000
  F   F14       1.0  0.54900  0.87900  0.56600  1.0000
  F   F15       1.0  0.47300  0.24500  0.60700  1.0000
  F   F16       1.0  0.13500  0.36200  0.60700  1.0000
  F   F17       1.0  0.92600  0.02750  0.73200  1.0000
  F   F18       1.0  0.80600  0.70400  0.73200  1.0000
  F   F19       1.0  0.32400  0.04570  0.76800  1.0000
  F   F20       1.0  0.44400  0.72300  0.76800  1.0000
  F   F21       1.0  0.77700  0.38800  0.89300  1.0000
  F   F22       1.0  0.11500  0.50500  0.89300  1.0000
  F   F23       1.0  0.70100  0.06220  0.93400  1.0000
  F   F24       1.0  0.23300  0.87100  0.93400  1.0000
  Mn  Mn1       1.0  0.00000  0.00000  0.00000  1.0000
  Mn  Mn2       1.0  0.25000  0.75000  0.50000  1.0000
