data_image0
_chemical_formula_structural       K2O20V8
_chemical_formula_sum              "K2 O20 V8"
_cell_length_a       3.69137
_cell_length_b       6.08548
_cell_length_c       18.1882
_cell_angle_alpha    90
_cell_angle_beta     90
_cell_angle_gamma    72.3445

_space_group_name_H-M_alt    "P 1"
_space_group_IT_number       1

loop_
  _space_group_symop_operation_xyz
  'x, y, z'

loop_
  _atom_site_type_symbol
  _atom_site_label
  _atom_site_symmetry_multiplicity
  _atom_site_fract_x
  _atom_site_fract_y
  _atom_site_fract_z
  _atom_site_occupancy
  K   K1        1.0  0.92000  0.16000  0.25000  1.0000
  K   K2        1.0  0.08020  0.84000  0.75000  1.0000
  O   O1        1.0  0.42000  0.16100  0.04780  1.0000
  O   O2        1.0  0.74100  0.51800  0.05860  1.0000
  O   O3        1.0  0.09880  0.80200  0.06610  1.0000
  O   O4        1.0  0.54800  0.90500  0.16800  1.0000
  O   O5        1.0  0.28900  0.42100  0.16900  1.0000
  O   O6        1.0  0.28900  0.42100  0.33100  1.0000
  O   O7        1.0  0.54800  0.90500  0.33200  1.0000
  O   O8        1.0  0.09880  0.80200  0.43400  1.0000
  O   O9        1.0  0.74100  0.51800  0.44100  1.0000
  O   O10       1.0  0.42000  0.16100  0.45200  1.0000
  O   O11       1.0  0.58000  0.83900  0.54800  1.0000
  O   O12       1.0  0.25900  0.48200  0.55900  1.0000
  O   O13       1.0  0.90100  0.19800  0.56600  1.0000
  O   O14       1.0  0.45200  0.09540  0.66800  1.0000
  O   O15       1.0  0.71100  0.57900  0.66900  1.0000
  O   O16       1.0  0.71100  0.57900  0.83100  1.0000
  O   O17       1.0  0.45200  0.09540  0.83200  1.0000
  O   O18       1.0  0.90100  0.19800  0.93400  1.0000
  O   O19       1.0  0.25900  0.48200  0.94100  1.0000
  O   O20       1.0  0.58000  0.83900  0.95200  1.0000
  V   V1        1.0  0.56600  0.86900  0.07970  1.0000
  V   V2        1.0  0.26800  0.46400  0.08100  1.0000
  V   V3        1.0  0.26800  0.46400  0.41900  1.0000
  V   V4        1.0  0.56600  0.86900  0.42000  1.0000
  V   V5        1.0  0.43400  0.13100  0.58000  1.0000
  V   V6        1.0  0.73200  0.53600  0.58100  1.0000
  V   V7        1.0  0.73200  0.53600  0.91900  1.0000
  V   V8        1.0  0.43400  0.13100  0.92000  1.0000
