data_image0
_chemical_formula_structural       H4I4Na2O18V2
_chemical_formula_sum              "H4 I4 Na2 O18 V2"
_cell_length_a       8.86436
_cell_length_b       5.04124
_cell_length_c       8.94812
_cell_angle_alpha    90
_cell_angle_beta     111.798
_cell_angle_gamma    90

_space_group_name_H-M_alt    "P 1"
_space_group_IT_number       1

loop_
  _space_group_symop_operation_xyz
  'x, y, z'

loop_
  _atom_site_type_symbol
  _atom_site_label
  _atom_site_symmetry_multiplicity
  _atom_site_fract_x
  _atom_site_fract_y
  _atom_site_fract_z
  _atom_site_occupancy
  H   H1        1.0  0.97000  0.27900  0.33700  1.0000
  H   H2        1.0  0.88000  0.46800  0.42000  1.0000
  H   H3        1.0  0.12000  0.96800  0.58000  1.0000
  H   H4        1.0  0.03000  0.77900  0.66300  1.0000
  I   I1        1.0  0.62700  0.11600  0.19100  1.0000
  I   I2        1.0  0.32700  0.20200  0.44300  1.0000
  I   I3        1.0  0.67300  0.70200  0.55700  1.0000
  I   I4        1.0  0.37300  0.61600  0.80900  1.0000
  Na  Na1       1.0  0.96300  0.75400  0.18200  1.0000
  Na  Na2       1.0  0.03740  0.25400  0.81800  1.0000
  O   O1        1.0  0.11600  0.96100  0.03360  1.0000
  O   O2        1.0  0.74700  0.03560  0.06220  1.0000
  O   O3        1.0  0.48000  0.84100  0.07920  1.0000
  O   O4        1.0  0.21700  0.54700  0.22700  1.0000
  O   O5        1.0  0.39700  0.01790  0.29000  1.0000
  O   O6        1.0  0.87900  0.41100  0.31300  1.0000
  O   O7        1.0  0.75500  0.91100  0.35700  1.0000
  O   O8        1.0  0.12100  0.06360  0.38200  1.0000
  O   O9        1.0  0.57200  0.45300  0.40400  1.0000
  O   O10       1.0  0.42800  0.95300  0.59600  1.0000
  O   O11       1.0  0.87900  0.56400  0.61800  1.0000
  O   O12       1.0  0.24500  0.41100  0.64300  1.0000
  O   O13       1.0  0.12100  0.91100  0.68700  1.0000
  O   O14       1.0  0.60300  0.51800  0.71000  1.0000
  O   O15       1.0  0.78300  0.04740  0.77300  1.0000
  O   O16       1.0  0.52000  0.34100  0.92100  1.0000
  O   O17       1.0  0.25300  0.53600  0.93800  1.0000
  O   O18       1.0  0.88400  0.46100  0.96600  1.0000
  V   V1        1.0  0.27500  0.77100  0.12100  1.0000
  V   V2        1.0  0.72500  0.27100  0.87900  1.0000
