data_image0
_chemical_formula_structural       Ge4Hg6K4Se16
_chemical_formula_sum              "Ge4 Hg6 K4 Se16"
_cell_length_a       6.79961
_cell_length_b       6.79961
_cell_length_c       20.3735
_cell_angle_alpha    90
_cell_angle_beta     90
_cell_angle_gamma    97.7897

_space_group_name_H-M_alt    "P 1"
_space_group_IT_number       1

loop_
  _space_group_symop_operation_xyz
  'x, y, z'

loop_
  _atom_site_type_symbol
  _atom_site_label
  _atom_site_symmetry_multiplicity
  _atom_site_fract_x
  _atom_site_fract_y
  _atom_site_fract_z
  _atom_site_occupancy
  Ge  Ge1       1.0  0.47400  0.89800  0.13400  1.0000
  Ge  Ge2       1.0  0.97400  0.39800  0.36600  1.0000
  Ge  Ge3       1.0  0.39800  0.97400  0.63400  1.0000
  Ge  Ge4       1.0  0.89800  0.47400  0.86600  1.0000
  Hg  Hg1       1.0  0.53600  0.53600  0.00000  1.0000
  Hg  Hg2       1.0  0.92500  0.83100  0.24300  1.0000
  Hg  Hg3       1.0  0.42500  0.33100  0.25700  1.0000
  Hg  Hg4       1.0  0.03600  0.03600  0.50000  1.0000
  Hg  Hg5       1.0  0.33100  0.42500  0.74300  1.0000
  Hg  Hg6       1.0  0.83100  0.92500  0.75700  1.0000
  K   K1        1.0  0.97400  0.38400  0.11800  1.0000
  K   K2        1.0  0.47400  0.88400  0.38200  1.0000
  K   K3        1.0  0.88400  0.47400  0.61800  1.0000
  K   K4        1.0  0.38400  0.97400  0.88200  1.0000
  Se  Se1       1.0  0.30000  0.77000  0.03570  1.0000
  Se  Se2       1.0  0.81600  0.85300  0.12100  1.0000
  Se  Se3       1.0  0.43000  0.24200  0.13200  1.0000
  Se  Se4       1.0  0.33000  0.74300  0.22900  1.0000
  Se  Se5       1.0  0.83000  0.24300  0.27100  1.0000
  Se  Se6       1.0  0.93000  0.74200  0.36800  1.0000
  Se  Se7       1.0  0.31600  0.35300  0.37900  1.0000
  Se  Se8       1.0  0.80000  0.27000  0.46400  1.0000
  Se  Se9       1.0  0.27000  0.80000  0.53600  1.0000
  Se  Se10      1.0  0.35300  0.31600  0.62100  1.0000
  Se  Se11      1.0  0.74200  0.93000  0.63200  1.0000
  Se  Se12      1.0  0.24300  0.83000  0.72900  1.0000
  Se  Se13      1.0  0.74300  0.33000  0.77100  1.0000
  Se  Se14      1.0  0.24200  0.43000  0.86800  1.0000
  Se  Se15      1.0  0.85300  0.81600  0.87900  1.0000
  Se  Se16      1.0  0.77000  0.30000  0.96400  1.0000
