data_image0
_chemical_formula_structural       Ba6C2F14O6Sc2
_chemical_formula_sum              "Ba6 C2 F14 O6 Sc2"
_cell_length_a       5.86725
_cell_length_b       8.77727
_cell_length_c       8.77727
_cell_angle_alpha    99.0637
_cell_angle_beta     90
_cell_angle_gamma    90

_space_group_name_H-M_alt    "P 1"
_space_group_IT_number       1

loop_
  _space_group_symop_operation_xyz
  'x, y, z'

loop_
  _atom_site_type_symbol
  _atom_site_label
  _atom_site_symmetry_multiplicity
  _atom_site_fract_x
  _atom_site_fract_y
  _atom_site_fract_z
  _atom_site_occupancy
  Ba  Ba1       1.0  0.25000  0.90500  0.09520  1.0000
  Ba  Ba2       1.0  0.25000  0.39700  0.15500  1.0000
  Ba  Ba3       1.0  0.75000  0.15500  0.39700  1.0000
  Ba  Ba4       1.0  0.25000  0.84500  0.60300  1.0000
  Ba  Ba5       1.0  0.75000  0.60300  0.84500  1.0000
  Ba  Ba6       1.0  0.75000  0.09520  0.90500  1.0000
  C   C1        1.0  0.75000  0.53500  0.46500  1.0000
  C   C2        1.0  0.25000  0.46500  0.53500  1.0000
  F   F1        1.0  0.75000  0.88700  0.11300  1.0000
  F   F2        1.0  0.50200  0.64000  0.11500  1.0000
  F   F3        1.0  0.99800  0.64000  0.11500  1.0000
  F   F4        1.0  0.00000  0.16100  0.16100  1.0000
  F   F5        1.0  0.50000  0.16100  0.16100  1.0000
  F   F6        1.0  0.50200  0.88500  0.36000  1.0000
  F   F7        1.0  0.99800  0.88500  0.36000  1.0000
  F   F8        1.0  0.00158  0.11500  0.64000  1.0000
  F   F9        1.0  0.49800  0.11500  0.64000  1.0000
  F   F10       1.0  0.00000  0.83900  0.83900  1.0000
  F   F11       1.0  0.50000  0.83900  0.83900  1.0000
  F   F12       1.0  0.00158  0.36000  0.88500  1.0000
  F   F13       1.0  0.49800  0.36000  0.88500  1.0000
  F   F14       1.0  0.25000  0.11300  0.88700  1.0000
  O   O1        1.0  0.75000  0.48900  0.31600  1.0000
  O   O2        1.0  0.25000  0.56100  0.43900  1.0000
  O   O3        1.0  0.25000  0.31600  0.48900  1.0000
  O   O4        1.0  0.75000  0.68400  0.51100  1.0000
  O   O5        1.0  0.75000  0.43900  0.56100  1.0000
  O   O6        1.0  0.25000  0.51100  0.68400  1.0000
  Sc  Sc1       1.0  0.75000  0.73000  0.27000  1.0000
  Sc  Sc2       1.0  0.25000  0.27000  0.73000  1.0000
