data_image0
_chemical_formula_structural       Hf16Mn2Te12
_chemical_formula_sum              "Hf16 Mn2 Te12"
_cell_length_a       26.0604
_cell_length_b       3.7407
_cell_length_c       7.66993
_cell_angle_alpha    90
_cell_angle_beta     90
_cell_angle_gamma    90

_space_group_name_H-M_alt    "P 1"
_space_group_IT_number       1

loop_
  _space_group_symop_operation_xyz
  'x, y, z'

loop_
  _atom_site_type_symbol
  _atom_site_label
  _atom_site_symmetry_multiplicity
  _atom_site_fract_x
  _atom_site_fract_y
  _atom_site_fract_z
  _atom_site_occupancy
  Hf  Hf1       1.0  0.75000  0.25000  0.03700  1.0000
  Hf  Hf2       1.0  0.18300  0.25000  0.23800  1.0000
  Hf  Hf3       1.0  0.31700  0.25000  0.23800  1.0000
  Hf  Hf4       1.0  0.75000  0.75000  0.42900  1.0000
  Hf  Hf5       1.0  0.05150  0.25000  0.44000  1.0000
  Hf  Hf6       1.0  0.44800  0.25000  0.44000  1.0000
  Hf  Hf7       1.0  0.65100  0.25000  0.44500  1.0000
  Hf  Hf8       1.0  0.84900  0.25000  0.44500  1.0000
  Hf  Hf9       1.0  0.15100  0.75000  0.55500  1.0000
  Hf  Hf10      1.0  0.34900  0.75000  0.55500  1.0000
  Hf  Hf11      1.0  0.55200  0.75000  0.56000  1.0000
  Hf  Hf12      1.0  0.94800  0.75000  0.56000  1.0000
  Hf  Hf13      1.0  0.25000  0.25000  0.57100  1.0000
  Hf  Hf14      1.0  0.68300  0.75000  0.76200  1.0000
  Hf  Hf15      1.0  0.81700  0.75000  0.76200  1.0000
  Hf  Hf16      1.0  0.25000  0.75000  0.96300  1.0000
  Mn  Mn1       1.0  0.25000  0.75000  0.31500  1.0000
  Mn  Mn2       1.0  0.75000  0.25000  0.68500  1.0000
  Te  Te1       1.0  0.66800  0.75000  0.15100  1.0000
  Te  Te2       1.0  0.83200  0.75000  0.15100  1.0000
  Te  Te3       1.0  0.09380  0.75000  0.19800  1.0000
  Te  Te4       1.0  0.40600  0.75000  0.19800  1.0000
  Te  Te5       1.0  0.54800  0.25000  0.27800  1.0000
  Te  Te6       1.0  0.95200  0.25000  0.27800  1.0000
  Te  Te7       1.0  0.04810  0.75000  0.72200  1.0000
  Te  Te8       1.0  0.45200  0.75000  0.72200  1.0000
  Te  Te9       1.0  0.59400  0.25000  0.80200  1.0000
  Te  Te10      1.0  0.90600  0.25000  0.80200  1.0000
  Te  Te11      1.0  0.16800  0.25000  0.84900  1.0000
  Te  Te12      1.0  0.33200  0.25000  0.84900  1.0000
