data_image0
_chemical_formula_structural       B6Rh14Zn10
_chemical_formula_sum              "B6 Rh14 Zn10"
_cell_length_a       11.1253
_cell_length_b       2.85955
_cell_length_c       11.8013
_cell_angle_alpha    90
_cell_angle_beta     90
_cell_angle_gamma    90

_space_group_name_H-M_alt    "P 1"
_space_group_IT_number       1

loop_
  _space_group_symop_operation_xyz
  'x, y, z'

loop_
  _atom_site_type_symbol
  _atom_site_label
  _atom_site_symmetry_multiplicity
  _atom_site_fract_x
  _atom_site_fract_y
  _atom_site_fract_z
  _atom_site_occupancy
  B   B1        1.0  0.75000  0.50000  0.03900  1.0000
  B   B2        1.0  0.11700  0.50000  0.40600  1.0000
  B   B3        1.0  0.38300  0.50000  0.40600  1.0000
  B   B4        1.0  0.61700  0.50000  0.59400  1.0000
  B   B5        1.0  0.88300  0.50000  0.59400  1.0000
  B   B6        1.0  0.25000  0.50000  0.96100  1.0000
  Rh  Rh1       1.0  0.12600  0.00000  0.03720  1.0000
  Rh  Rh2       1.0  0.37400  0.00000  0.03720  1.0000
  Rh  Rh3       1.0  0.75000  0.00000  0.18200  1.0000
  Rh  Rh4       1.0  0.07710  0.00000  0.28000  1.0000
  Rh  Rh5       1.0  0.42300  0.00000  0.28000  1.0000
  Rh  Rh6       1.0  0.25000  0.00000  0.47300  1.0000
  Rh  Rh7       1.0  0.00000  0.00000  0.50000  1.0000
  Rh  Rh8       1.0  0.50000  0.00000  0.50000  1.0000
  Rh  Rh9       1.0  0.75000  0.00000  0.52700  1.0000
  Rh  Rh10      1.0  0.57700  0.00000  0.72000  1.0000
  Rh  Rh11      1.0  0.92300  0.00000  0.72000  1.0000
  Rh  Rh12      1.0  0.25000  0.00000  0.81800  1.0000
  Rh  Rh13      1.0  0.62600  0.00000  0.96300  1.0000
  Rh  Rh14      1.0  0.87400  0.00000  0.96300  1.0000
  Zn  Zn1       1.0  0.54900  0.50000  0.13400  1.0000
  Zn  Zn2       1.0  0.95100  0.50000  0.13400  1.0000
  Zn  Zn3       1.0  0.25000  0.50000  0.19000  1.0000
  Zn  Zn4       1.0  0.63000  0.50000  0.34800  1.0000
  Zn  Zn5       1.0  0.87000  0.50000  0.34800  1.0000
  Zn  Zn6       1.0  0.13000  0.50000  0.65200  1.0000
  Zn  Zn7       1.0  0.37000  0.50000  0.65200  1.0000
  Zn  Zn8       1.0  0.75000  0.50000  0.81000  1.0000
  Zn  Zn9       1.0  0.04880  0.50000  0.86600  1.0000
  Zn  Zn10      1.0  0.45100  0.50000  0.86600  1.0000
