data_image0
_chemical_formula_structural       Cl6K4N6O12Pt2
_chemical_formula_sum              "Cl6 K4 N6 O12 Pt2"
_cell_length_a       10.6785
_cell_length_b       7.41176
_cell_length_c       6.50379
_cell_angle_alpha    90
_cell_angle_beta     102.026
_cell_angle_gamma    90

_space_group_name_H-M_alt    "P 1"
_space_group_IT_number       1

loop_
  _space_group_symop_operation_xyz
  'x, y, z'

loop_
  _atom_site_type_symbol
  _atom_site_label
  _atom_site_symmetry_multiplicity
  _atom_site_fract_x
  _atom_site_fract_y
  _atom_site_fract_z
  _atom_site_occupancy
  Cl  Cl1       1.0  0.69600  0.52200  0.10700  1.0000
  Cl  Cl2       1.0  0.69600  0.97800  0.10700  1.0000
  Cl  Cl3       1.0  0.46800  0.25000  0.29800  1.0000
  Cl  Cl4       1.0  0.53200  0.75000  0.70200  1.0000
  Cl  Cl5       1.0  0.30400  0.02180  0.89300  1.0000
  Cl  Cl6       1.0  0.30400  0.47800  0.89300  1.0000
  K   K1        1.0  0.47100  0.75000  0.21100  1.0000
  K   K2        1.0  0.88100  0.25000  0.37500  1.0000
  K   K3        1.0  0.11900  0.75000  0.62500  1.0000
  K   K4        1.0  0.52900  0.25000  0.78900  1.0000
  N   N1        1.0  0.93800  0.75000  0.06280  1.0000
  N   N2        1.0  0.20800  0.05330  0.31900  1.0000
  N   N3        1.0  0.20800  0.44700  0.31900  1.0000
  N   N4        1.0  0.79200  0.55300  0.68100  1.0000
  N   N5        1.0  0.79200  0.94700  0.68100  1.0000
  N   N6        1.0  0.06230  0.25000  0.93700  1.0000
  O   O1        1.0  0.96800  0.25000  0.01860  1.0000
  O   O2        1.0  0.94400  0.75000  0.25400  1.0000
  O   O3        1.0  0.10500  0.06100  0.37800  1.0000
  O   O4        1.0  0.10500  0.43900  0.37800  1.0000
  O   O5        1.0  0.28900  0.56500  0.37900  1.0000
  O   O6        1.0  0.28900  0.93500  0.37900  1.0000
  O   O7        1.0  0.71100  0.06500  0.62100  1.0000
  O   O8        1.0  0.71100  0.43500  0.62100  1.0000
  O   O9        1.0  0.89500  0.56100  0.62200  1.0000
  O   O10       1.0  0.89500  0.93900  0.62200  1.0000
  O   O11       1.0  0.05600  0.25000  0.74600  1.0000
  O   O12       1.0  0.03240  0.75000  0.98100  1.0000
  Pt  Pt1       1.0  0.25000  0.25000  0.11700  1.0000
  Pt  Pt2       1.0  0.75000  0.75000  0.88300  1.0000
