data_image0
_chemical_formula_structural       Cs8P4Se18
_chemical_formula_sum              "Cs8 P4 Se18"
_cell_length_a       7.52542
_cell_length_b       7.52542
_cell_length_c       20.107
_cell_angle_alpha    92.3225
_cell_angle_beta     92.3225
_cell_angle_gamma    93.0842

_space_group_name_H-M_alt    "P 1"
_space_group_IT_number       1

loop_
  _space_group_symop_operation_xyz
  'x, y, z'

loop_
  _atom_site_type_symbol
  _atom_site_label
  _atom_site_symmetry_multiplicity
  _atom_site_fract_x
  _atom_site_fract_y
  _atom_site_fract_z
  _atom_site_occupancy
  Cs  Cs1       1.0  0.71500  0.21700  0.02630  1.0000
  Cs  Cs2       1.0  0.23900  0.43800  0.17600  1.0000
  Cs  Cs3       1.0  0.56200  0.76100  0.32400  1.0000
  Cs  Cs4       1.0  0.78300  0.28500  0.47400  1.0000
  Cs  Cs5       1.0  0.21700  0.71500  0.52600  1.0000
  Cs  Cs6       1.0  0.43800  0.23900  0.67600  1.0000
  Cs  Cs7       1.0  0.76100  0.56200  0.82400  1.0000
  Cs  Cs8       1.0  0.28500  0.78300  0.97400  1.0000
  P   P1        1.0  0.72900  0.74400  0.12300  1.0000
  P   P2        1.0  0.25600  0.27100  0.37700  1.0000
  P   P3        1.0  0.74400  0.72900  0.62300  1.0000
  P   P4        1.0  0.27100  0.25600  0.87700  1.0000
  Se  Se1       1.0  0.79200  0.71900  0.01670  1.0000
  Se  Se2       1.0  0.48800  0.88200  0.14400  1.0000
  Se  Se3       1.0  0.98200  0.94100  0.15000  1.0000
  Se  Se4       1.0  0.74800  0.50400  0.18000  1.0000
  Se  Se5       1.0  0.90500  0.09510  0.25000  1.0000
  Se  Se6       1.0  0.49600  0.25200  0.32000  1.0000
  Se  Se7       1.0  0.05930  0.01770  0.35000  1.0000
  Se  Se8       1.0  0.11800  0.51200  0.35600  1.0000
  Se  Se9       1.0  0.28100  0.20800  0.48300  1.0000
  Se  Se10      1.0  0.71900  0.79200  0.51700  1.0000
  Se  Se11      1.0  0.88200  0.48800  0.64400  1.0000
  Se  Se12      1.0  0.94100  0.98200  0.65000  1.0000
  Se  Se13      1.0  0.50400  0.74800  0.68000  1.0000
  Se  Se14      1.0  0.09510  0.90500  0.75000  1.0000
  Se  Se15      1.0  0.25200  0.49600  0.82000  1.0000
  Se  Se16      1.0  0.01770  0.05930  0.85000  1.0000
  Se  Se17      1.0  0.51200  0.11800  0.85600  1.0000
  Se  Se18      1.0  0.20800  0.28100  0.98300  1.0000
