data_image0
_chemical_formula_structural       Ag16Ge2Se12
_chemical_formula_sum              "Ag16 Ge2 Se12"
_cell_length_a       8.02878
_cell_length_b       7.83271
_cell_length_c       11.0615
_cell_angle_alpha    90
_cell_angle_beta     90
_cell_angle_gamma    90

_space_group_name_H-M_alt    "P 1"
_space_group_IT_number       1

loop_
  _space_group_symop_operation_xyz
  'x, y, z'

loop_
  _atom_site_type_symbol
  _atom_site_label
  _atom_site_symmetry_multiplicity
  _atom_site_fract_x
  _atom_site_fract_y
  _atom_site_fract_z
  _atom_site_occupancy
  Ag  Ag1       1.0  0.00000  0.62200  0.04340  1.0000
  Ag  Ag2       1.0  0.19800  0.15100  0.15800  1.0000
  Ag  Ag3       1.0  0.80200  0.15100  0.15800  1.0000
  Ag  Ag4       1.0  0.19800  0.53500  0.26800  1.0000
  Ag  Ag5       1.0  0.80200  0.53500  0.26800  1.0000
  Ag  Ag6       1.0  0.29400  0.89500  0.36400  1.0000
  Ag  Ag7       1.0  0.70600  0.89500  0.36400  1.0000
  Ag  Ag8       1.0  0.00000  0.72400  0.48100  1.0000
  Ag  Ag9       1.0  0.50000  0.37800  0.54300  1.0000
  Ag  Ag10      1.0  0.30200  0.84900  0.65800  1.0000
  Ag  Ag11      1.0  0.69800  0.84900  0.65800  1.0000
  Ag  Ag12      1.0  0.30200  0.46500  0.76800  1.0000
  Ag  Ag13      1.0  0.69800  0.46500  0.76800  1.0000
  Ag  Ag14      1.0  0.20600  0.10500  0.86400  1.0000
  Ag  Ag15      1.0  0.79400  0.10500  0.86400  1.0000
  Ag  Ag16      1.0  0.50000  0.27600  0.98100  1.0000
  Ge  Ge1       1.0  0.50000  0.75100  0.01820  1.0000
  Ge  Ge2       1.0  0.00000  0.24900  0.51800  1.0000
  Se  Se1       1.0  0.50000  0.99700  0.14900  1.0000
  Se  Se2       1.0  0.50000  0.51000  0.14900  1.0000
  Se  Se3       1.0  0.00000  0.81200  0.24700  1.0000
  Se  Se4       1.0  0.24900  0.24900  0.39800  1.0000
  Se  Se5       1.0  0.75100  0.24900  0.39800  1.0000
  Se  Se6       1.0  0.50000  0.71400  0.49900  1.0000
  Se  Se7       1.0  0.00000  0.00317  0.64900  1.0000
  Se  Se8       1.0  0.00000  0.49000  0.64900  1.0000
  Se  Se9       1.0  0.50000  0.18800  0.74700  1.0000
  Se  Se10      1.0  0.25100  0.75100  0.89800  1.0000
  Se  Se11      1.0  0.74900  0.75100  0.89800  1.0000
  Se  Se12      1.0  0.00000  0.28600  0.99900  1.0000
