data_image0
_chemical_formula_structural       Al10Ta20
_chemical_formula_sum              "Al10 Ta20"
_cell_length_a       9.91964
_cell_length_b       9.91964
_cell_length_c       5.4097
_cell_angle_alpha    90
_cell_angle_beta     90
_cell_angle_gamma    90

_space_group_name_H-M_alt    "P 1"
_space_group_IT_number       1

loop_
  _space_group_symop_operation_xyz
  'x, y, z'

loop_
  _atom_site_type_symbol
  _atom_site_label
  _atom_site_symmetry_multiplicity
  _atom_site_fract_x
  _atom_site_fract_y
  _atom_site_fract_z
  _atom_site_occupancy
  Al  Al1       1.0  0.00000  0.00000  0.00000  1.0000
  Al  Al2       1.0  0.46500  0.13600  0.00000  1.0000
  Al  Al3       1.0  0.13600  0.46500  0.00000  1.0000
  Al  Al4       1.0  0.86400  0.53500  0.00000  1.0000
  Al  Al5       1.0  0.53500  0.86400  0.00000  1.0000
  Al  Al6       1.0  0.63600  0.03500  0.50000  1.0000
  Al  Al7       1.0  0.96500  0.36400  0.50000  1.0000
  Al  Al8       1.0  0.50000  0.50000  0.50000  1.0000
  Al  Al9       1.0  0.03500  0.63600  0.50000  1.0000
  Al  Al10      1.0  0.36400  0.96500  0.50000  1.0000
  Ta  Ta1       1.0  0.73700  0.06290  0.00000  1.0000
  Ta  Ta2       1.0  0.93700  0.26300  0.00000  1.0000
  Ta  Ta3       1.0  0.40300  0.40300  0.00000  1.0000
  Ta  Ta4       1.0  0.59700  0.59700  0.00000  1.0000
  Ta  Ta5       1.0  0.06290  0.73700  0.00000  1.0000
  Ta  Ta6       1.0  0.26300  0.93700  0.00000  1.0000
  Ta  Ta7       1.0  0.18800  0.18800  0.24800  1.0000
  Ta  Ta8       1.0  0.81200  0.81200  0.24800  1.0000
  Ta  Ta9       1.0  0.68800  0.31200  0.25200  1.0000
  Ta  Ta10      1.0  0.31200  0.68800  0.25200  1.0000
  Ta  Ta11      1.0  0.90300  0.09730  0.50000  1.0000
  Ta  Ta12      1.0  0.43700  0.23700  0.50000  1.0000
  Ta  Ta13      1.0  0.23700  0.43700  0.50000  1.0000
  Ta  Ta14      1.0  0.76300  0.56300  0.50000  1.0000
  Ta  Ta15      1.0  0.56300  0.76300  0.50000  1.0000
  Ta  Ta16      1.0  0.09730  0.90300  0.50000  1.0000
  Ta  Ta17      1.0  0.68800  0.31200  0.74800  1.0000
  Ta  Ta18      1.0  0.31200  0.68800  0.74800  1.0000
  Ta  Ta19      1.0  0.18800  0.18800  0.75200  1.0000
  Ta  Ta20      1.0  0.81200  0.81200  0.75200  1.0000
