data_image0
_chemical_formula_structural       Ge12Lu8Zn10
_chemical_formula_sum              "Ge12 Lu8 Zn10"
_cell_length_a       4.19381
_cell_length_b       9.42029
_cell_length_c       15.0983
_cell_angle_alpha    90
_cell_angle_beta     90
_cell_angle_gamma    77.1385

_space_group_name_H-M_alt    "P 1"
_space_group_IT_number       1

loop_
  _space_group_symop_operation_xyz
  'x, y, z'

loop_
  _atom_site_type_symbol
  _atom_site_label
  _atom_site_symmetry_multiplicity
  _atom_site_fract_x
  _atom_site_fract_y
  _atom_site_fract_z
  _atom_site_occupancy
  Ge  Ge1       1.0  0.88700  0.22500  0.11600  1.0000
  Ge  Ge2       1.0  0.56600  0.86800  0.12800  1.0000
  Ge  Ge3       1.0  0.23000  0.54000  0.26700  1.0000
  Ge  Ge4       1.0  0.44000  0.12100  0.35400  1.0000
  Ge  Ge5       1.0  0.57000  0.86100  0.40800  1.0000
  Ge  Ge6       1.0  0.77500  0.45000  0.48300  1.0000
  Ge  Ge7       1.0  0.11300  0.77500  0.61600  1.0000
  Ge  Ge8       1.0  0.43400  0.13200  0.62800  1.0000
  Ge  Ge9       1.0  0.77000  0.46000  0.76700  1.0000
  Ge  Ge10      1.0  0.56000  0.87900  0.85400  1.0000
  Ge  Ge11      1.0  0.43000  0.13900  0.90800  1.0000
  Ge  Ge12      1.0  0.22500  0.55000  0.98300  1.0000
  Lu  Lu1       1.0  0.03230  0.93500  0.26400  1.0000
  Lu  Lu2       1.0  0.83400  0.33300  0.30300  1.0000
  Lu  Lu3       1.0  0.17400  0.65100  0.44400  1.0000
  Lu  Lu4       1.0  0.98300  0.03390  0.49900  1.0000
  Lu  Lu5       1.0  0.96800  0.06460  0.76400  1.0000
  Lu  Lu6       1.0  0.16600  0.66700  0.80300  1.0000
  Lu  Lu7       1.0  0.82600  0.34900  0.94400  1.0000
  Lu  Lu8       1.0  0.01700  0.96600  0.99900  1.0000
  Zn  Zn1       1.0  0.30100  0.39800  0.12400  1.0000
  Zn  Zn2       1.0  0.15200  0.69700  0.12700  1.0000
  Zn  Zn3       1.0  0.43500  0.13000  0.18500  1.0000
  Zn  Zn4       1.0  0.65500  0.68900  0.27200  1.0000
  Zn  Zn5       1.0  0.34900  0.30200  0.48100  1.0000
  Zn  Zn6       1.0  0.69900  0.60200  0.62400  1.0000
  Zn  Zn7       1.0  0.84800  0.30300  0.62700  1.0000
  Zn  Zn8       1.0  0.56500  0.87000  0.68500  1.0000
  Zn  Zn9       1.0  0.34500  0.31100  0.77200  1.0000
  Zn  Zn10      1.0  0.65100  0.69800  0.98100  1.0000
