data_image0
_chemical_formula_structural       B8Dy4O18
_chemical_formula_sum              "B8 Dy4 O18"
_cell_length_a       6.12863
_cell_length_b       6.38715
_cell_length_c       7.45161
_cell_angle_alpha    102.676
_cell_angle_beta     97.2716
_cell_angle_gamma    102.553

_space_group_name_H-M_alt    "P 1"
_space_group_IT_number       1

loop_
  _space_group_symop_operation_xyz
  'x, y, z'

loop_
  _atom_site_type_symbol
  _atom_site_label
  _atom_site_symmetry_multiplicity
  _atom_site_fract_x
  _atom_site_fract_y
  _atom_site_fract_z
  _atom_site_occupancy
  B   B1        1.0  0.26600  0.66600  0.01910  1.0000
  B   B2        1.0  0.33900  0.31600  0.07250  1.0000
  B   B3        1.0  0.99500  0.14400  0.19000  1.0000
  B   B4        1.0  0.37400  0.64300  0.35000  1.0000
  B   B5        1.0  0.62600  0.35700  0.65000  1.0000
  B   B6        1.0  0.00491  0.85600  0.81000  1.0000
  B   B7        1.0  0.66100  0.68400  0.92800  1.0000
  B   B8        1.0  0.73400  0.33400  0.98100  1.0000
  Dy  Dy1       1.0  0.54900  0.09160  0.28700  1.0000
  Dy  Dy2       1.0  0.88800  0.67700  0.36000  1.0000
  Dy  Dy3       1.0  0.11200  0.32300  0.64000  1.0000
  Dy  Dy4       1.0  0.45100  0.90800  0.71300  1.0000
  O   O1        1.0  0.50400  0.79100  0.02190  1.0000
  O   O2        1.0  0.77600  0.57300  0.04150  1.0000
  O   O3        1.0  0.18800  0.12700  0.11900  1.0000
  O   O4        1.0  0.86300  0.28500  0.14500  1.0000
  O   O5        1.0  0.23400  0.73700  0.21200  1.0000
  O   O6        1.0  0.46200  0.46100  0.25300  1.0000
  O   O7        1.0  0.93200  0.04450  0.32600  1.0000
  O   O8        1.0  0.58200  0.81900  0.44600  1.0000
  O   O9        1.0  0.22000  0.59300  0.47800  1.0000
  O   O10       1.0  0.78000  0.40700  0.52200  1.0000
  O   O11       1.0  0.41800  0.18100  0.55400  1.0000
  O   O12       1.0  0.06820  0.95600  0.67400  1.0000
  O   O13       1.0  0.53800  0.53900  0.74700  1.0000
  O   O14       1.0  0.76600  0.26300  0.78800  1.0000
  O   O15       1.0  0.13700  0.71500  0.85500  1.0000
  O   O16       1.0  0.81200  0.87300  0.88100  1.0000
  O   O17       1.0  0.22400  0.42700  0.95900  1.0000
  O   O18       1.0  0.49600  0.20900  0.97800  1.0000
