data_image0
_chemical_formula_structural       Au4O20Se6
_chemical_formula_sum              "Au4 O20 Se6"
_cell_length_a       6.32335
_cell_length_b       8.22841
_cell_length_c       8.93445
_cell_angle_alpha    90
_cell_angle_beta     69.2755
_cell_angle_gamma    90

_space_group_name_H-M_alt    "P 1"
_space_group_IT_number       1

loop_
  _space_group_symop_operation_xyz
  'x, y, z'

loop_
  _atom_site_type_symbol
  _atom_site_label
  _atom_site_symmetry_multiplicity
  _atom_site_fract_x
  _atom_site_fract_y
  _atom_site_fract_z
  _atom_site_occupancy
  Au  Au1       1.0  0.36700  0.31600  0.32000  1.0000
  Au  Au2       1.0  0.31300  0.81600  0.32000  1.0000
  Au  Au3       1.0  0.68700  0.31600  0.68000  1.0000
  Au  Au4       1.0  0.63300  0.81600  0.68000  1.0000
  O   O1        1.0  0.81200  0.12400  0.00000  1.0000
  O   O2        1.0  0.25800  0.28400  0.00000  1.0000
  O   O3        1.0  0.18800  0.62400  0.00000  1.0000
  O   O4        1.0  0.74200  0.78400  0.00000  1.0000
  O   O5        1.0  0.44700  0.49900  0.15900  1.0000
  O   O6        1.0  0.39400  0.99900  0.15900  1.0000
  O   O7        1.0  0.69100  0.34000  0.30100  1.0000
  O   O8        1.0  0.00770  0.84000  0.30100  1.0000
  O   O9        1.0  0.04540  0.35300  0.33900  1.0000
  O   O10       1.0  0.61600  0.85300  0.33900  1.0000
  O   O11       1.0  0.28200  0.13200  0.48200  1.0000
  O   O12       1.0  0.23600  0.63200  0.48200  1.0000
  O   O13       1.0  0.76400  0.13200  0.51800  1.0000
  O   O14       1.0  0.71800  0.63200  0.51800  1.0000
  O   O15       1.0  0.38400  0.35300  0.66100  1.0000
  O   O16       1.0  0.95500  0.85300  0.66100  1.0000
  O   O17       1.0  0.99200  0.34000  0.69900  1.0000
  O   O18       1.0  0.30900  0.84000  0.69900  1.0000
  O   O19       1.0  0.60600  0.49900  0.84100  1.0000
  O   O20       1.0  0.55300  0.99900  0.84100  1.0000
  Se  Se1       1.0  0.35100  0.47000  0.00000  1.0000
  Se  Se2       1.0  0.64900  0.97000  0.00000  1.0000
  Se  Se3       1.0  0.87800  0.19100  0.31700  1.0000
  Se  Se4       1.0  0.80600  0.69100  0.31700  1.0000
  Se  Se5       1.0  0.19400  0.19100  0.68300  1.0000
  Se  Se6       1.0  0.12200  0.69100  0.68300  1.0000
