data_image0
_chemical_formula_structural       Er6Pd16Sb8
_chemical_formula_sum              "Er6 Pd16 Sb8"
_cell_length_a       9.3114
_cell_length_b       9.3114
_cell_length_c       9.3114
_cell_angle_alpha    120
_cell_angle_beta     90
_cell_angle_gamma    120

_space_group_name_H-M_alt    "P 1"
_space_group_IT_number       1

loop_
  _space_group_symop_operation_xyz
  'x, y, z'

loop_
  _atom_site_type_symbol
  _atom_site_label
  _atom_site_symmetry_multiplicity
  _atom_site_fract_x
  _atom_site_fract_y
  _atom_site_fract_z
  _atom_site_occupancy
  Er  Er1       1.0  0.27500  0.00000  0.27500  1.0000
  Er  Er2       1.0  0.72500  0.00000  0.27500  1.0000
  Er  Er3       1.0  0.27500  0.55100  0.27500  1.0000
  Er  Er4       1.0  0.27500  0.00000  0.72500  1.0000
  Er  Er5       1.0  0.72500  0.44900  0.72500  1.0000
  Er  Er6       1.0  0.72500  0.00000  0.72500  1.0000
  Pd  Pd1       1.0  0.33400  0.66800  0.00148  1.0000
  Pd  Pd2       1.0  0.88100  0.76300  0.11900  1.0000
  Pd  Pd3       1.0  0.35600  0.23700  0.11900  1.0000
  Pd  Pd4       1.0  0.88100  0.23700  0.11900  1.0000
  Pd  Pd5       1.0  0.66600  0.33200  0.33400  1.0000
  Pd  Pd6       1.0  0.00148  0.66800  0.33400  1.0000
  Pd  Pd7       1.0  0.66600  0.66800  0.33400  1.0000
  Pd  Pd8       1.0  0.11900  0.23700  0.35600  1.0000
  Pd  Pd9       1.0  0.88100  0.76300  0.64400  1.0000
  Pd  Pd10      1.0  0.33400  0.33200  0.66600  1.0000
  Pd  Pd11      1.0  0.99900  0.33200  0.66600  1.0000
  Pd  Pd12      1.0  0.33400  0.66800  0.66600  1.0000
  Pd  Pd13      1.0  0.11900  0.23700  0.88100  1.0000
  Pd  Pd14      1.0  0.11900  0.76300  0.88100  1.0000
  Pd  Pd15      1.0  0.64400  0.76300  0.88100  1.0000
  Pd  Pd16      1.0  0.66600  0.33200  0.99900  1.0000
  Sb  Sb1       1.0  0.00000  0.00000  0.00000  1.0000
  Sb  Sb2       1.0  0.50000  0.00000  0.00000  1.0000
  Sb  Sb3       1.0  0.00000  0.50000  0.00000  1.0000
  Sb  Sb4       1.0  0.50000  0.50000  0.00000  1.0000
  Sb  Sb5       1.0  0.50000  0.00000  0.50000  1.0000
  Sb  Sb6       1.0  0.00000  0.00000  0.50000  1.0000
  Sb  Sb7       1.0  0.00000  0.50000  0.50000  1.0000
  Sb  Sb8       1.0  0.50000  0.50000  0.50000  1.0000
