data_image0
_chemical_formula_structural       H8N4O16Pd2
_chemical_formula_sum              "H8 N4 O16 Pd2"
_cell_length_a       5.59867
_cell_length_b       5.39458
_cell_length_c       10.5039
_cell_angle_alpha    90
_cell_angle_beta     98.7137
_cell_angle_gamma    90

_space_group_name_H-M_alt    "P 1"
_space_group_IT_number       1

loop_
  _space_group_symop_operation_xyz
  'x, y, z'

loop_
  _atom_site_type_symbol
  _atom_site_label
  _atom_site_symmetry_multiplicity
  _atom_site_fract_x
  _atom_site_fract_y
  _atom_site_fract_z
  _atom_site_occupancy
  H   H1        1.0  0.89900  0.79500  0.07040  1.0000
  H   H2        1.0  0.27100  0.13600  0.24900  1.0000
  H   H3        1.0  0.72900  0.63600  0.25100  1.0000
  H   H4        1.0  0.10100  0.29500  0.43000  1.0000
  H   H5        1.0  0.89900  0.70500  0.57000  1.0000
  H   H6        1.0  0.27100  0.36400  0.74900  1.0000
  H   H7        1.0  0.72900  0.86400  0.75100  1.0000
  H   H8        1.0  0.10100  0.20500  0.93000  1.0000
  N   N1        1.0  0.27900  0.47300  0.21800  1.0000
  N   N2        1.0  0.72100  0.97300  0.28200  1.0000
  N   N3        1.0  0.27900  0.02680  0.71800  1.0000
  N   N4        1.0  0.72100  0.52700  0.78200  1.0000
  O   O1        1.0  0.19900  0.16300  0.01160  1.0000
  O   O2        1.0  0.19700  0.62000  0.13600  1.0000
  O   O3        1.0  0.51600  0.99000  0.20900  1.0000
  O   O4        1.0  0.14500  0.27200  0.24100  1.0000
  O   O5        1.0  0.85500  0.77200  0.25900  1.0000
  O   O6        1.0  0.48400  0.49000  0.29100  1.0000
  O   O7        1.0  0.80300  0.12000  0.36400  1.0000
  O   O8        1.0  0.80100  0.66300  0.48800  1.0000
  O   O9        1.0  0.19900  0.33700  0.51200  1.0000
  O   O10       1.0  0.19700  0.88000  0.63600  1.0000
  O   O11       1.0  0.51600  0.51000  0.70900  1.0000
  O   O12       1.0  0.14500  0.22800  0.74100  1.0000
  O   O13       1.0  0.85500  0.72800  0.75900  1.0000
  O   O14       1.0  0.48400  0.01010  0.79100  1.0000
  O   O15       1.0  0.80300  0.38000  0.86400  1.0000
  O   O16       1.0  0.80100  0.83700  0.98800  1.0000
  Pd  Pd1       1.0  0.50000  0.00000  0.00000  1.0000
  Pd  Pd2       1.0  0.50000  0.50000  0.50000  1.0000
