data_image0
_chemical_formula_structural       As4Cu8O18
_chemical_formula_sum              "As4 Cu8 O18"
_cell_length_a       6.39682
_cell_length_b       7.60667
_cell_length_c       8.23353
_cell_angle_alpha    98.658
_cell_angle_beta     112.629
_cell_angle_gamma    97.9834

_space_group_name_H-M_alt    "P 1"
_space_group_IT_number       1

loop_
  _space_group_symop_operation_xyz
  'x, y, z'

loop_
  _atom_site_type_symbol
  _atom_site_label
  _atom_site_symmetry_multiplicity
  _atom_site_fract_x
  _atom_site_fract_y
  _atom_site_fract_z
  _atom_site_occupancy
  As  As1       1.0  0.50200  0.28500  0.08650  1.0000
  As  As2       1.0  0.13000  0.23000  0.35400  1.0000
  As  As3       1.0  0.87000  0.77000  0.64600  1.0000
  As  As4       1.0  0.49800  0.71500  0.91300  1.0000
  Cu  Cu1       1.0  0.14600  0.87900  0.08430  1.0000
  Cu  Cu2       1.0  0.38400  0.61100  0.26100  1.0000
  Cu  Cu3       1.0  0.90500  0.63900  0.26500  1.0000
  Cu  Cu4       1.0  0.65000  0.15600  0.45100  1.0000
  Cu  Cu5       1.0  0.35000  0.84400  0.54900  1.0000
  Cu  Cu6       1.0  0.09480  0.36100  0.73500  1.0000
  Cu  Cu7       1.0  0.61600  0.38900  0.73900  1.0000
  Cu  Cu8       1.0  0.85400  0.12100  0.91600  1.0000
  O   O1        1.0  0.77500  0.69000  0.02740  1.0000
  O   O2        1.0  0.33700  0.71900  0.04020  1.0000
  O   O3        1.0  0.98900  0.06280  0.15400  1.0000
  O   O4        1.0  0.50000  0.10800  0.19300  1.0000
  O   O5        1.0  0.62900  0.49100  0.25300  1.0000
  O   O6        1.0  0.19200  0.77800  0.29000  1.0000
  O   O7        1.0  0.16900  0.44400  0.31700  1.0000
  O   O8        1.0  0.96200  0.22800  0.47700  1.0000
  O   O9        1.0  0.37700  0.17000  0.49700  1.0000
  O   O10       1.0  0.62300  0.83000  0.50300  1.0000
  O   O11       1.0  0.03780  0.77200  0.52300  1.0000
  O   O12       1.0  0.83100  0.55600  0.68300  1.0000
  O   O13       1.0  0.80800  0.22200  0.71000  1.0000
  O   O14       1.0  0.37100  0.50900  0.74700  1.0000
  O   O15       1.0  0.50000  0.89200  0.80700  1.0000
  O   O16       1.0  0.01120  0.93700  0.84600  1.0000
  O   O17       1.0  0.66300  0.28100  0.96000  1.0000
  O   O18       1.0  0.22500  0.31000  0.97300  1.0000
