data_image0
_chemical_formula_structural       Na4O20U2W4
_chemical_formula_sum              "Na4 O20 U2 W4"
_cell_length_a       6.48506
_cell_length_b       7.58688
_cell_length_c       8.53624
_cell_angle_alpha    89.9428
_cell_angle_beta     86.0746
_cell_angle_gamma    72.7933

_space_group_name_H-M_alt    "P 1"
_space_group_IT_number       1

loop_
  _space_group_symop_operation_xyz
  'x, y, z'

loop_
  _atom_site_type_symbol
  _atom_site_label
  _atom_site_symmetry_multiplicity
  _atom_site_fract_x
  _atom_site_fract_y
  _atom_site_fract_z
  _atom_site_occupancy
  Na  Na1       1.0  0.39300  0.90700  0.19500  1.0000
  Na  Na2       1.0  0.41400  0.39300  0.20200  1.0000
  Na  Na3       1.0  0.58600  0.60700  0.79800  1.0000
  Na  Na4       1.0  0.60700  0.09250  0.80500  1.0000
  O   O1        1.0  0.70000  0.82400  0.00406  1.0000
  O   O2        1.0  0.28900  0.67500  0.03570  1.0000
  O   O3        1.0  0.98900  0.02630  0.15100  1.0000
  O   O4        1.0  0.98300  0.48100  0.15200  1.0000
  O   O5        1.0  0.56300  0.09410  0.31100  1.0000
  O   O6        1.0  0.90700  0.77400  0.31400  1.0000
  O   O7        1.0  0.55600  0.63100  0.31900  1.0000
  O   O8        1.0  0.83000  0.29400  0.36800  1.0000
  O   O9        1.0  0.18000  0.42500  0.42300  1.0000
  O   O10       1.0  0.17800  0.98700  0.42500  1.0000
  O   O11       1.0  0.82200  0.01300  0.57500  1.0000
  O   O12       1.0  0.82000  0.57500  0.57700  1.0000
  O   O13       1.0  0.17000  0.70600  0.63200  1.0000
  O   O14       1.0  0.44400  0.36900  0.68100  1.0000
  O   O15       1.0  0.09340  0.22600  0.68600  1.0000
  O   O16       1.0  0.43700  0.90600  0.68900  1.0000
  O   O17       1.0  0.01690  0.51900  0.84800  1.0000
  O   O18       1.0  0.01060  0.97400  0.84900  1.0000
  O   O19       1.0  0.71100  0.32500  0.96400  1.0000
  O   O20       1.0  0.30000  0.17600  0.99600  1.0000
  U   U1        1.0  0.99300  0.75000  0.02390  1.0000
  U   U2        1.0  0.00664  0.25000  0.97600  1.0000
  W   W1        1.0  0.83200  0.04480  0.36400  1.0000
  W   W2        1.0  0.82800  0.54700  0.36600  1.0000
  W   W3        1.0  0.17200  0.45300  0.63400  1.0000
  W   W4        1.0  0.16800  0.95500  0.63600  1.0000
