data_image0
_chemical_formula_structural       Cu2O18P4Zn6
_chemical_formula_sum              "Cu2 O18 P4 Zn6"
_cell_length_a       6.34051
_cell_length_b       6.34051
_cell_length_c       9.33573
_cell_angle_alpha    105.451
_cell_angle_beta     105.983
_cell_angle_gamma    101.673

_space_group_name_H-M_alt    "P 1"
_space_group_IT_number       1

loop_
  _space_group_symop_operation_xyz
  'x, y, z'

loop_
  _atom_site_type_symbol
  _atom_site_label
  _atom_site_symmetry_multiplicity
  _atom_site_fract_x
  _atom_site_fract_y
  _atom_site_fract_z
  _atom_site_occupancy
  Cu  Cu1       1.0  0.69300  0.19300  0.50000  1.0000
  Cu  Cu2       1.0  0.30700  0.80700  0.50000  1.0000
  O   O1        1.0  0.17900  0.17900  0.00000  1.0000
  O   O2        1.0  0.82100  0.82100  0.00000  1.0000
  O   O3        1.0  0.73000  0.31400  0.04440  1.0000
  O   O4        1.0  0.55300  0.62000  0.17300  1.0000
  O   O5        1.0  0.19800  0.69200  0.21100  1.0000
  O   O6        1.0  0.52000  0.01350  0.21100  1.0000
  O   O7        1.0  0.06620  0.26500  0.33100  1.0000
  O   O8        1.0  0.65300  0.44600  0.41500  1.0000
  O   O9        1.0  0.96900  0.76200  0.41500  1.0000
  O   O10       1.0  0.63300  0.86200  0.49500  1.0000
  O   O11       1.0  0.36700  0.13800  0.50500  1.0000
  O   O12       1.0  0.03090  0.23800  0.58500  1.0000
  O   O13       1.0  0.34700  0.55400  0.58500  1.0000
  O   O14       1.0  0.93400  0.73500  0.66900  1.0000
  O   O15       1.0  0.80200  0.30800  0.78900  1.0000
  O   O16       1.0  0.48000  0.98600  0.78900  1.0000
  O   O17       1.0  0.44700  0.38000  0.82700  1.0000
  O   O18       1.0  0.27000  0.68600  0.95600  1.0000
  P   P1        1.0  0.38400  0.76000  0.14400  1.0000
  P   P2        1.0  0.20400  0.29600  0.50000  1.0000
  P   P3        1.0  0.79600  0.70400  0.50000  1.0000
  P   P4        1.0  0.61600  0.24000  0.85600  1.0000
  Zn  Zn1       1.0  0.95500  0.15500  0.11000  1.0000
  Zn  Zn2       1.0  0.48200  0.29300  0.16900  1.0000
  Zn  Zn3       1.0  0.87500  0.68600  0.16900  1.0000
  Zn  Zn4       1.0  0.12500  0.31400  0.83100  1.0000
  Zn  Zn5       1.0  0.51800  0.70700  0.83100  1.0000
  Zn  Zn6       1.0  0.04490  0.84500  0.89000  1.0000
