data_image0
_chemical_formula_structural       Mn4Nb4O18Zn4
_chemical_formula_sum              "Mn4 Nb4 O18 Zn4"
_cell_length_a       5.26917
_cell_length_b       5.26917
_cell_length_c       14.3465
_cell_angle_alpha    89.9998
_cell_angle_beta     90.0002
_cell_angle_gamma    120

_space_group_name_H-M_alt    "P 1"
_space_group_IT_number       1

loop_
  _space_group_symop_operation_xyz
  'x, y, z'

loop_
  _atom_site_type_symbol
  _atom_site_label
  _atom_site_symmetry_multiplicity
  _atom_site_fract_x
  _atom_site_fract_y
  _atom_site_fract_z
  _atom_site_occupancy
  Mn  Mn1       1.0  0.33300  0.66700  0.01910  1.0000
  Mn  Mn2       1.0  0.66700  0.33300  0.48800  1.0000
  Mn  Mn3       1.0  0.33300  0.66700  0.51900  1.0000
  Mn  Mn4       1.0  0.66700  0.33300  0.98800  1.0000
  Nb  Nb1       1.0  0.00000  0.00000  0.14400  1.0000
  Nb  Nb2       1.0  0.00000  0.00000  0.36200  1.0000
  Nb  Nb3       1.0  0.00000  0.00000  0.64400  1.0000
  Nb  Nb4       1.0  0.00000  0.00000  0.86200  1.0000
  O   O1        1.0  0.97300  0.65900  0.08820  1.0000
  O   O2        1.0  0.68600  0.02730  0.08820  1.0000
  O   O3        1.0  0.34100  0.31400  0.08820  1.0000
  O   O4        1.0  0.71200  0.71300  0.25300  1.0000
  O   O5        1.0  0.00075  0.28800  0.25300  1.0000
  O   O6        1.0  0.28700  0.99900  0.25300  1.0000
  O   O7        1.0  0.31500  0.34200  0.41700  1.0000
  O   O8        1.0  0.65800  0.97300  0.41700  1.0000
  O   O9        1.0  0.02720  0.68500  0.41700  1.0000
  O   O10       1.0  0.34100  0.02720  0.58800  1.0000
  O   O11       1.0  0.97300  0.31400  0.58800  1.0000
  O   O12       1.0  0.68600  0.65900  0.58800  1.0000
  O   O13       1.0  0.28700  0.28800  0.75300  1.0000
  O   O14       1.0  0.71200  0.99900  0.75300  1.0000
  O   O15       1.0  0.00075  0.71300  0.75300  1.0000
  O   O16       1.0  0.65800  0.68500  0.91700  1.0000
  O   O17       1.0  0.02720  0.34200  0.91700  1.0000
  O   O18       1.0  0.31500  0.97300  0.91700  1.0000
  Zn  Zn1       1.0  0.66700  0.33300  0.20800  1.0000
  Zn  Zn2       1.0  0.33300  0.66700  0.30100  1.0000
  Zn  Zn3       1.0  0.66700  0.33300  0.70800  1.0000
  Zn  Zn4       1.0  0.33300  0.66700  0.80100  1.0000
