data_image0
_chemical_formula_structural       Hg6Rb4S16Sn4
_chemical_formula_sum              "Hg6 Rb4 S16 Sn4"
_cell_length_a       10.2953
_cell_length_b       6.71341
_cell_length_c       13.7025
_cell_angle_alpha    90
_cell_angle_beta     97.5093
_cell_angle_gamma    90

_space_group_name_H-M_alt    "P 1"
_space_group_IT_number       1

loop_
  _space_group_symop_operation_xyz
  'x, y, z'

loop_
  _atom_site_type_symbol
  _atom_site_label
  _atom_site_symmetry_multiplicity
  _atom_site_fract_x
  _atom_site_fract_y
  _atom_site_fract_z
  _atom_site_occupancy
  Hg  Hg1       1.0  0.50000  0.00000  0.00000  1.0000
  Hg  Hg2       1.0  0.00155  0.79400  0.12000  1.0000
  Hg  Hg3       1.0  0.99800  0.29400  0.38000  1.0000
  Hg  Hg4       1.0  0.50000  0.50000  0.50000  1.0000
  Hg  Hg5       1.0  0.00155  0.70600  0.62000  1.0000
  Hg  Hg6       1.0  0.99800  0.20600  0.88000  1.0000
  Rb  Rb1       1.0  0.27800  0.34100  0.19100  1.0000
  Rb  Rb2       1.0  0.72200  0.84100  0.30900  1.0000
  Rb  Rb3       1.0  0.27800  0.15900  0.69100  1.0000
  Rb  Rb4       1.0  0.72200  0.65900  0.80900  1.0000
  S   S1        1.0  0.77300  0.67700  0.07610  1.0000
  S   S2        1.0  0.23500  0.80500  0.09210  1.0000
  S   S3        1.0  0.58100  0.20300  0.13700  1.0000
  S   S4        1.0  0.97000  0.18000  0.17700  1.0000
  S   S5        1.0  0.03020  0.68000  0.32300  1.0000
  S   S6        1.0  0.41900  0.70300  0.36300  1.0000
  S   S7        1.0  0.76500  0.30500  0.40800  1.0000
  S   S8        1.0  0.22700  0.17700  0.42400  1.0000
  S   S9        1.0  0.77300  0.82300  0.57600  1.0000
  S   S10       1.0  0.23500  0.69500  0.59200  1.0000
  S   S11       1.0  0.58100  0.29700  0.63700  1.0000
  S   S12       1.0  0.97000  0.32000  0.67700  1.0000
  S   S13       1.0  0.03020  0.82000  0.82300  1.0000
  S   S14       1.0  0.41900  0.79700  0.86300  1.0000
  S   S15       1.0  0.76500  0.19500  0.90800  1.0000
  S   S16       1.0  0.22700  0.32300  0.92400  1.0000
  Sn  Sn1       1.0  0.78400  0.31500  0.07640  1.0000
  Sn  Sn2       1.0  0.21600  0.81500  0.42400  1.0000
  Sn  Sn3       1.0  0.78400  0.18500  0.57600  1.0000
  Sn  Sn4       1.0  0.21600  0.68500  0.92400  1.0000
