data_image0
_chemical_formula_structural       Eu2K8P4S16
_chemical_formula_sum              "Eu2 K8 P4 S16"
_cell_length_a       8.83291
_cell_length_b       9.73197
_cell_length_c       11.2156
_cell_angle_alpha    115.713
_cell_angle_beta     113.19
_cell_angle_gamma    90

_space_group_name_H-M_alt    "P 1"
_space_group_IT_number       1

loop_
  _space_group_symop_operation_xyz
  'x, y, z'

loop_
  _atom_site_type_symbol
  _atom_site_label
  _atom_site_symmetry_multiplicity
  _atom_site_fract_x
  _atom_site_fract_y
  _atom_site_fract_z
  _atom_site_occupancy
  Eu  Eu1       1.0  0.50000  0.25000  0.00000  1.0000
  Eu  Eu2       1.0  0.50000  0.75000  0.00000  1.0000
  K   K1        1.0  0.96000  0.08260  0.16500  1.0000
  K   K2        1.0  0.20500  0.58300  0.16500  1.0000
  K   K3        1.0  0.74200  0.49200  0.48400  1.0000
  K   K4        1.0  0.74200  0.99200  0.48400  1.0000
  K   K5        1.0  0.25800  0.00794  0.51600  1.0000
  K   K6        1.0  0.25800  0.50800  0.51600  1.0000
  K   K7        1.0  0.79500  0.41700  0.83500  1.0000
  K   K8        1.0  0.04010  0.91700  0.83500  1.0000
  P   P1        1.0  0.83100  0.62800  0.25500  1.0000
  P   P2        1.0  0.42400  0.12800  0.25500  1.0000
  P   P3        1.0  0.57600  0.87200  0.74500  1.0000
  P   P4        1.0  0.16900  0.37200  0.74500  1.0000
  S   S1        1.0  0.87400  0.40800  0.15700  1.0000
  S   S2        1.0  0.87400  0.74900  0.15700  1.0000
  S   S3        1.0  0.28300  0.24900  0.15700  1.0000
  S   S4        1.0  0.28300  0.90800  0.15700  1.0000
  S   S5        1.0  0.62900  0.10400  0.20800  1.0000
  S   S6        1.0  0.57900  0.60400  0.20800  1.0000
  S   S7        1.0  0.98400  0.73800  0.47600  1.0000
  S   S8        1.0  0.49200  0.23800  0.47600  1.0000
  S   S9        1.0  0.50800  0.76200  0.52400  1.0000
  S   S10       1.0  0.01600  0.26200  0.52400  1.0000
  S   S11       1.0  0.42100  0.39600  0.79200  1.0000
  S   S12       1.0  0.37100  0.89600  0.79200  1.0000
  S   S13       1.0  0.71700  0.09210  0.84300  1.0000
  S   S14       1.0  0.71700  0.75100  0.84300  1.0000
  S   S15       1.0  0.12600  0.25100  0.84300  1.0000
  S   S16       1.0  0.12600  0.59200  0.84300  1.0000
