data_image0
_chemical_formula_structural       Ge2Hg3K2S8
_chemical_formula_sum              "Ge2 Hg3 K2 S8"
_cell_length_a       6.48442
_cell_length_b       6.48442
_cell_length_c       9.81249
_cell_angle_alpha    93.4451
_cell_angle_beta     93.4451
_cell_angle_gamma    82.5195

_space_group_name_H-M_alt    "P 1"
_space_group_IT_number       1

loop_
  _space_group_symop_operation_xyz
  'x, y, z'

loop_
  _atom_site_type_symbol
  _atom_site_label
  _atom_site_symmetry_multiplicity
  _atom_site_fract_x
  _atom_site_fract_y
  _atom_site_fract_z
  _atom_site_occupancy
  Ge  Ge1       1.0  0.89700  0.57100  0.27200  1.0000
  Ge  Ge2       1.0  0.42900  0.10300  0.72800  1.0000
  Hg  Hg1       1.0  0.52000  0.48000  0.00000  1.0000
  Hg  Hg2       1.0  0.84300  0.15700  0.50000  1.0000
  Hg  Hg3       1.0  0.36100  0.63900  0.50000  1.0000
  K   K1        1.0  0.36800  0.06480  0.22900  1.0000
  K   K2        1.0  0.93500  0.63200  0.77100  1.0000
  S   S1        1.0  0.75300  0.72200  0.07860  1.0000
  S   S2        1.0  0.84000  0.23500  0.25600  1.0000
  S   S3        1.0  0.23700  0.60400  0.25800  1.0000
  S   S4        1.0  0.77300  0.73000  0.45900  1.0000
  S   S5        1.0  0.27000  0.22700  0.54100  1.0000
  S   S6        1.0  0.39600  0.76300  0.74200  1.0000
  S   S7        1.0  0.76500  0.16000  0.74400  1.0000
  S   S8        1.0  0.27800  0.24700  0.92100  1.0000
