data_image0
_chemical_formula_structural       Ba6Li2O18Os4
_chemical_formula_sum              "Ba6 Li2 O18 Os4"
_cell_length_a       5.80307
_cell_length_b       5.80307
_cell_length_c       14.0662
_cell_angle_alpha    90
_cell_angle_beta     90
_cell_angle_gamma    120

_space_group_name_H-M_alt    "P 1"
_space_group_IT_number       1

loop_
  _space_group_symop_operation_xyz
  'x, y, z'

loop_
  _atom_site_type_symbol
  _atom_site_label
  _atom_site_symmetry_multiplicity
  _atom_site_fract_x
  _atom_site_fract_y
  _atom_site_fract_z
  _atom_site_occupancy
  Ba  Ba1       1.0  0.66700  0.33300  0.08690  1.0000
  Ba  Ba2       1.0  0.00000  0.00000  0.25000  1.0000
  Ba  Ba3       1.0  0.66700  0.33300  0.41300  1.0000
  Ba  Ba4       1.0  0.33300  0.66700  0.58700  1.0000
  Ba  Ba5       1.0  0.00000  0.00000  0.75000  1.0000
  Ba  Ba6       1.0  0.33300  0.66700  0.91300  1.0000
  Li  Li1       1.0  0.00000  0.00000  0.00000  1.0000
  Li  Li2       1.0  0.00000  0.00000  0.50000  1.0000
  O   O1        1.0  0.17500  0.35000  0.08650  1.0000
  O   O2        1.0  0.17500  0.82500  0.08650  1.0000
  O   O3        1.0  0.65000  0.82500  0.08650  1.0000
  O   O4        1.0  0.01100  0.50500  0.25000  1.0000
  O   O5        1.0  0.49500  0.50500  0.25000  1.0000
  O   O6        1.0  0.49500  0.98900  0.25000  1.0000
  O   O7        1.0  0.17500  0.35000  0.41300  1.0000
  O   O8        1.0  0.17500  0.82500  0.41300  1.0000
  O   O9        1.0  0.65000  0.82500  0.41300  1.0000
  O   O10       1.0  0.35000  0.17500  0.58700  1.0000
  O   O11       1.0  0.82500  0.17500  0.58700  1.0000
  O   O12       1.0  0.82500  0.65000  0.58700  1.0000
  O   O13       1.0  0.50500  0.01100  0.75000  1.0000
  O   O14       1.0  0.50500  0.49500  0.75000  1.0000
  O   O15       1.0  0.98900  0.49500  0.75000  1.0000
  O   O16       1.0  0.35000  0.17500  0.91300  1.0000
  O   O17       1.0  0.82500  0.17500  0.91300  1.0000
  O   O18       1.0  0.82500  0.65000  0.91300  1.0000
  Os  Os1       1.0  0.33300  0.66700  0.16000  1.0000
  Os  Os2       1.0  0.33300  0.66700  0.34000  1.0000
  Os  Os3       1.0  0.66700  0.33300  0.66000  1.0000
  Os  Os4       1.0  0.66700  0.33300  0.84000  1.0000
