data_image0
_chemical_formula_structural       C8K4N8Pd2S8
_chemical_formula_sum              "C8 K4 N8 Pd2 S8"
_cell_length_a       4.23528
_cell_length_b       12.8889
_cell_length_c       11.1428
_cell_angle_alpha    90
_cell_angle_beta     98.3089
_cell_angle_gamma    90

_space_group_name_H-M_alt    "P 1"
_space_group_IT_number       1

loop_
  _space_group_symop_operation_xyz
  'x, y, z'

loop_
  _atom_site_type_symbol
  _atom_site_label
  _atom_site_symmetry_multiplicity
  _atom_site_fract_x
  _atom_site_fract_y
  _atom_site_fract_z
  _atom_site_occupancy
  C   C1        1.0  0.76600  0.84500  0.20400  1.0000
  C   C2        1.0  0.96700  0.57500  0.22500  1.0000
  C   C3        1.0  0.03300  0.07520  0.27500  1.0000
  C   C4        1.0  0.23400  0.34500  0.29600  1.0000
  C   C5        1.0  0.76600  0.65500  0.70400  1.0000
  C   C6        1.0  0.96700  0.92500  0.72500  1.0000
  C   C7        1.0  0.03300  0.42500  0.77500  1.0000
  C   C8        1.0  0.23400  0.15500  0.79600  1.0000
  K   K1        1.0  0.72000  0.35600  0.02870  1.0000
  K   K2        1.0  0.28000  0.85600  0.47100  1.0000
  K   K3        1.0  0.72000  0.14400  0.52900  1.0000
  K   K4        1.0  0.28000  0.64400  0.97100  1.0000
  N   N1        1.0  0.80500  0.56400  0.13000  1.0000
  N   N2        1.0  0.30100  0.34600  0.19700  1.0000
  N   N3        1.0  0.69900  0.84600  0.30300  1.0000
  N   N4        1.0  0.19500  0.06420  0.37000  1.0000
  N   N5        1.0  0.80500  0.93600  0.63000  1.0000
  N   N6        1.0  0.30100  0.15400  0.69700  1.0000
  N   N7        1.0  0.69900  0.65400  0.80300  1.0000
  N   N8        1.0  0.19500  0.43600  0.87000  1.0000
  Pd  Pd1       1.0  0.00000  0.00000  0.00000  1.0000
  Pd  Pd2       1.0  0.00000  0.50000  0.50000  1.0000
  S   S1        1.0  0.85800  0.83600  0.06540  1.0000
  S   S2        1.0  0.78000  0.09480  0.15000  1.0000
  S   S3        1.0  0.22000  0.59500  0.35000  1.0000
  S   S4        1.0  0.14200  0.33600  0.43500  1.0000
  S   S5        1.0  0.85800  0.66400  0.56500  1.0000
  S   S6        1.0  0.78000  0.40500  0.65000  1.0000
  S   S7        1.0  0.22000  0.90500  0.85000  1.0000
  S   S8        1.0  0.14200  0.16400  0.93500  1.0000
