data_image0
_chemical_formula_structural       Ga24La4Ni2
_chemical_formula_sum              "Ga24 La4 Ni2"
_cell_length_a       6.09106
_cell_length_b       6.09106
_cell_length_c       15.6043
_cell_angle_alpha    90
_cell_angle_beta     90
_cell_angle_gamma    90

_space_group_name_H-M_alt    "P 1"
_space_group_IT_number       1

loop_
  _space_group_symop_operation_xyz
  'x, y, z'

loop_
  _atom_site_type_symbol
  _atom_site_label
  _atom_site_symmetry_multiplicity
  _atom_site_fract_x
  _atom_site_fract_y
  _atom_site_fract_z
  _atom_site_occupancy
  Ga  Ga1       1.0  0.00000  0.00032  0.08290  1.0000
  Ga  Ga2       1.0  0.50000  0.50000  0.08290  1.0000
  Ga  Ga3       1.0  0.00032  0.50000  0.08290  1.0000
  Ga  Ga4       1.0  0.50000  0.00000  0.08290  1.0000
  Ga  Ga5       1.0  0.25000  0.25000  0.18000  1.0000
  Ga  Ga6       1.0  0.75000  0.75000  0.18000  1.0000
  Ga  Ga7       1.0  0.25000  0.25000  0.33900  1.0000
  Ga  Ga8       1.0  0.75000  0.75000  0.33900  1.0000
  Ga  Ga9       1.0  0.56900  0.06910  0.42800  1.0000
  Ga  Ga10      1.0  0.93100  0.43100  0.42800  1.0000
  Ga  Ga11      1.0  0.43100  0.56900  0.42800  1.0000
  Ga  Ga12      1.0  0.06910  0.93100  0.42800  1.0000
  Ga  Ga13      1.0  0.93100  0.06910  0.57200  1.0000
  Ga  Ga14      1.0  0.56900  0.43100  0.57200  1.0000
  Ga  Ga15      1.0  0.06910  0.56900  0.57200  1.0000
  Ga  Ga16      1.0  0.43100  0.93100  0.57200  1.0000
  Ga  Ga17      1.0  0.25000  0.25000  0.66100  1.0000
  Ga  Ga18      1.0  0.75000  0.75000  0.66100  1.0000
  Ga  Ga19      1.0  0.25000  0.25000  0.82000  1.0000
  Ga  Ga20      1.0  0.75000  0.75000  0.82000  1.0000
  Ga  Ga21      1.0  0.50000  0.00032  0.91700  1.0000
  Ga  Ga22      1.0  0.00000  0.50000  0.91700  1.0000
  Ga  Ga23      1.0  0.50000  0.50000  0.91700  1.0000
  Ga  Ga24      1.0  0.00032  0.00000  0.91700  1.0000
  La  La1       1.0  0.75000  0.25000  0.24400  1.0000
  La  La2       1.0  0.25000  0.75000  0.24400  1.0000
  La  La3       1.0  0.75000  0.25000  0.75600  1.0000
  La  La4       1.0  0.25000  0.75000  0.75600  1.0000
  Ni  Ni1       1.0  0.75000  0.25000  0.00000  1.0000
  Ni  Ni2       1.0  0.25000  0.75000  0.00000  1.0000
