data_image0
_chemical_formula_structural       Gd6Ni16Sn8
_chemical_formula_sum              "Gd6 Ni16 Sn8"
_cell_length_a       8.9008
_cell_length_b       8.90081
_cell_length_c       7.50585
_cell_angle_alpha    90
_cell_angle_beta     90
_cell_angle_gamma    120

_space_group_name_H-M_alt    "P 1"
_space_group_IT_number       1

loop_
  _space_group_symop_operation_xyz
  'x, y, z'

loop_
  _atom_site_type_symbol
  _atom_site_label
  _atom_site_symmetry_multiplicity
  _atom_site_fract_x
  _atom_site_fract_y
  _atom_site_fract_z
  _atom_site_occupancy
  Gd  Gd1       1.0  0.05510  0.52800  0.00065  1.0000
  Gd  Gd2       1.0  0.47200  0.52800  0.00065  1.0000
  Gd  Gd3       1.0  0.47200  0.94500  0.00066  1.0000
  Gd  Gd4       1.0  0.94500  0.47200  0.50100  1.0000
  Gd  Gd5       1.0  0.52800  0.47200  0.50100  1.0000
  Gd  Gd6       1.0  0.52800  0.05510  0.50100  1.0000
  Ni  Ni1       1.0  0.79000  0.89500  0.02520  1.0000
  Ni  Ni2       1.0  0.10500  0.89500  0.02520  1.0000
  Ni  Ni3       1.0  0.10500  0.21000  0.02520  1.0000
  Ni  Ni4       1.0  0.66700  0.33300  0.19100  1.0000
  Ni  Ni5       1.0  0.00000  0.00000  0.28200  1.0000
  Ni  Ni6       1.0  0.16500  0.83500  0.33900  1.0000
  Ni  Ni7       1.0  0.67100  0.83500  0.33900  1.0000
  Ni  Ni8       1.0  0.16500  0.32900  0.33900  1.0000
  Ni  Ni9       1.0  0.21000  0.10500  0.52500  1.0000
  Ni  Ni10      1.0  0.89500  0.10500  0.52500  1.0000
  Ni  Ni11      1.0  0.89500  0.79000  0.52500  1.0000
  Ni  Ni12      1.0  0.33300  0.66700  0.69100  1.0000
  Ni  Ni13      1.0  0.00000  0.00000  0.78200  1.0000
  Ni  Ni14      1.0  0.32900  0.16500  0.83900  1.0000
  Ni  Ni15      1.0  0.83500  0.16500  0.83900  1.0000
  Ni  Ni16      1.0  0.83500  0.67100  0.83900  1.0000
  Sn  Sn1       1.0  0.83300  0.66600  0.20500  1.0000
  Sn  Sn2       1.0  0.33400  0.16700  0.20500  1.0000
  Sn  Sn3       1.0  0.83300  0.16700  0.20500  1.0000
  Sn  Sn4       1.0  0.33300  0.66700  0.31900  1.0000
  Sn  Sn5       1.0  0.16700  0.83300  0.70500  1.0000
  Sn  Sn6       1.0  0.16700  0.33400  0.70500  1.0000
  Sn  Sn7       1.0  0.66600  0.83300  0.70500  1.0000
  Sn  Sn8       1.0  0.66700  0.33300  0.81900  1.0000
