data_image0
_chemical_formula_structural       Cl24Re4S2
_chemical_formula_sum              "Cl24 Re4 S2"
_cell_length_a       8.37938
_cell_length_b       10.6591
_cell_length_c       8.72493
_cell_angle_alpha    90
_cell_angle_beta     92.4594
_cell_angle_gamma    90

_space_group_name_H-M_alt    "P 1"
_space_group_IT_number       1

loop_
  _space_group_symop_operation_xyz
  'x, y, z'

loop_
  _atom_site_type_symbol
  _atom_site_label
  _atom_site_symmetry_multiplicity
  _atom_site_fract_x
  _atom_site_fract_y
  _atom_site_fract_z
  _atom_site_occupancy
  Cl  Cl1       1.0  0.17200  0.10100  0.08220  1.0000
  Cl  Cl2       1.0  0.17200  0.39900  0.08220  1.0000
  Cl  Cl3       1.0  0.19600  0.75000  0.11500  1.0000
  Cl  Cl4       1.0  0.59500  0.75000  0.12400  1.0000
  Cl  Cl5       1.0  0.61400  0.09530  0.20600  1.0000
  Cl  Cl6       1.0  0.61400  0.40500  0.20600  1.0000
  Cl  Cl7       1.0  0.94800  0.59600  0.32700  1.0000
  Cl  Cl8       1.0  0.94800  0.90400  0.32700  1.0000
  Cl  Cl9       1.0  0.92400  0.25000  0.36000  1.0000
  Cl  Cl10      1.0  0.33600  0.58800  0.41500  1.0000
  Cl  Cl11      1.0  0.33600  0.91200  0.41500  1.0000
  Cl  Cl12      1.0  0.36700  0.25000  0.42500  1.0000
  Cl  Cl13      1.0  0.63300  0.75000  0.57500  1.0000
  Cl  Cl14      1.0  0.66400  0.08790  0.58500  1.0000
  Cl  Cl15      1.0  0.66400  0.41200  0.58500  1.0000
  Cl  Cl16      1.0  0.07560  0.75000  0.64000  1.0000
  Cl  Cl17      1.0  0.05240  0.09560  0.67300  1.0000
  Cl  Cl18      1.0  0.05240  0.40400  0.67300  1.0000
  Cl  Cl19      1.0  0.38600  0.59500  0.79400  1.0000
  Cl  Cl20      1.0  0.38600  0.90500  0.79400  1.0000
  Cl  Cl21      1.0  0.40500  0.25000  0.87600  1.0000
  Cl  Cl22      1.0  0.80400  0.25000  0.88500  1.0000
  Cl  Cl23      1.0  0.82800  0.60100  0.91800  1.0000
  Cl  Cl24      1.0  0.82800  0.89900  0.91800  1.0000
  Re  Re1       1.0  0.14000  0.75000  0.37500  1.0000
  Re  Re2       1.0  0.63600  0.25000  0.38900  1.0000
  Re  Re3       1.0  0.36400  0.75000  0.61100  1.0000
  Re  Re4       1.0  0.86000  0.25000  0.62500  1.0000
  S   S1        1.0  0.82400  0.75000  0.06350  1.0000
  S   S2        1.0  0.17600  0.25000  0.93700  1.0000
