data_image0
_chemical_formula_structural       Ce4Ga24Pd2
_chemical_formula_sum              "Ce4 Ga24 Pd2"
_cell_length_a       6.15788
_cell_length_b       6.15788
_cell_length_c       15.6457
_cell_angle_alpha    90
_cell_angle_beta     90
_cell_angle_gamma    90

_space_group_name_H-M_alt    "P 1"
_space_group_IT_number       1

loop_
  _space_group_symop_operation_xyz
  'x, y, z'

loop_
  _atom_site_type_symbol
  _atom_site_label
  _atom_site_symmetry_multiplicity
  _atom_site_fract_x
  _atom_site_fract_y
  _atom_site_fract_z
  _atom_site_occupancy
  Ce  Ce1       1.0  0.75000  0.25000  0.24700  1.0000
  Ce  Ce2       1.0  0.25000  0.75000  0.24700  1.0000
  Ce  Ce3       1.0  0.75000  0.25000  0.75300  1.0000
  Ce  Ce4       1.0  0.25000  0.75000  0.75300  1.0000
  Ga  Ga1       1.0  0.00000  0.00027  0.08790  1.0000
  Ga  Ga2       1.0  0.50000  0.50000  0.08790  1.0000
  Ga  Ga3       1.0  0.00027  0.50000  0.08790  1.0000
  Ga  Ga4       1.0  0.50000  0.00000  0.08790  1.0000
  Ga  Ga5       1.0  0.25000  0.25000  0.18400  1.0000
  Ga  Ga6       1.0  0.75000  0.75000  0.18400  1.0000
  Ga  Ga7       1.0  0.25000  0.25000  0.34200  1.0000
  Ga  Ga8       1.0  0.75000  0.75000  0.34200  1.0000
  Ga  Ga9       1.0  0.57300  0.07320  0.42900  1.0000
  Ga  Ga10      1.0  0.92700  0.42700  0.42900  1.0000
  Ga  Ga11      1.0  0.42700  0.57300  0.42900  1.0000
  Ga  Ga12      1.0  0.07320  0.92700  0.42900  1.0000
  Ga  Ga13      1.0  0.92700  0.07320  0.57100  1.0000
  Ga  Ga14      1.0  0.57300  0.42700  0.57100  1.0000
  Ga  Ga15      1.0  0.07320  0.57300  0.57100  1.0000
  Ga  Ga16      1.0  0.42700  0.92700  0.57100  1.0000
  Ga  Ga17      1.0  0.25000  0.25000  0.65800  1.0000
  Ga  Ga18      1.0  0.75000  0.75000  0.65800  1.0000
  Ga  Ga19      1.0  0.25000  0.25000  0.81600  1.0000
  Ga  Ga20      1.0  0.75000  0.75000  0.81600  1.0000
  Ga  Ga21      1.0  0.50000  0.00027  0.91200  1.0000
  Ga  Ga22      1.0  0.00000  0.50000  0.91200  1.0000
  Ga  Ga23      1.0  0.50000  0.50000  0.91200  1.0000
  Ga  Ga24      1.0  0.00027  0.00000  0.91200  1.0000
  Pd  Pd1       1.0  0.75000  0.25000  0.00000  1.0000
  Pd  Pd2       1.0  0.25000  0.75000  0.00000  1.0000
