data_image0
_chemical_formula_structural       P12Rh14Sr4
_chemical_formula_sum              "P12 Rh14 Sr4"
_cell_length_a       11.2004
_cell_length_b       11.2004
_cell_length_c       4.1344
_cell_angle_alpha    90
_cell_angle_beta     90
_cell_angle_gamma    90

_space_group_name_H-M_alt    "P 1"
_space_group_IT_number       1

loop_
  _space_group_symop_operation_xyz
  'x, y, z'

loop_
  _atom_site_type_symbol
  _atom_site_label
  _atom_site_symmetry_multiplicity
  _atom_site_fract_x
  _atom_site_fract_y
  _atom_site_fract_z
  _atom_site_occupancy
  P   P1        1.0  0.92800  0.42800  0.23400  1.0000
  P   P2        1.0  0.07240  0.57200  0.23400  1.0000
  P   P3        1.0  0.14200  0.11100  0.27600  1.0000
  P   P4        1.0  0.38900  0.35800  0.27600  1.0000
  P   P5        1.0  0.61100  0.64200  0.27600  1.0000
  P   P6        1.0  0.85800  0.88900  0.27600  1.0000
  P   P7        1.0  0.88900  0.14200  0.72400  1.0000
  P   P8        1.0  0.64200  0.38900  0.72400  1.0000
  P   P9        1.0  0.35800  0.61100  0.72400  1.0000
  P   P10       1.0  0.11100  0.85800  0.72400  1.0000
  P   P11       1.0  0.42800  0.07240  0.76600  1.0000
  P   P12       1.0  0.57200  0.92800  0.76600  1.0000
  Rh  Rh1       1.0  0.00000  0.00000  0.00000  1.0000
  Rh  Rh2       1.0  0.50000  0.50000  0.00000  1.0000
  Rh  Rh3       1.0  0.96300  0.22300  0.24400  1.0000
  Rh  Rh4       1.0  0.72300  0.46300  0.24400  1.0000
  Rh  Rh5       1.0  0.27700  0.53700  0.24400  1.0000
  Rh  Rh6       1.0  0.03710  0.77700  0.24400  1.0000
  Rh  Rh7       1.0  0.34700  0.15300  0.26400  1.0000
  Rh  Rh8       1.0  0.65300  0.84700  0.26400  1.0000
  Rh  Rh9       1.0  0.84700  0.34700  0.73600  1.0000
  Rh  Rh10      1.0  0.15300  0.65300  0.73600  1.0000
  Rh  Rh11      1.0  0.22300  0.03710  0.75600  1.0000
  Rh  Rh12      1.0  0.46300  0.27700  0.75600  1.0000
  Rh  Rh13      1.0  0.53700  0.72300  0.75600  1.0000
  Rh  Rh14      1.0  0.77700  0.96300  0.75600  1.0000
  Sr  Sr1       1.0  0.66200  0.16200  0.24900  1.0000
  Sr  Sr2       1.0  0.33800  0.83800  0.24900  1.0000
  Sr  Sr3       1.0  0.16200  0.33800  0.75100  1.0000
  Sr  Sr4       1.0  0.83800  0.66200  0.75100  1.0000
