data_image0
_chemical_formula_structural       FNa5O16Si4Y4
_chemical_formula_sum              "F1 Na5 O16 Si4 Y4"
_cell_length_a       5.39246
_cell_length_b       8.59378
_cell_length_c       8.59378
_cell_angle_alpha    95.649
_cell_angle_beta     71.7151
_cell_angle_gamma    108.285

_space_group_name_H-M_alt    "P 1"
_space_group_IT_number       1

loop_
  _space_group_symop_operation_xyz
  'x, y, z'

loop_
  _atom_site_type_symbol
  _atom_site_label
  _atom_site_symmetry_multiplicity
  _atom_site_fract_x
  _atom_site_fract_y
  _atom_site_fract_z
  _atom_site_occupancy
  F   F1        1.0  0.00000  0.00000  0.00000  1.0000
  Na  Na1       1.0  0.50000  0.00000  0.00000  1.0000
  Na  Na2       1.0  0.09810  0.48500  0.30600  1.0000
  Na  Na3       1.0  0.59500  0.69400  0.48500  1.0000
  Na  Na4       1.0  0.38700  0.30600  0.51500  1.0000
  Na  Na5       1.0  0.92000  0.51500  0.69400  1.0000
  O   O1        1.0  0.32900  0.56100  0.03410  1.0000
  O   O2        1.0  0.31300  0.23400  0.13800  1.0000
  O   O3        1.0  0.79000  0.23900  0.17400  1.0000
  O   O4        1.0  0.54900  0.86200  0.23400  1.0000
  O   O5        1.0  0.03550  0.82600  0.23900  1.0000
  O   O6        1.0  0.59200  0.49800  0.28000  1.0000
  O   O7        1.0  0.23200  0.03410  0.43900  1.0000
  O   O8        1.0  0.12700  0.72000  0.49800  1.0000
  O   O9        1.0  0.90500  0.28000  0.50200  1.0000
  O   O10       1.0  0.63700  0.96600  0.56100  1.0000
  O   O11       1.0  0.37500  0.50200  0.72000  1.0000
  O   O12       1.0  0.44900  0.17400  0.76100  1.0000
  O   O13       1.0  0.92100  0.13800  0.76600  1.0000
  O   O14       1.0  0.72500  0.76100  0.82600  1.0000
  O   O15       1.0  0.21700  0.76600  0.86200  1.0000
  O   O16       1.0  0.80200  0.43900  0.96600  1.0000
  Si  Si1       1.0  0.61300  0.35100  0.14400  1.0000
  Si  Si2       1.0  0.24200  0.85600  0.35100  1.0000
  Si  Si3       1.0  0.73800  0.14400  0.64900  1.0000
  Si  Si4       1.0  0.40700  0.64900  0.85600  1.0000
  Y   Y1        1.0  0.79400  0.70200  0.06640  1.0000
  Y   Y2        1.0  0.90800  0.06640  0.29800  1.0000
  Y   Y3        1.0  0.14000  0.93400  0.70200  1.0000
  Y   Y4        1.0  0.15800  0.29800  0.93400  1.0000
