data_image0
_chemical_formula_structural       Cu6I6Se18
_chemical_formula_sum              "Cu6 I6 Se18"
_cell_length_a       9.5274
_cell_length_b       9.5274
_cell_length_c       9.5274
_cell_angle_alpha    96.2489
_cell_angle_beta     96.2489
_cell_angle_gamma    96.2489

_space_group_name_H-M_alt    "P 1"
_space_group_IT_number       1

loop_
  _space_group_symop_operation_xyz
  'x, y, z'

loop_
  _atom_site_type_symbol
  _atom_site_label
  _atom_site_symmetry_multiplicity
  _atom_site_fract_x
  _atom_site_fract_y
  _atom_site_fract_z
  _atom_site_occupancy
  Cu  Cu1       1.0  0.60700  0.11200  0.11200  1.0000
  Cu  Cu2       1.0  0.11200  0.60700  0.11200  1.0000
  Cu  Cu3       1.0  0.88800  0.88800  0.39300  1.0000
  Cu  Cu4       1.0  0.11200  0.11200  0.60700  1.0000
  Cu  Cu5       1.0  0.88800  0.39300  0.88800  1.0000
  Cu  Cu6       1.0  0.39300  0.88800  0.88800  1.0000
  I   I1        1.0  0.85000  0.50000  0.15000  1.0000
  I   I2        1.0  0.50000  0.85000  0.15000  1.0000
  I   I3        1.0  0.85000  0.15000  0.50000  1.0000
  I   I4        1.0  0.15000  0.85000  0.50000  1.0000
  I   I5        1.0  0.50000  0.15000  0.85000  1.0000
  I   I6        1.0  0.15000  0.50000  0.85000  1.0000
  Se  Se1       1.0  0.86400  0.12700  0.12700  1.0000
  Se  Se2       1.0  0.12700  0.86400  0.12700  1.0000
  Se  Se3       1.0  0.39200  0.39200  0.12800  1.0000
  Se  Se4       1.0  0.87300  0.87300  0.13600  1.0000
  Se  Se5       1.0  0.55100  0.29100  0.29100  1.0000
  Se  Se6       1.0  0.29100  0.55100  0.29100  1.0000
  Se  Se7       1.0  0.39200  0.12800  0.39200  1.0000
  Se  Se8       1.0  0.12800  0.39200  0.39200  1.0000
  Se  Se9       1.0  0.70900  0.70900  0.44900  1.0000
  Se  Se10      1.0  0.29100  0.29100  0.55100  1.0000
  Se  Se11      1.0  0.87200  0.60800  0.60800  1.0000
  Se  Se12      1.0  0.60800  0.87200  0.60800  1.0000
  Se  Se13      1.0  0.70900  0.44900  0.70900  1.0000
  Se  Se14      1.0  0.44900  0.70900  0.70900  1.0000
  Se  Se15      1.0  0.12700  0.12700  0.86400  1.0000
  Se  Se16      1.0  0.60800  0.60800  0.87200  1.0000
  Se  Se17      1.0  0.87300  0.13600  0.87300  1.0000
  Se  Se18      1.0  0.13600  0.87300  0.87300  1.0000
