data_image0
_chemical_formula_structural       Au12K8S10
_chemical_formula_sum              "Au12 K8 S10"
_cell_length_a       9.78919
_cell_length_b       9.78919
_cell_length_c       10.0593
_cell_angle_alpha    90
_cell_angle_beta     90
_cell_angle_gamma    120.001

_space_group_name_H-M_alt    "P 1"
_space_group_IT_number       1

loop_
  _space_group_symop_operation_xyz
  'x, y, z'

loop_
  _atom_site_type_symbol
  _atom_site_label
  _atom_site_symmetry_multiplicity
  _atom_site_fract_x
  _atom_site_fract_y
  _atom_site_fract_z
  _atom_site_occupancy
  Au  Au1       1.0  0.16600  0.44900  0.08660  1.0000
  Au  Au2       1.0  0.28300  0.83400  0.08660  1.0000
  Au  Au3       1.0  0.55100  0.71700  0.08660  1.0000
  Au  Au4       1.0  0.55100  0.71700  0.41300  1.0000
  Au  Au5       1.0  0.28300  0.83400  0.41300  1.0000
  Au  Au6       1.0  0.16600  0.44900  0.41300  1.0000
  Au  Au7       1.0  0.44900  0.16600  0.58700  1.0000
  Au  Au8       1.0  0.83400  0.28300  0.58700  1.0000
  Au  Au9       1.0  0.71700  0.55100  0.58700  1.0000
  Au  Au10      1.0  0.71700  0.55100  0.91300  1.0000
  Au  Au11      1.0  0.44900  0.16600  0.91300  1.0000
  Au  Au12      1.0  0.83400  0.28300  0.91300  1.0000
  K   K1        1.0  0.00000  0.00000  0.00000  1.0000
  K   K2        1.0  0.65300  0.06960  0.25000  1.0000
  K   K3        1.0  0.41600  0.34700  0.25000  1.0000
  K   K4        1.0  0.93000  0.58400  0.25000  1.0000
  K   K5        1.0  0.00000  0.00000  0.50000  1.0000
  K   K6        1.0  0.34700  0.41600  0.75000  1.0000
  K   K7        1.0  0.06960  0.65300  0.75000  1.0000
  K   K8        1.0  0.58400  0.93000  0.75000  1.0000
  S   S1        1.0  0.66700  0.33300  0.04860  1.0000
  S   S2        1.0  0.03360  0.25900  0.25000  1.0000
  S   S3        1.0  0.74100  0.77500  0.25000  1.0000
  S   S4        1.0  0.22500  0.96600  0.25000  1.0000
  S   S5        1.0  0.66700  0.33300  0.45100  1.0000
  S   S6        1.0  0.33300  0.66700  0.54900  1.0000
  S   S7        1.0  0.25900  0.03360  0.75000  1.0000
  S   S8        1.0  0.96600  0.22500  0.75000  1.0000
  S   S9        1.0  0.77500  0.74100  0.75000  1.0000
  S   S10       1.0  0.33300  0.66700  0.95100  1.0000
