data_image0
_chemical_formula_structural       Ga24Nd4Ni2
_chemical_formula_sum              "Ga24 Nd4 Ni2"
_cell_length_a       6.04258
_cell_length_b       6.04258
_cell_length_c       15.5238
_cell_angle_alpha    90
_cell_angle_beta     90
_cell_angle_gamma    90

_space_group_name_H-M_alt    "P 1"
_space_group_IT_number       1

loop_
  _space_group_symop_operation_xyz
  'x, y, z'

loop_
  _atom_site_type_symbol
  _atom_site_label
  _atom_site_symmetry_multiplicity
  _atom_site_fract_x
  _atom_site_fract_y
  _atom_site_fract_z
  _atom_site_occupancy
  Ga  Ga1       1.0  0.00000  0.00032  0.08380  1.0000
  Ga  Ga2       1.0  0.50000  0.50000  0.08380  1.0000
  Ga  Ga3       1.0  0.00032  0.50000  0.08380  1.0000
  Ga  Ga4       1.0  0.50000  0.00000  0.08380  1.0000
  Ga  Ga5       1.0  0.25000  0.25000  0.18200  1.0000
  Ga  Ga6       1.0  0.75000  0.75000  0.18200  1.0000
  Ga  Ga7       1.0  0.25000  0.25000  0.34000  1.0000
  Ga  Ga8       1.0  0.75000  0.75000  0.34000  1.0000
  Ga  Ga9       1.0  0.57400  0.07370  0.42800  1.0000
  Ga  Ga10      1.0  0.92600  0.42600  0.42800  1.0000
  Ga  Ga11      1.0  0.42600  0.57400  0.42800  1.0000
  Ga  Ga12      1.0  0.07370  0.92600  0.42800  1.0000
  Ga  Ga13      1.0  0.92600  0.07370  0.57200  1.0000
  Ga  Ga14      1.0  0.57400  0.42600  0.57200  1.0000
  Ga  Ga15      1.0  0.07370  0.57400  0.57200  1.0000
  Ga  Ga16      1.0  0.42600  0.92600  0.57200  1.0000
  Ga  Ga17      1.0  0.25000  0.25000  0.66000  1.0000
  Ga  Ga18      1.0  0.75000  0.75000  0.66000  1.0000
  Ga  Ga19      1.0  0.25000  0.25000  0.81800  1.0000
  Ga  Ga20      1.0  0.75000  0.75000  0.81800  1.0000
  Ga  Ga21      1.0  0.50000  0.00032  0.91600  1.0000
  Ga  Ga22      1.0  0.00000  0.50000  0.91600  1.0000
  Ga  Ga23      1.0  0.50000  0.50000  0.91600  1.0000
  Ga  Ga24      1.0  0.00032  0.00000  0.91600  1.0000
  Nd  Nd1       1.0  0.75000  0.25000  0.24400  1.0000
  Nd  Nd2       1.0  0.25000  0.75000  0.24400  1.0000
  Nd  Nd3       1.0  0.75000  0.25000  0.75600  1.0000
  Nd  Nd4       1.0  0.25000  0.75000  0.75600  1.0000
  Ni  Ni1       1.0  0.75000  0.25000  0.00000  1.0000
  Ni  Ni2       1.0  0.25000  0.75000  0.00000  1.0000
