data_image0
_chemical_formula_structural       P6Rb6Se18
_chemical_formula_sum              "P6 Rb6 Se18"
_cell_length_a       7.55068
_cell_length_b       7.55068
_cell_length_c       19.5962
_cell_angle_alpha    90
_cell_angle_beta     90
_cell_angle_gamma    120

_space_group_name_H-M_alt    "P 1"
_space_group_IT_number       1

loop_
  _space_group_symop_operation_xyz
  'x, y, z'

loop_
  _atom_site_type_symbol
  _atom_site_label
  _atom_site_symmetry_multiplicity
  _atom_site_fract_x
  _atom_site_fract_y
  _atom_site_fract_z
  _atom_site_occupancy
  P   P1        1.0  0.10400  0.02890  0.05250  1.0000
  P   P2        1.0  0.89600  0.92500  0.28100  1.0000
  P   P3        1.0  0.97100  0.07550  0.38600  1.0000
  P   P4        1.0  0.07550  0.97100  0.61400  1.0000
  P   P5        1.0  0.92500  0.89600  0.71900  1.0000
  P   P6        1.0  0.02890  0.10400  0.94700  1.0000
  Rb  Rb1       1.0  0.41900  0.68600  0.08460  1.0000
  Rb  Rb2       1.0  0.58100  0.26700  0.24900  1.0000
  Rb  Rb3       1.0  0.31400  0.73300  0.41800  1.0000
  Rb  Rb4       1.0  0.73300  0.31400  0.58200  1.0000
  Rb  Rb5       1.0  0.26700  0.58100  0.75100  1.0000
  Rb  Rb6       1.0  0.68600  0.41900  0.91500  1.0000
  Se  Se1       1.0  0.95900  0.70100  0.05880  1.0000
  Se  Se2       1.0  0.42700  0.20700  0.07510  1.0000
  Se  Se3       1.0  0.91700  0.15900  0.11300  1.0000
  Se  Se4       1.0  0.08260  0.24100  0.22000  1.0000
  Se  Se5       1.0  0.57300  0.78000  0.25800  1.0000
  Se  Se6       1.0  0.04080  0.74100  0.27500  1.0000
  Se  Se7       1.0  0.29900  0.25900  0.39200  1.0000
  Se  Se8       1.0  0.79300  0.22000  0.40800  1.0000
  Se  Se9       1.0  0.84100  0.75900  0.44700  1.0000
  Se  Se10      1.0  0.75900  0.84100  0.55300  1.0000
  Se  Se11      1.0  0.22000  0.79300  0.59200  1.0000
  Se  Se12      1.0  0.25900  0.29900  0.60800  1.0000
  Se  Se13      1.0  0.74100  0.04080  0.72500  1.0000
  Se  Se14      1.0  0.78000  0.57300  0.74200  1.0000
  Se  Se15      1.0  0.24100  0.08260  0.78000  1.0000
  Se  Se16      1.0  0.15900  0.91700  0.88700  1.0000
  Se  Se17      1.0  0.20700  0.42700  0.92500  1.0000
  Se  Se18      1.0  0.70100  0.95900  0.94100  1.0000
