data_image0
_chemical_formula_structural       Ge12Tm8Zn10
_chemical_formula_sum              "Ge12 Tm8 Zn10"
_cell_length_a       4.21148
_cell_length_b       9.44932
_cell_length_c       15.1728
_cell_angle_alpha    90
_cell_angle_beta     90
_cell_angle_gamma    77.1238

_space_group_name_H-M_alt    "P 1"
_space_group_IT_number       1

loop_
  _space_group_symop_operation_xyz
  'x, y, z'

loop_
  _atom_site_type_symbol
  _atom_site_label
  _atom_site_symmetry_multiplicity
  _atom_site_fract_x
  _atom_site_fract_y
  _atom_site_fract_z
  _atom_site_occupancy
  Ge  Ge1       1.0  0.88800  0.22400  0.11600  1.0000
  Ge  Ge2       1.0  0.56600  0.86800  0.12900  1.0000
  Ge  Ge3       1.0  0.22900  0.54200  0.26600  1.0000
  Ge  Ge4       1.0  0.44000  0.12000  0.35500  1.0000
  Ge  Ge5       1.0  0.56900  0.86100  0.40900  1.0000
  Ge  Ge6       1.0  0.77600  0.44800  0.48500  1.0000
  Ge  Ge7       1.0  0.11200  0.77600  0.61600  1.0000
  Ge  Ge8       1.0  0.43400  0.13200  0.62900  1.0000
  Ge  Ge9       1.0  0.77100  0.45800  0.76600  1.0000
  Ge  Ge10      1.0  0.56000  0.88000  0.85500  1.0000
  Ge  Ge11      1.0  0.43100  0.13900  0.90900  1.0000
  Ge  Ge12      1.0  0.22400  0.55200  0.98500  1.0000
  Tm  Tm1       1.0  0.03260  0.93500  0.26400  1.0000
  Tm  Tm2       1.0  0.83300  0.33400  0.30300  1.0000
  Tm  Tm3       1.0  0.17500  0.65000  0.44400  1.0000
  Tm  Tm4       1.0  0.98200  0.03660  0.49900  1.0000
  Tm  Tm5       1.0  0.96700  0.06510  0.76400  1.0000
  Tm  Tm6       1.0  0.16700  0.66600  0.80300  1.0000
  Tm  Tm7       1.0  0.82500  0.35000  0.94400  1.0000
  Tm  Tm8       1.0  0.01830  0.96300  0.99900  1.0000
  Zn  Zn1       1.0  0.30100  0.39800  0.12400  1.0000
  Zn  Zn2       1.0  0.15100  0.69800  0.12700  1.0000
  Zn  Zn3       1.0  0.43500  0.13100  0.18600  1.0000
  Zn  Zn4       1.0  0.65500  0.68900  0.27400  1.0000
  Zn  Zn5       1.0  0.34900  0.30100  0.48100  1.0000
  Zn  Zn6       1.0  0.69900  0.60200  0.62400  1.0000
  Zn  Zn7       1.0  0.84900  0.30200  0.62700  1.0000
  Zn  Zn8       1.0  0.56500  0.86900  0.68600  1.0000
  Zn  Zn9       1.0  0.34500  0.31100  0.77400  1.0000
  Zn  Zn10      1.0  0.65100  0.69900  0.98100  1.0000
