data_image0
_chemical_formula_structural       Cu2O20P4Ti4
_chemical_formula_sum              "Cu2 O20 P4 Ti4"
_cell_length_a       7.56729
_cell_length_b       7.05191
_cell_length_c       7.37252
_cell_angle_alpha    90
_cell_angle_beta     121.814
_cell_angle_gamma    90

_space_group_name_H-M_alt    "P 1"
_space_group_IT_number       1

loop_
  _space_group_symop_operation_xyz
  'x, y, z'

loop_
  _atom_site_type_symbol
  _atom_site_label
  _atom_site_symmetry_multiplicity
  _atom_site_fract_x
  _atom_site_fract_y
  _atom_site_fract_z
  _atom_site_occupancy
  Cu  Cu1       1.0  0.00000  0.00000  0.00000  1.0000
  Cu  Cu2       1.0  0.00000  0.50000  0.50000  1.0000
  O   O1        1.0  0.24100  0.47500  0.06430  1.0000
  O   O2        1.0  0.74600  0.99800  0.08540  1.0000
  O   O3        1.0  0.55900  0.73300  0.14900  1.0000
  O   O4        1.0  0.05730  0.23400  0.16400  1.0000
  O   O5        1.0  0.22700  0.84100  0.21800  1.0000
  O   O6        1.0  0.77300  0.34100  0.28200  1.0000
  O   O7        1.0  0.94300  0.73400  0.33600  1.0000
  O   O8        1.0  0.44100  0.23300  0.35100  1.0000
  O   O9        1.0  0.25400  0.49800  0.41500  1.0000
  O   O10       1.0  0.75900  0.97500  0.43600  1.0000
  O   O11       1.0  0.24100  0.02520  0.56400  1.0000
  O   O12       1.0  0.74600  0.50200  0.58500  1.0000
  O   O13       1.0  0.55900  0.76700  0.64900  1.0000
  O   O14       1.0  0.05730  0.26600  0.66400  1.0000
  O   O15       1.0  0.22700  0.65900  0.71800  1.0000
  O   O16       1.0  0.77300  0.15900  0.78200  1.0000
  O   O17       1.0  0.94300  0.76600  0.83600  1.0000
  O   O18       1.0  0.44100  0.26700  0.85100  1.0000
  O   O19       1.0  0.25400  0.00246  0.91500  1.0000
  O   O20       1.0  0.75900  0.52500  0.93600  1.0000
  P   P1        1.0  0.25100  0.36400  0.24900  1.0000
  P   P2        1.0  0.74900  0.86400  0.25100  1.0000
  P   P3        1.0  0.25100  0.13600  0.74900  1.0000
  P   P4        1.0  0.74900  0.63600  0.75100  1.0000
  Ti  Ti1       1.0  0.73600  0.27800  0.02800  1.0000
  Ti  Ti2       1.0  0.26400  0.77800  0.47200  1.0000
  Ti  Ti3       1.0  0.73600  0.22200  0.52800  1.0000
  Ti  Ti4       1.0  0.26400  0.72200  0.97200  1.0000
