data_image0
_chemical_formula_structural       Ba6Er2O18Ru4
_chemical_formula_sum              "Ba6 Er2 O18 Ru4"
_cell_length_a       5.87845
_cell_length_b       5.87852
_cell_length_c       14.4037
_cell_angle_alpha    90
_cell_angle_beta     90
_cell_angle_gamma    120

_space_group_name_H-M_alt    "P 1"
_space_group_IT_number       1

loop_
  _space_group_symop_operation_xyz
  'x, y, z'

loop_
  _atom_site_type_symbol
  _atom_site_label
  _atom_site_symmetry_multiplicity
  _atom_site_fract_x
  _atom_site_fract_y
  _atom_site_fract_z
  _atom_site_occupancy
  Ba  Ba1       1.0  0.66700  0.33300  0.09340  1.0000
  Ba  Ba2       1.0  0.00000  0.00000  0.25000  1.0000
  Ba  Ba3       1.0  0.66700  0.33300  0.40700  1.0000
  Ba  Ba4       1.0  0.33300  0.66700  0.59300  1.0000
  Ba  Ba5       1.0  0.00000  0.00000  0.75000  1.0000
  Ba  Ba6       1.0  0.33300  0.66700  0.90700  1.0000
  Er  Er1       1.0  0.00000  0.00000  0.00000  1.0000
  Er  Er2       1.0  0.00000  0.00000  0.50000  1.0000
  O   O1        1.0  0.17500  0.35000  0.08710  1.0000
  O   O2        1.0  0.17500  0.82500  0.08710  1.0000
  O   O3        1.0  0.65000  0.82500  0.08710  1.0000
  O   O4        1.0  0.01500  0.50800  0.25000  1.0000
  O   O5        1.0  0.49200  0.50800  0.25000  1.0000
  O   O6        1.0  0.49200  0.98500  0.25000  1.0000
  O   O7        1.0  0.17500  0.35000  0.41300  1.0000
  O   O8        1.0  0.17500  0.82500  0.41300  1.0000
  O   O9        1.0  0.65000  0.82500  0.41300  1.0000
  O   O10       1.0  0.82500  0.65000  0.58700  1.0000
  O   O11       1.0  0.35000  0.17500  0.58700  1.0000
  O   O12       1.0  0.82500  0.17500  0.58700  1.0000
  O   O13       1.0  0.50800  0.01510  0.75000  1.0000
  O   O14       1.0  0.50800  0.49200  0.75000  1.0000
  O   O15       1.0  0.98500  0.49200  0.75000  1.0000
  O   O16       1.0  0.35000  0.17500  0.91300  1.0000
  O   O17       1.0  0.82500  0.17500  0.91300  1.0000
  O   O18       1.0  0.82500  0.65000  0.91300  1.0000
  Ru  Ru1       1.0  0.33300  0.66700  0.16400  1.0000
  Ru  Ru2       1.0  0.33300  0.66700  0.33600  1.0000
  Ru  Ru3       1.0  0.66700  0.33300  0.66400  1.0000
  Ru  Ru4       1.0  0.66700  0.33300  0.83600  1.0000
