data_image0
_chemical_formula_structural       FK5La4O16Si4
_chemical_formula_sum              "F1 K5 La4 O16 Si4"
_cell_length_a       5.50683
_cell_length_b       9.22688
_cell_length_c       9.22688
_cell_angle_alpha    95.1089
_cell_angle_beta     72.6377
_cell_angle_gamma    107.362

_space_group_name_H-M_alt    "P 1"
_space_group_IT_number       1

loop_
  _space_group_symop_operation_xyz
  'x, y, z'

loop_
  _atom_site_type_symbol
  _atom_site_label
  _atom_site_symmetry_multiplicity
  _atom_site_fract_x
  _atom_site_fract_y
  _atom_site_fract_z
  _atom_site_occupancy
  F   F1        1.0  0.00000  0.00000  0.00000  1.0000
  K   K1        1.0  0.50000  0.00000  0.00000  1.0000
  K   K2        1.0  0.09180  0.49000  0.30600  1.0000
  K   K3        1.0  0.60200  0.69400  0.49000  1.0000
  K   K4        1.0  0.39800  0.30600  0.51000  1.0000
  K   K5        1.0  0.90800  0.51000  0.69400  1.0000
  La  La1       1.0  0.80400  0.69700  0.06720  1.0000
  La  La2       1.0  0.89200  0.06720  0.30300  1.0000
  La  La3       1.0  0.12800  0.93300  0.69700  1.0000
  La  La4       1.0  0.17500  0.30300  0.93300  1.0000
  O   O1        1.0  0.30600  0.57600  0.02820  1.0000
  O   O2        1.0  0.30400  0.24700  0.15300  1.0000
  O   O3        1.0  0.78300  0.24100  0.16700  1.0000
  O   O4        1.0  0.05010  0.83300  0.24100  1.0000
  O   O5        1.0  0.54300  0.84700  0.24700  1.0000
  O   O6        1.0  0.61400  0.49200  0.26300  1.0000
  O   O7        1.0  0.26900  0.02820  0.42400  1.0000
  O   O8        1.0  0.12300  0.73700  0.49200  1.0000
  O   O9        1.0  0.87800  0.26300  0.50800  1.0000
  O   O10       1.0  0.66500  0.97200  0.57600  1.0000
  O   O11       1.0  0.38400  0.50800  0.73700  1.0000
  O   O12       1.0  0.94300  0.15300  0.75300  1.0000
  O   O13       1.0  0.45800  0.16700  0.75900  1.0000
  O   O14       1.0  0.70900  0.75900  0.83300  1.0000
  O   O15       1.0  0.21000  0.75300  0.84700  1.0000
  O   O16       1.0  0.75900  0.42400  0.97200  1.0000
  Si  Si1       1.0  0.60900  0.34900  0.14200  1.0000
  Si  Si2       1.0  0.24900  0.85800  0.34900  1.0000
  Si  Si3       1.0  0.74000  0.14200  0.65100  1.0000
  Si  Si4       1.0  0.40200  0.65100  0.85800  1.0000
