data_image0
_chemical_formula_structural       Cr4Cs12O14
_chemical_formula_sum              "Cr4 Cs12 O14"
_cell_length_a       7.18184
_cell_length_b       9.83162
_cell_length_c       12.1049
_cell_angle_alpha    90
_cell_angle_beta     125.204
_cell_angle_gamma    90

_space_group_name_H-M_alt    "P 1"
_space_group_IT_number       1

loop_
  _space_group_symop_operation_xyz
  'x, y, z'

loop_
  _atom_site_type_symbol
  _atom_site_label
  _atom_site_symmetry_multiplicity
  _atom_site_fract_x
  _atom_site_fract_y
  _atom_site_fract_z
  _atom_site_occupancy
  Cr  Cr1       1.0  0.17600  0.13400  0.13000  1.0000
  Cr  Cr2       1.0  0.82400  0.63400  0.37000  1.0000
  Cr  Cr3       1.0  0.17600  0.36600  0.63000  1.0000
  Cr  Cr4       1.0  0.82400  0.86600  0.87000  1.0000
  Cs  Cs1       1.0  0.29700  0.47500  0.05020  1.0000
  Cs  Cs2       1.0  0.46200  0.85500  0.08390  1.0000
  Cs  Cs3       1.0  0.09990  0.78400  0.22000  1.0000
  Cs  Cs4       1.0  0.90000  0.28400  0.28000  1.0000
  Cs  Cs5       1.0  0.53800  0.35500  0.41600  1.0000
  Cs  Cs6       1.0  0.70300  0.97500  0.45000  1.0000
  Cs  Cs7       1.0  0.29700  0.02530  0.55000  1.0000
  Cs  Cs8       1.0  0.46200  0.64500  0.58400  1.0000
  Cs  Cs9       1.0  0.09990  0.71600  0.72000  1.0000
  Cs  Cs10      1.0  0.90000  0.21600  0.78000  1.0000
  Cs  Cs11      1.0  0.53800  0.14500  0.91600  1.0000
  Cs  Cs12      1.0  0.70300  0.52500  0.95000  1.0000
  O   O1        1.0  0.00000  0.00000  0.00000  1.0000
  O   O2        1.0  0.00113  0.28400  0.07110  1.0000
  O   O3        1.0  0.43300  0.16100  0.14100  1.0000
  O   O4        1.0  0.76600  0.58300  0.21100  1.0000
  O   O5        1.0  0.23400  0.08340  0.28900  1.0000
  O   O6        1.0  0.56700  0.66100  0.35900  1.0000
  O   O7        1.0  0.99900  0.78400  0.42900  1.0000
  O   O8        1.0  0.00000  0.50000  0.50000  1.0000
  O   O9        1.0  0.00114  0.21600  0.57100  1.0000
  O   O10       1.0  0.43300  0.33900  0.64100  1.0000
  O   O11       1.0  0.76600  0.91700  0.71100  1.0000
  O   O12       1.0  0.23400  0.41700  0.78900  1.0000
  O   O13       1.0  0.56700  0.83900  0.85900  1.0000
  O   O14       1.0  0.99900  0.71600  0.92900  1.0000
