data_image0
_chemical_formula_structural       Cs12O14Si4
_chemical_formula_sum              "Cs12 O14 Si4"
_cell_length_a       7.09763
_cell_length_b       9.53373
_cell_length_c       11.9065
_cell_angle_alpha    90
_cell_angle_beta     126.043
_cell_angle_gamma    90

_space_group_name_H-M_alt    "P 1"
_space_group_IT_number       1

loop_
  _space_group_symop_operation_xyz
  'x, y, z'

loop_
  _atom_site_type_symbol
  _atom_site_label
  _atom_site_symmetry_multiplicity
  _atom_site_fract_x
  _atom_site_fract_y
  _atom_site_fract_z
  _atom_site_occupancy
  Cs  Cs1       1.0  0.29300  0.47500  0.04450  1.0000
  Cs  Cs2       1.0  0.49200  0.85500  0.09850  1.0000
  Cs  Cs3       1.0  0.11900  0.77200  0.22800  1.0000
  Cs  Cs4       1.0  0.88100  0.27200  0.27200  1.0000
  Cs  Cs5       1.0  0.50800  0.35500  0.40200  1.0000
  Cs  Cs6       1.0  0.70700  0.97500  0.45500  1.0000
  Cs  Cs7       1.0  0.29300  0.02520  0.54500  1.0000
  Cs  Cs8       1.0  0.49200  0.64500  0.59800  1.0000
  Cs  Cs9       1.0  0.11900  0.72800  0.72800  1.0000
  Cs  Cs10      1.0  0.88100  0.22800  0.77200  1.0000
  Cs  Cs11      1.0  0.50800  0.14500  0.90200  1.0000
  Cs  Cs12      1.0  0.70700  0.52500  0.95500  1.0000
  O   O1        1.0  0.00000  0.00000  0.00000  1.0000
  O   O2        1.0  0.99600  0.27000  0.06480  1.0000
  O   O3        1.0  0.39700  0.15400  0.12700  1.0000
  O   O4        1.0  0.77800  0.57500  0.23100  1.0000
  O   O5        1.0  0.22200  0.07520  0.26900  1.0000
  O   O6        1.0  0.60300  0.65400  0.37300  1.0000
  O   O7        1.0  0.00393  0.77000  0.43500  1.0000
  O   O8        1.0  0.00000  0.50000  0.50000  1.0000
  O   O9        1.0  0.99600  0.23000  0.56500  1.0000
  O   O10       1.0  0.39700  0.34600  0.62700  1.0000
  O   O11       1.0  0.77800  0.92500  0.73100  1.0000
  O   O12       1.0  0.22200  0.42500  0.76900  1.0000
  O   O13       1.0  0.60300  0.84600  0.87300  1.0000
  O   O14       1.0  0.00393  0.73000  0.93500  1.0000
  Si  Si1       1.0  0.16000  0.12800  0.11900  1.0000
  Si  Si2       1.0  0.84000  0.62800  0.38100  1.0000
  Si  Si3       1.0  0.16000  0.37200  0.61900  1.0000
  Si  Si4       1.0  0.84000  0.87200  0.88100  1.0000
