data_image0
_chemical_formula_structural       Eu2K8P4Se16
_chemical_formula_sum              "Eu2 K8 P4 Se16"
_cell_length_a       9.24534
_cell_length_b       10.2758
_cell_length_c       11.7903
_cell_angle_alpha    115.835
_cell_angle_beta     113.084
_cell_angle_gamma    90

_space_group_name_H-M_alt    "P 1"
_space_group_IT_number       1

loop_
  _space_group_symop_operation_xyz
  'x, y, z'

loop_
  _atom_site_type_symbol
  _atom_site_label
  _atom_site_symmetry_multiplicity
  _atom_site_fract_x
  _atom_site_fract_y
  _atom_site_fract_z
  _atom_site_occupancy
  Eu  Eu1       1.0  0.00000  0.25000  0.00000  1.0000
  Eu  Eu2       1.0  0.00000  0.75000  0.00000  1.0000
  K   K1        1.0  0.69800  0.08380  0.16800  1.0000
  K   K2        1.0  0.46900  0.58400  0.16800  1.0000
  K   K3        1.0  0.23900  0.48900  0.47800  1.0000
  K   K4        1.0  0.23900  0.98900  0.47800  1.0000
  K   K5        1.0  0.76100  0.01100  0.52200  1.0000
  K   K6        1.0  0.76100  0.51100  0.52200  1.0000
  K   K7        1.0  0.53100  0.41600  0.83200  1.0000
  K   K8        1.0  0.30200  0.91600  0.83200  1.0000
  P   P1        1.0  0.33100  0.12700  0.25500  1.0000
  P   P2        1.0  0.92400  0.62700  0.25500  1.0000
  P   P3        1.0  0.07640  0.37300  0.74500  1.0000
  P   P4        1.0  0.66900  0.87300  0.74500  1.0000
  Se  Se1       1.0  0.37000  0.24900  0.14900  1.0000
  Se  Se2       1.0  0.77900  0.40000  0.14900  1.0000
  Se  Se3       1.0  0.77900  0.74900  0.14900  1.0000
  Se  Se4       1.0  0.37000  0.90000  0.14900  1.0000
  Se  Se5       1.0  0.07030  0.10400  0.20800  1.0000
  Se  Se6       1.0  0.13700  0.60400  0.20800  1.0000
  Se  Se7       1.0  0.49600  0.24100  0.48200  1.0000
  Se  Se8       1.0  0.98600  0.74100  0.48200  1.0000
  Se  Se9       1.0  0.01420  0.25900  0.51800  1.0000
  Se  Se10      1.0  0.50400  0.75900  0.51800  1.0000
  Se  Se11      1.0  0.86300  0.39600  0.79200  1.0000
  Se  Se12      1.0  0.93000  0.89600  0.79200  1.0000
  Se  Se13      1.0  0.63000  0.10000  0.85100  1.0000
  Se  Se14      1.0  0.22100  0.25100  0.85100  1.0000
  Se  Se15      1.0  0.22100  0.60000  0.85100  1.0000
  Se  Se16      1.0  0.63000  0.75100  0.85100  1.0000
