data_image0
_chemical_formula_structural       Fe8Si14Zr8
_chemical_formula_sum              "Fe8 Si14 Zr8"
_cell_length_a       5.03952
_cell_length_b       9.56841
_cell_length_c       9.56841
_cell_angle_alpha    93.9766
_cell_angle_beta     74.7316
_cell_angle_gamma    105.268

_space_group_name_H-M_alt    "P 1"
_space_group_IT_number       1

loop_
  _space_group_symop_operation_xyz
  'x, y, z'

loop_
  _atom_site_type_symbol
  _atom_site_label
  _atom_site_symmetry_multiplicity
  _atom_site_fract_x
  _atom_site_fract_y
  _atom_site_fract_z
  _atom_site_occupancy
  Fe  Fe1       1.0  0.39800  0.50000  0.20400  1.0000
  Fe  Fe2       1.0  0.89800  0.50000  0.20400  1.0000
  Fe  Fe3       1.0  0.10200  0.20400  0.50000  1.0000
  Fe  Fe4       1.0  0.60200  0.20400  0.50000  1.0000
  Fe  Fe5       1.0  0.39800  0.79600  0.50000  1.0000
  Fe  Fe6       1.0  0.89800  0.79600  0.50000  1.0000
  Fe  Fe7       1.0  0.10200  0.50000  0.79600  1.0000
  Fe  Fe8       1.0  0.60200  0.50000  0.79600  1.0000
  Si  Si1       1.0  0.25000  0.00000  0.00000  1.0000
  Si  Si2       1.0  0.75000  0.00000  0.00000  1.0000
  Si  Si3       1.0  0.71100  0.42100  0.00000  1.0000
  Si  Si4       1.0  0.28900  0.57900  0.00000  1.0000
  Si  Si5       1.0  0.70000  0.70000  0.30000  1.0000
  Si  Si6       1.0  0.00000  0.30000  0.30000  1.0000
  Si  Si7       1.0  0.50000  0.40900  0.40900  1.0000
  Si  Si8       1.0  0.09120  0.59100  0.40900  1.0000
  Si  Si9       1.0  0.28900  0.00000  0.42100  1.0000
  Si  Si10      1.0  0.71100  0.00000  0.57900  1.0000
  Si  Si11      1.0  0.90900  0.40900  0.59100  1.0000
  Si  Si12      1.0  0.50000  0.59100  0.59100  1.0000
  Si  Si13      1.0  0.00000  0.70000  0.70000  1.0000
  Si  Si14      1.0  0.30000  0.30000  0.70000  1.0000
  Zr  Zr1       1.0  0.13800  0.27600  0.00000  1.0000
  Zr  Zr2       1.0  0.86200  0.72400  0.00000  1.0000
  Zr  Zr3       1.0  0.50000  0.19600  0.19600  1.0000
  Zr  Zr4       1.0  0.30400  0.80400  0.19600  1.0000
  Zr  Zr5       1.0  0.86200  0.00000  0.27600  1.0000
  Zr  Zr6       1.0  0.13800  0.00000  0.72400  1.0000
  Zr  Zr7       1.0  0.69600  0.19600  0.80400  1.0000
  Zr  Zr8       1.0  0.50000  0.80400  0.80400  1.0000
