data_image0
_chemical_formula_structural       Al6Er10Ge8Ni6
_chemical_formula_sum              "Al6 Er10 Ge8 Ni6"
_cell_length_a       4.17691
_cell_length_b       19.1398
_cell_length_c       6.8701
_cell_angle_alpha    90
_cell_angle_beta     90
_cell_angle_gamma    90

_space_group_name_H-M_alt    "P 1"
_space_group_IT_number       1

loop_
  _space_group_symop_operation_xyz
  'x, y, z'

loop_
  _atom_site_type_symbol
  _atom_site_label
  _atom_site_symmetry_multiplicity
  _atom_site_fract_x
  _atom_site_fract_y
  _atom_site_fract_z
  _atom_site_occupancy
  Al  Al1       1.0  0.25000  0.25000  0.02700  1.0000
  Al  Al2       1.0  0.75000  0.67800  0.31600  1.0000
  Al  Al3       1.0  0.75000  0.82200  0.31600  1.0000
  Al  Al4       1.0  0.25000  0.17800  0.68400  1.0000
  Al  Al5       1.0  0.25000  0.32200  0.68400  1.0000
  Al  Al6       1.0  0.75000  0.75000  0.97300  1.0000
  Er  Er1       1.0  0.75000  0.11900  0.00389  1.0000
  Er  Er2       1.0  0.75000  0.38100  0.00389  1.0000
  Er  Er3       1.0  0.75000  0.25000  0.38600  1.0000
  Er  Er4       1.0  0.75000  0.07120  0.50000  1.0000
  Er  Er5       1.0  0.75000  0.42900  0.50000  1.0000
  Er  Er6       1.0  0.25000  0.57100  0.50000  1.0000
  Er  Er7       1.0  0.25000  0.92900  0.50000  1.0000
  Er  Er8       1.0  0.25000  0.75000  0.61400  1.0000
  Er  Er9       1.0  0.25000  0.61900  0.99600  1.0000
  Er  Er10      1.0  0.25000  0.88100  0.99600  1.0000
  Ge  Ge1       1.0  0.75000  0.53900  0.20300  1.0000
  Ge  Ge2       1.0  0.75000  0.96100  0.20300  1.0000
  Ge  Ge3       1.0  0.25000  0.14600  0.29000  1.0000
  Ge  Ge4       1.0  0.25000  0.35400  0.29000  1.0000
  Ge  Ge5       1.0  0.75000  0.64600  0.71000  1.0000
  Ge  Ge6       1.0  0.75000  0.85400  0.71000  1.0000
  Ge  Ge7       1.0  0.25000  0.03870  0.79700  1.0000
  Ge  Ge8       1.0  0.25000  0.46100  0.79700  1.0000
  Ni  Ni1       1.0  0.25000  0.02570  0.16600  1.0000
  Ni  Ni2       1.0  0.25000  0.47400  0.16600  1.0000
  Ni  Ni3       1.0  0.25000  0.75000  0.20600  1.0000
  Ni  Ni4       1.0  0.75000  0.25000  0.79400  1.0000
  Ni  Ni5       1.0  0.75000  0.52600  0.83400  1.0000
  Ni  Ni6       1.0  0.75000  0.97400  0.83400  1.0000
