data_image0
_chemical_formula_structural       Cs4Hg12S14
_chemical_formula_sum              "Cs4 Hg12 S14"
_cell_length_a       14.2973
_cell_length_b       14.2973
_cell_length_c       4.24699
_cell_angle_alpha    90
_cell_angle_beta     90
_cell_angle_gamma    90

_space_group_name_H-M_alt    "P 1"
_space_group_IT_number       1

loop_
  _space_group_symop_operation_xyz
  'x, y, z'

loop_
  _atom_site_type_symbol
  _atom_site_label
  _atom_site_symmetry_multiplicity
  _atom_site_fract_x
  _atom_site_fract_y
  _atom_site_fract_z
  _atom_site_occupancy
  Cs  Cs1       1.0  0.33100  0.33100  0.22300  1.0000
  Cs  Cs2       1.0  0.66900  0.66900  0.22300  1.0000
  Cs  Cs3       1.0  0.83100  0.16900  0.72300  1.0000
  Cs  Cs4       1.0  0.16900  0.83100  0.72300  1.0000
  Hg  Hg1       1.0  0.57300  0.15400  0.22300  1.0000
  Hg  Hg2       1.0  0.84600  0.42700  0.22300  1.0000
  Hg  Hg3       1.0  0.15400  0.57300  0.22300  1.0000
  Hg  Hg4       1.0  0.42700  0.84600  0.22300  1.0000
  Hg  Hg5       1.0  0.09820  0.09820  0.31600  1.0000
  Hg  Hg6       1.0  0.90200  0.90200  0.31600  1.0000
  Hg  Hg7       1.0  0.34600  0.07310  0.72300  1.0000
  Hg  Hg8       1.0  0.07310  0.34600  0.72300  1.0000
  Hg  Hg9       1.0  0.92700  0.65400  0.72300  1.0000
  Hg  Hg10      1.0  0.65400  0.92700  0.72300  1.0000
  Hg  Hg11      1.0  0.59800  0.40200  0.81600  1.0000
  Hg  Hg12      1.0  0.40200  0.59800  0.81600  1.0000
  S   S1        1.0  0.68200  0.31800  0.21300  1.0000
  S   S2        1.0  0.31800  0.68200  0.21300  1.0000
  S   S3        1.0  0.69200  0.02350  0.22300  1.0000
  S   S4        1.0  0.97600  0.30800  0.22300  1.0000
  S   S5        1.0  0.02350  0.69200  0.22300  1.0000
  S   S6        1.0  0.30800  0.97600  0.22300  1.0000
  S   S7        1.0  0.50000  0.50000  0.49700  1.0000
  S   S8        1.0  0.18200  0.18200  0.71300  1.0000
  S   S9        1.0  0.81800  0.81800  0.71300  1.0000
  S   S10       1.0  0.47600  0.19200  0.72300  1.0000
  S   S11       1.0  0.19200  0.47600  0.72300  1.0000
  S   S12       1.0  0.80800  0.52400  0.72300  1.0000
  S   S13       1.0  0.52400  0.80800  0.72300  1.0000
  S   S14       1.0  0.00000  0.00000  0.99700  1.0000
