data_image0
_chemical_formula_structural       Co4Nb8S16
_chemical_formula_sum              "Co4 Nb8 S16"
_cell_length_a       11.7084
_cell_length_b       3.32421
_cell_length_c       12.9119
_cell_angle_alpha    90
_cell_angle_beta     90
_cell_angle_gamma    90

_space_group_name_H-M_alt    "P 1"
_space_group_IT_number       1

loop_
  _space_group_symop_operation_xyz
  'x, y, z'

loop_
  _atom_site_type_symbol
  _atom_site_label
  _atom_site_symmetry_multiplicity
  _atom_site_fract_x
  _atom_site_fract_y
  _atom_site_fract_z
  _atom_site_occupancy
  Co  Co1       1.0  0.34700  0.75000  0.22900  1.0000
  Co  Co2       1.0  0.84700  0.75000  0.27100  1.0000
  Co  Co3       1.0  0.15300  0.25000  0.72900  1.0000
  Co  Co4       1.0  0.65300  0.25000  0.77100  1.0000
  Nb  Nb1       1.0  0.57000  0.25000  0.07290  1.0000
  Nb  Nb2       1.0  0.96200  0.75000  0.09970  1.0000
  Nb  Nb3       1.0  0.46200  0.75000  0.40000  1.0000
  Nb  Nb4       1.0  0.07020  0.25000  0.42700  1.0000
  Nb  Nb5       1.0  0.93000  0.75000  0.57300  1.0000
  Nb  Nb6       1.0  0.53800  0.25000  0.60000  1.0000
  Nb  Nb7       1.0  0.03820  0.25000  0.90000  1.0000
  Nb  Nb8       1.0  0.43000  0.75000  0.92700  1.0000
  S   S1        1.0  0.36000  0.25000  0.05790  1.0000
  S   S2        1.0  0.11300  0.25000  0.07400  1.0000
  S   S3        1.0  0.79900  0.25000  0.16000  1.0000
  S   S4        1.0  0.54000  0.75000  0.21400  1.0000
  S   S5        1.0  0.03970  0.75000  0.28600  1.0000
  S   S6        1.0  0.29900  0.25000  0.34000  1.0000
  S   S7        1.0  0.61300  0.25000  0.42600  1.0000
  S   S8        1.0  0.86000  0.25000  0.44200  1.0000
  S   S9        1.0  0.14000  0.75000  0.55800  1.0000
  S   S10       1.0  0.38700  0.75000  0.57400  1.0000
  S   S11       1.0  0.70100  0.75000  0.66000  1.0000
  S   S12       1.0  0.96000  0.25000  0.71400  1.0000
  S   S13       1.0  0.46000  0.25000  0.78600  1.0000
  S   S14       1.0  0.20100  0.75000  0.84000  1.0000
  S   S15       1.0  0.88700  0.75000  0.92600  1.0000
  S   S16       1.0  0.64000  0.75000  0.94200  1.0000
