data_image0
_chemical_formula_structural       Ba6O18Sb4Sr2
_chemical_formula_sum              "Ba6 O18 Sb4 Sr2"
_cell_length_a       6.08549
_cell_length_b       6.08822
_cell_length_c       15.2357
_cell_angle_alpha    89.0256
_cell_angle_beta     88.269
_cell_angle_gamma    119.563

_space_group_name_H-M_alt    "P 1"
_space_group_IT_number       1

loop_
  _space_group_symop_operation_xyz
  'x, y, z'

loop_
  _atom_site_type_symbol
  _atom_site_label
  _atom_site_symmetry_multiplicity
  _atom_site_fract_x
  _atom_site_fract_y
  _atom_site_fract_z
  _atom_site_occupancy
  Ba  Ba1       1.0  0.65300  0.32700  0.09720  1.0000
  Ba  Ba2       1.0  0.01970  0.99800  0.25100  1.0000
  Ba  Ba3       1.0  0.68300  0.35200  0.40700  1.0000
  Ba  Ba4       1.0  0.31700  0.64800  0.59300  1.0000
  Ba  Ba5       1.0  0.98000  0.00160  0.74900  1.0000
  Ba  Ba6       1.0  0.34700  0.67300  0.90300  1.0000
  O   O1        1.0  0.57100  0.75700  0.06480  1.0000
  O   O2        1.0  0.10800  0.77700  0.10300  1.0000
  O   O3        1.0  0.09880  0.30400  0.11100  1.0000
  O   O4        1.0  0.48800  0.95100  0.23200  1.0000
  O   O5        1.0  0.46900  0.50700  0.24700  1.0000
  O   O6        1.0  0.04790  0.53100  0.27000  1.0000
  O   O7        1.0  0.70100  0.85400  0.38800  1.0000
  O   O8        1.0  0.25700  0.90700  0.40400  1.0000
  O   O9        1.0  0.22100  0.41700  0.43100  1.0000
  O   O10       1.0  0.77900  0.58300  0.56900  1.0000
  O   O11       1.0  0.74300  0.09320  0.59600  1.0000
  O   O12       1.0  0.29900  0.14600  0.61200  1.0000
  O   O13       1.0  0.95200  0.46900  0.73000  1.0000
  O   O14       1.0  0.53100  0.49300  0.75300  1.0000
  O   O15       1.0  0.51200  0.04880  0.76800  1.0000
  O   O16       1.0  0.90100  0.69600  0.88900  1.0000
  O   O17       1.0  0.89200  0.22300  0.89700  1.0000
  O   O18       1.0  0.42900  0.24300  0.93500  1.0000
  Sb  Sb1       1.0  0.30300  0.64000  0.15600  1.0000
  Sb  Sb2       1.0  0.36300  0.69400  0.34300  1.0000
  Sb  Sb3       1.0  0.63700  0.30600  0.65700  1.0000
  Sb  Sb4       1.0  0.69700  0.36000  0.84400  1.0000
  Sr  Sr1       1.0  0.00000  0.00000  0.00000  1.0000
  Sr  Sr2       1.0  0.00000  0.00000  0.50000  1.0000
