data_image0
_chemical_formula_structural       H12N16Pd2
_chemical_formula_sum              "H12 N16 Pd2"
_cell_length_a       5.57581
_cell_length_b       7.40222
_cell_length_c       7.40222
_cell_angle_alpha    98.155
_cell_angle_beta     67.8749
_cell_angle_gamma    112.125

_space_group_name_H-M_alt    "P 1"
_space_group_IT_number       1

loop_
  _space_group_symop_operation_xyz
  'x, y, z'

loop_
  _atom_site_type_symbol
  _atom_site_label
  _atom_site_symmetry_multiplicity
  _atom_site_fract_x
  _atom_site_fract_y
  _atom_site_fract_z
  _atom_site_occupancy
  H   H1        1.0  0.44600  0.64700  0.05220  1.0000
  H   H2        1.0  0.14900  0.64700  0.05220  1.0000
  H   H3        1.0  0.22800  0.71100  0.25400  1.0000
  H   H4        1.0  0.48300  0.25400  0.28900  1.0000
  H   H5        1.0  0.49800  0.05220  0.35300  1.0000
  H   H6        1.0  0.20100  0.05220  0.35300  1.0000
  H   H7        1.0  0.79900  0.94800  0.64700  1.0000
  H   H8        1.0  0.50200  0.94800  0.64700  1.0000
  H   H9        1.0  0.51700  0.74600  0.71100  1.0000
  H   H10       1.0  0.77200  0.28900  0.74600  1.0000
  H   H11       1.0  0.85100  0.35300  0.94800  1.0000
  H   H12       1.0  0.55400  0.35300  0.94800  1.0000
  N   N1        1.0  0.30800  0.71900  0.10400  1.0000
  N   N2        1.0  0.08040  0.28200  0.12100  1.0000
  N   N3        1.0  0.41100  0.10400  0.28100  1.0000
  N   N4        1.0  0.79900  0.87900  0.28200  1.0000
  N   N5        1.0  0.70800  0.70300  0.28600  1.0000
  N   N6        1.0  0.62100  0.53300  0.29100  1.0000
  N   N7        1.0  0.99500  0.28600  0.29700  1.0000
  N   N8        1.0  0.91200  0.29100  0.46700  1.0000
  N   N9        1.0  0.08820  0.70900  0.53300  1.0000
  N   N10       1.0  0.00546  0.71400  0.70300  1.0000
  N   N11       1.0  0.37900  0.46700  0.70900  1.0000
  N   N12       1.0  0.29200  0.29700  0.71400  1.0000
  N   N13       1.0  0.20100  0.12100  0.71800  1.0000
  N   N14       1.0  0.58900  0.89600  0.71900  1.0000
  N   N15       1.0  0.92000  0.71800  0.87900  1.0000
  N   N16       1.0  0.69200  0.28100  0.89600  1.0000
  Pd  Pd1       1.0  0.50000  0.00000  0.00000  1.0000
  Pd  Pd2       1.0  0.00000  0.00000  0.00000  1.0000
