data_image0
_chemical_formula_structural       O14Rb12Si4
_chemical_formula_sum              "O14 Rb12 Si4"
_cell_length_a       6.69656
_cell_length_b       9.16559
_cell_length_c       11.249
_cell_angle_alpha    90
_cell_angle_beta     125.37
_cell_angle_gamma    90

_space_group_name_H-M_alt    "P 1"
_space_group_IT_number       1

loop_
  _space_group_symop_operation_xyz
  'x, y, z'

loop_
  _atom_site_type_symbol
  _atom_site_label
  _atom_site_symmetry_multiplicity
  _atom_site_fract_x
  _atom_site_fract_y
  _atom_site_fract_z
  _atom_site_occupancy
  O   O1        1.0  0.00000  0.00000  0.00000  1.0000
  O   O2        1.0  0.99600  0.27900  0.06730  1.0000
  O   O3        1.0  0.41700  0.15600  0.13100  1.0000
  O   O4        1.0  0.77000  0.57800  0.21800  1.0000
  O   O5        1.0  0.23000  0.07750  0.28200  1.0000
  O   O6        1.0  0.58300  0.65600  0.36900  1.0000
  O   O7        1.0  0.00416  0.77900  0.43300  1.0000
  O   O8        1.0  0.00000  0.50000  0.50000  1.0000
  O   O9        1.0  0.99600  0.22100  0.56700  1.0000
  O   O10       1.0  0.41700  0.34400  0.63100  1.0000
  O   O11       1.0  0.77000  0.92200  0.71800  1.0000
  O   O12       1.0  0.23000  0.42200  0.78200  1.0000
  O   O13       1.0  0.58300  0.84400  0.86900  1.0000
  O   O14       1.0  0.00416  0.72100  0.93300  1.0000
  Rb  Rb1       1.0  0.29400  0.47500  0.04660  1.0000
  Rb  Rb2       1.0  0.48600  0.85300  0.09250  1.0000
  Rb  Rb3       1.0  0.11100  0.77600  0.22300  1.0000
  Rb  Rb4       1.0  0.88900  0.27600  0.27700  1.0000
  Rb  Rb5       1.0  0.51400  0.35300  0.40800  1.0000
  Rb  Rb6       1.0  0.70600  0.97500  0.45300  1.0000
  Rb  Rb7       1.0  0.29400  0.02510  0.54700  1.0000
  Rb  Rb8       1.0  0.48600  0.64700  0.59200  1.0000
  Rb  Rb9       1.0  0.11100  0.72400  0.72300  1.0000
  Rb  Rb10      1.0  0.88900  0.22400  0.77700  1.0000
  Rb  Rb11      1.0  0.51400  0.14700  0.90800  1.0000
  Rb  Rb12      1.0  0.70600  0.52500  0.95300  1.0000
  Si  Si1       1.0  0.16800  0.13200  0.12500  1.0000
  Si  Si2       1.0  0.83200  0.63200  0.37500  1.0000
  Si  Si3       1.0  0.16800  0.36800  0.62500  1.0000
  Si  Si4       1.0  0.83200  0.86800  0.87500  1.0000
