data_image0
_chemical_formula_structural       Mn6Nb4O18Zn2
_chemical_formula_sum              "Mn6 Nb4 O18 Zn2"
_cell_length_a       5.30977
_cell_length_b       5.30977
_cell_length_c       14.3145
_cell_angle_alpha    89.9999
_cell_angle_beta     90.0001
_cell_angle_gamma    120

_space_group_name_H-M_alt    "P 1"
_space_group_IT_number       1

loop_
  _space_group_symop_operation_xyz
  'x, y, z'

loop_
  _atom_site_type_symbol
  _atom_site_label
  _atom_site_symmetry_multiplicity
  _atom_site_fract_x
  _atom_site_fract_y
  _atom_site_fract_z
  _atom_site_occupancy
  Mn  Mn1       1.0  0.33300  0.66700  0.01490  1.0000
  Mn  Mn2       1.0  0.66700  0.33300  0.19800  1.0000
  Mn  Mn3       1.0  0.66700  0.33300  0.48100  1.0000
  Mn  Mn4       1.0  0.33300  0.66700  0.51500  1.0000
  Mn  Mn5       1.0  0.66700  0.33300  0.69800  1.0000
  Mn  Mn6       1.0  0.66700  0.33300  0.98100  1.0000
  Nb  Nb1       1.0  0.00000  0.00000  0.14100  1.0000
  Nb  Nb2       1.0  0.00000  0.00000  0.35800  1.0000
  Nb  Nb3       1.0  0.00000  0.00000  0.64100  1.0000
  Nb  Nb4       1.0  0.00000  0.00000  0.85800  1.0000
  O   O1        1.0  0.68800  0.02880  0.08430  1.0000
  O   O2        1.0  0.34100  0.31200  0.08430  1.0000
  O   O3        1.0  0.97100  0.65900  0.08430  1.0000
  O   O4        1.0  0.71100  0.72200  0.24900  1.0000
  O   O5        1.0  0.27800  0.98900  0.24900  1.0000
  O   O6        1.0  0.01070  0.28900  0.24900  1.0000
  O   O7        1.0  0.65900  0.97200  0.41400  1.0000
  O   O8        1.0  0.31400  0.34100  0.41400  1.0000
  O   O9        1.0  0.02750  0.68600  0.41400  1.0000
  O   O10       1.0  0.97100  0.31200  0.58400  1.0000
  O   O11       1.0  0.68800  0.65900  0.58400  1.0000
  O   O12       1.0  0.34100  0.02880  0.58400  1.0000
  O   O13       1.0  0.27800  0.28900  0.74900  1.0000
  O   O14       1.0  0.01070  0.72200  0.74900  1.0000
  O   O15       1.0  0.71100  0.98900  0.74900  1.0000
  O   O16       1.0  0.02750  0.34100  0.91400  1.0000
  O   O17       1.0  0.65900  0.68600  0.91400  1.0000
  O   O18       1.0  0.31400  0.97200  0.91400  1.0000
  Zn  Zn1       1.0  0.33300  0.66700  0.29800  1.0000
  Zn  Zn2       1.0  0.33300  0.66700  0.79800  1.0000
