data_image0
_chemical_formula_structural       F12H6O8S2Sb2
_chemical_formula_sum              "F12 H6 O8 S2 Sb2"
_cell_length_a       4.76407
_cell_length_b       7.37289
_cell_length_c       8.99522
_cell_angle_alpha    87.1431
_cell_angle_beta     74.867
_cell_angle_gamma    89.0223

_space_group_name_H-M_alt    "P 1"
_space_group_IT_number       1

loop_
  _space_group_symop_operation_xyz
  'x, y, z'

loop_
  _atom_site_type_symbol
  _atom_site_label
  _atom_site_symmetry_multiplicity
  _atom_site_fract_x
  _atom_site_fract_y
  _atom_site_fract_z
  _atom_site_occupancy
  F   F1        1.0  0.44500  0.20000  0.13900  1.0000
  F   F2        1.0  0.05090  0.46300  0.22000  1.0000
  F   F3        1.0  0.87300  0.12200  0.26700  1.0000
  F   F4        1.0  0.44900  0.39800  0.38100  1.0000
  F   F5        1.0  0.28000  0.04450  0.42800  1.0000
  F   F6        1.0  0.10900  0.68200  0.49000  1.0000
  F   F7        1.0  0.89100  0.31800  0.51000  1.0000
  F   F8        1.0  0.72000  0.95500  0.57200  1.0000
  F   F9        1.0  0.55100  0.60200  0.61900  1.0000
  F   F10       1.0  0.12700  0.87800  0.73300  1.0000
  F   F11       1.0  0.94900  0.53700  0.78000  1.0000
  F   F12       1.0  0.55500  0.80000  0.86100  1.0000
  H   H1        1.0  0.82200  0.52300  0.14700  1.0000
  H   H2        1.0  0.84200  0.99500  0.14900  1.0000
  H   H3        1.0  0.43100  0.72600  0.41300  1.0000
  H   H4        1.0  0.56900  0.27400  0.58700  1.0000
  H   H5        1.0  0.15800  0.00521  0.85100  1.0000
  H   H6        1.0  0.17800  0.47700  0.85300  1.0000
  O   O1        1.0  0.80400  0.89500  0.08310  1.0000
  O   O2        1.0  0.66700  0.58200  0.09990  1.0000
  O   O3        1.0  0.28300  0.80700  0.16700  1.0000
  O   O4        1.0  0.62100  0.75400  0.33300  1.0000
  O   O5        1.0  0.37900  0.24600  0.66700  1.0000
  O   O6        1.0  0.71700  0.19300  0.83300  1.0000
  O   O7        1.0  0.33300  0.41800  0.90000  1.0000
  O   O8        1.0  0.19600  0.10500  0.91700  1.0000
  S   S1        1.0  0.57000  0.76400  0.17200  1.0000
  S   S2        1.0  0.43000  0.23600  0.82800  1.0000
  Sb  Sb1       1.0  0.17200  0.25300  0.32500  1.0000
  Sb  Sb2       1.0  0.82800  0.74700  0.67500  1.0000
