data_image0
_chemical_formula_structural       Mo2Nd4O20Se4
_chemical_formula_sum              "Mo2 Nd4 O20 Se4"
_cell_length_a       5.36996
_cell_length_b       6.88316
_cell_length_c       12.5251
_cell_angle_alpha    85.5534
_cell_angle_beta     83.93
_cell_angle_gamma    69.6441

_space_group_name_H-M_alt    "P 1"
_space_group_IT_number       1

loop_
  _space_group_symop_operation_xyz
  'x, y, z'

loop_
  _atom_site_type_symbol
  _atom_site_label
  _atom_site_symmetry_multiplicity
  _atom_site_fract_x
  _atom_site_fract_y
  _atom_site_fract_z
  _atom_site_occupancy
  Mo  Mo1       1.0  0.36200  0.27800  0.44100  1.0000
  Mo  Mo2       1.0  0.63800  0.72200  0.55900  1.0000
  Nd  Nd1       1.0  0.16700  0.69700  0.04830  1.0000
  Nd  Nd2       1.0  0.08370  0.88800  0.35100  1.0000
  Nd  Nd3       1.0  0.91600  0.11200  0.64900  1.0000
  Nd  Nd4       1.0  0.83300  0.30300  0.95200  1.0000
  O   O1        1.0  0.18800  0.05610  0.04500  1.0000
  O   O2        1.0  0.44000  0.33400  0.08210  1.0000
  O   O3        1.0  0.85700  0.50500  0.09540  1.0000
  O   O4        1.0  0.41000  0.71800  0.20400  1.0000
  O   O5        1.0  0.87800  0.76700  0.22100  1.0000
  O   O6        1.0  0.17900  0.17000  0.24400  1.0000
  O   O7        1.0  0.64500  0.16100  0.35000  1.0000
  O   O8        1.0  0.16600  0.52800  0.39300  1.0000
  O   O9        1.0  0.52200  0.71100  0.43300  1.0000
  O   O10       1.0  0.14600  0.12400  0.47100  1.0000
  O   O11       1.0  0.85400  0.87600  0.52900  1.0000
  O   O12       1.0  0.47800  0.28900  0.56700  1.0000
  O   O13       1.0  0.83400  0.47200  0.60700  1.0000
  O   O14       1.0  0.35500  0.83900  0.65000  1.0000
  O   O15       1.0  0.82100  0.83000  0.75600  1.0000
  O   O16       1.0  0.12200  0.23300  0.77900  1.0000
  O   O17       1.0  0.59000  0.28200  0.79600  1.0000
  O   O18       1.0  0.14300  0.49500  0.90500  1.0000
  O   O19       1.0  0.56000  0.66600  0.91800  1.0000
  O   O20       1.0  0.81200  0.94400  0.95500  1.0000
  Se  Se1       1.0  0.40000  0.10200  0.13300  1.0000
  Se  Se2       1.0  0.73900  0.57200  0.22600  1.0000
  Se  Se3       1.0  0.26100  0.42800  0.77400  1.0000
  Se  Se4       1.0  0.60000  0.89800  0.86700  1.0000
