data_image0
_chemical_formula_structural       Ba2F18Zn7
_chemical_formula_sum              "Ba2 F18 Zn7"
_cell_length_a       6.95389
_cell_length_b       7.22486
_cell_length_c       7.38999
_cell_angle_alpha    94.0645
_cell_angle_beta     93.2501
_cell_angle_gamma    116.315

_space_group_name_H-M_alt    "P 1"
_space_group_IT_number       1

loop_
  _space_group_symop_operation_xyz
  'x, y, z'

loop_
  _atom_site_type_symbol
  _atom_site_label
  _atom_site_symmetry_multiplicity
  _atom_site_fract_x
  _atom_site_fract_y
  _atom_site_fract_z
  _atom_site_occupancy
  Ba  Ba1       1.0  0.68400  0.31300  0.37100  1.0000
  Ba  Ba2       1.0  0.31600  0.68700  0.62900  1.0000
  F   F1        1.0  0.68500  0.48700  0.03180  1.0000
  F   F2        1.0  0.87900  0.22300  0.08230  1.0000
  F   F3        1.0  0.30500  0.18200  0.12800  1.0000
  F   F4        1.0  0.50400  0.93400  0.18500  1.0000
  F   F5        1.0  0.91400  0.88600  0.23000  1.0000
  F   F6        1.0  0.09510  0.60400  0.28400  1.0000
  F   F7        1.0  0.48100  0.56500  0.33000  1.0000
  F   F8        1.0  0.08600  0.28900  0.43900  1.0000
  F   F9        1.0  0.29000  0.01220  0.45200  1.0000
  F   F10       1.0  0.71000  0.98800  0.54800  1.0000
  F   F11       1.0  0.91400  0.71100  0.56100  1.0000
  F   F12       1.0  0.51900  0.43500  0.67000  1.0000
  F   F13       1.0  0.90500  0.39600  0.71600  1.0000
  F   F14       1.0  0.08610  0.11400  0.77000  1.0000
  F   F15       1.0  0.49600  0.06630  0.81500  1.0000
  F   F16       1.0  0.69500  0.81800  0.87200  1.0000
  F   F17       1.0  0.12100  0.77700  0.91800  1.0000
  F   F18       1.0  0.31500  0.51300  0.96800  1.0000
  Zn  Zn1       1.0  0.60900  0.73200  0.12400  1.0000
  Zn  Zn2       1.0  0.19400  0.87300  0.17800  1.0000
  Zn  Zn3       1.0  0.17600  0.38000  0.19400  1.0000
  Zn  Zn4       1.0  0.00000  0.00000  0.50000  1.0000
  Zn  Zn5       1.0  0.82400  0.62000  0.80600  1.0000
  Zn  Zn6       1.0  0.80600  0.12700  0.82200  1.0000
  Zn  Zn7       1.0  0.39100  0.26800  0.87600  1.0000
