data_image0
_chemical_formula_structural       Lu6Mn23
_chemical_formula_sum              "Lu6 Mn23"
_cell_length_a       8.30112
_cell_length_b       8.30112
_cell_length_c       8.30112
_cell_angle_alpha    120
_cell_angle_beta     90
_cell_angle_gamma    120

_space_group_name_H-M_alt    "P 1"
_space_group_IT_number       1

loop_
  _space_group_symop_operation_xyz
  'x, y, z'

loop_
  _atom_site_type_symbol
  _atom_site_label
  _atom_site_symmetry_multiplicity
  _atom_site_fract_x
  _atom_site_fract_y
  _atom_site_fract_z
  _atom_site_occupancy
  Lu  Lu1       1.0  0.70300  0.00000  0.29700  1.0000
  Lu  Lu2       1.0  0.29700  0.00000  0.29700  1.0000
  Lu  Lu3       1.0  0.29700  0.59400  0.29700  1.0000
  Lu  Lu4       1.0  0.70300  1.00000  0.70300  1.0000
  Lu  Lu5       1.0  0.29700  1.00000  0.70300  1.0000
  Lu  Lu6       1.0  0.70300  0.40600  0.70300  1.0000
  Mn  Mn1       1.0  0.00000  0.00000  0.00000  1.0000
  Mn  Mn2       1.0  0.50000  0.00000  0.00000  1.0000
  Mn  Mn3       1.0  0.00000  0.50000  0.00000  1.0000
  Mn  Mn4       1.0  0.50000  0.50000  0.00000  1.0000
  Mn  Mn5       1.0  0.67700  0.35400  0.03170  1.0000
  Mn  Mn6       1.0  0.36500  0.24400  0.12200  1.0000
  Mn  Mn7       1.0  0.87800  0.24400  0.12200  1.0000
  Mn  Mn8       1.0  0.87800  0.75600  0.12200  1.0000
  Mn  Mn9       1.0  0.67700  0.35400  0.32300  1.0000
  Mn  Mn10      1.0  0.67700  0.64600  0.32300  1.0000
  Mn  Mn11      1.0  0.96800  0.64600  0.32300  1.0000
  Mn  Mn12      1.0  0.12200  0.24400  0.36500  1.0000
  Mn  Mn13      1.0  0.00000  0.00000  0.50000  1.0000
  Mn  Mn14      1.0  0.00000  0.50000  0.50000  1.0000
  Mn  Mn15      1.0  0.50000  0.50000  0.50000  1.0000
  Mn  Mn16      1.0  0.87800  0.75600  0.63500  1.0000
  Mn  Mn17      1.0  0.03170  0.35400  0.67700  1.0000
  Mn  Mn18      1.0  0.32300  0.35400  0.67700  1.0000
  Mn  Mn19      1.0  0.32300  0.64600  0.67700  1.0000
  Mn  Mn20      1.0  0.12200  0.24400  0.87800  1.0000
  Mn  Mn21      1.0  0.12200  0.75600  0.87800  1.0000
  Mn  Mn22      1.0  0.63500  0.75600  0.87800  1.0000
  Mn  Mn23      1.0  0.32300  0.64600  0.96800  1.0000
