data_image0
_chemical_formula_structural       Na12Se14Si4
_chemical_formula_sum              "Na12 Se14 Si4"
_cell_length_a       7.14464
_cell_length_b       7.14464
_cell_length_c       15.7741
_cell_angle_alpha    99.5608
_cell_angle_beta     99.5608
_cell_angle_gamma    98.1432

_space_group_name_H-M_alt    "P 1"
_space_group_IT_number       1

loop_
  _space_group_symop_operation_xyz
  'x, y, z'

loop_
  _atom_site_type_symbol
  _atom_site_label
  _atom_site_symmetry_multiplicity
  _atom_site_fract_x
  _atom_site_fract_y
  _atom_site_fract_z
  _atom_site_occupancy
  Na  Na1       1.0  0.50000  0.50000  0.00000  1.0000
  Na  Na2       1.0  0.97400  0.26700  0.07330  1.0000
  Na  Na3       1.0  0.49000  0.05040  0.14100  1.0000
  Na  Na4       1.0  0.41800  0.58200  0.25000  1.0000
  Na  Na5       1.0  0.95000  0.51000  0.35900  1.0000
  Na  Na6       1.0  0.73300  0.02640  0.42700  1.0000
  Na  Na7       1.0  0.50000  0.50000  0.50000  1.0000
  Na  Na8       1.0  0.26700  0.97400  0.57300  1.0000
  Na  Na9       1.0  0.05040  0.49000  0.64100  1.0000
  Na  Na10      1.0  0.58200  0.41800  0.75000  1.0000
  Na  Na11      1.0  0.51000  0.95000  0.85900  1.0000
  Na  Na12      1.0  0.02640  0.73300  0.92700  1.0000
  Se  Se1       1.0  0.73900  0.87100  0.03030  1.0000
  Se  Se2       1.0  0.20300  0.69200  0.10500  1.0000
  Se  Se3       1.0  0.75500  0.50600  0.17900  1.0000
  Se  Se4       1.0  0.96100  0.03920  0.25000  1.0000
  Se  Se5       1.0  0.49400  0.24500  0.32100  1.0000
  Se  Se6       1.0  0.30800  0.79700  0.39500  1.0000
  Se  Se7       1.0  0.12900  0.26100  0.47000  1.0000
  Se  Se8       1.0  0.87100  0.73900  0.53000  1.0000
  Se  Se9       1.0  0.69200  0.20300  0.60500  1.0000
  Se  Se10      1.0  0.50600  0.75500  0.67900  1.0000
  Se  Se11      1.0  0.03920  0.96100  0.75000  1.0000
  Se  Se12      1.0  0.24500  0.49400  0.82100  1.0000
  Se  Se13      1.0  0.79700  0.30800  0.89500  1.0000
  Se  Se14      1.0  0.26100  0.12900  0.97000  1.0000
  Si  Si1       1.0  0.92300  0.76400  0.14000  1.0000
  Si  Si2       1.0  0.23600  0.07750  0.36000  1.0000
  Si  Si3       1.0  0.76400  0.92300  0.64000  1.0000
  Si  Si4       1.0  0.07750  0.23600  0.86000  1.0000
