data_image0
_chemical_formula_structural       O22Se4V4
_chemical_formula_sum              "O22 Se4 V4"
_cell_length_a       5.50838
_cell_length_b       8.13698
_cell_length_c       9.58334
_cell_angle_alpha    111.159
_cell_angle_beta     90
_cell_angle_gamma    109.784

_space_group_name_H-M_alt    "P 1"
_space_group_IT_number       1

loop_
  _space_group_symop_operation_xyz
  'x, y, z'

loop_
  _atom_site_type_symbol
  _atom_site_label
  _atom_site_symmetry_multiplicity
  _atom_site_fract_x
  _atom_site_fract_y
  _atom_site_fract_z
  _atom_site_occupancy
  O   O1        1.0  0.47300  0.70100  0.07580  1.0000
  O   O2        1.0  0.95900  0.68500  0.08210  1.0000
  O   O3        1.0  0.20600  0.17700  0.10900  1.0000
  O   O4        1.0  0.69700  0.17100  0.11900  1.0000
  O   O5        1.0  0.60900  0.51000  0.23100  1.0000
  O   O6        1.0  0.89000  0.00000  0.25000  1.0000
  O   O7        1.0  0.09940  0.49000  0.26900  1.0000
  O   O8        1.0  0.52500  0.82900  0.38100  1.0000
  O   O9        1.0  0.02950  0.82300  0.39100  1.0000
  O   O10       1.0  0.27400  0.31500  0.41800  1.0000
  O   O11       1.0  0.77100  0.29900  0.42400  1.0000
  O   O12       1.0  0.22900  0.70100  0.57600  1.0000
  O   O13       1.0  0.72600  0.68500  0.58200  1.0000
  O   O14       1.0  0.97100  0.17700  0.60900  1.0000
  O   O15       1.0  0.47500  0.17100  0.61900  1.0000
  O   O16       1.0  0.90100  0.51000  0.73100  1.0000
  O   O17       1.0  0.11000  0.00000  0.75000  1.0000
  O   O18       1.0  0.39100  0.49000  0.76900  1.0000
  O   O19       1.0  0.30300  0.82900  0.88100  1.0000
  O   O20       1.0  0.79400  0.82300  0.89100  1.0000
  O   O21       1.0  0.04100  0.31500  0.91800  1.0000
  O   O22       1.0  0.52700  0.29900  0.92400  1.0000
  Se  Se1       1.0  0.52000  0.29000  0.09700  1.0000
  Se  Se2       1.0  0.23100  0.71000  0.40300  1.0000
  Se  Se3       1.0  0.76900  0.29000  0.59700  1.0000
  Se  Se4       1.0  0.48000  0.71000  0.90300  1.0000
  V   V1        1.0  0.79100  0.75500  0.21100  1.0000
  V   V2        1.0  0.03570  0.24500  0.28900  1.0000
  V   V3        1.0  0.96400  0.75500  0.71100  1.0000
  V   V4        1.0  0.20900  0.24500  0.78900  1.0000
