data_image0
_chemical_formula_structural       Ba8O18Ta4
_chemical_formula_sum              "Ba8 O18 Ta4"
_cell_length_a       6.10403
_cell_length_b       6.10405
_cell_length_c       16.4574
_cell_angle_alpha    90
_cell_angle_beta     90
_cell_angle_gamma    120.006

_space_group_name_H-M_alt    "P 1"
_space_group_IT_number       1

loop_
  _space_group_symop_operation_xyz
  'x, y, z'

loop_
  _atom_site_type_symbol
  _atom_site_label
  _atom_site_symmetry_multiplicity
  _atom_site_fract_x
  _atom_site_fract_y
  _atom_site_fract_z
  _atom_site_occupancy
  Ba  Ba1       1.0  0.00000  0.00000  0.00000  1.0000
  Ba  Ba2       1.0  0.33300  0.66700  0.13200  1.0000
  Ba  Ba3       1.0  0.00000  0.00000  0.25000  1.0000
  Ba  Ba4       1.0  0.33300  0.66700  0.36800  1.0000
  Ba  Ba5       1.0  0.00000  0.00000  0.50000  1.0000
  Ba  Ba6       1.0  0.66700  0.33300  0.63200  1.0000
  Ba  Ba7       1.0  0.00000  0.00000  0.75000  1.0000
  Ba  Ba8       1.0  0.66700  0.33300  0.86800  1.0000
  O   O1        1.0  0.89200  0.24700  0.10700  1.0000
  O   O2        1.0  0.75300  0.64500  0.10700  1.0000
  O   O3        1.0  0.35500  0.10800  0.10700  1.0000
  O   O4        1.0  0.57000  0.04300  0.25000  1.0000
  O   O5        1.0  0.47200  0.43000  0.25000  1.0000
  O   O6        1.0  0.95700  0.52800  0.25000  1.0000
  O   O7        1.0  0.35500  0.10800  0.39300  1.0000
  O   O8        1.0  0.75300  0.64500  0.39300  1.0000
  O   O9        1.0  0.89200  0.24700  0.39300  1.0000
  O   O10       1.0  0.10800  0.75300  0.60700  1.0000
  O   O11       1.0  0.24700  0.35500  0.60700  1.0000
  O   O12       1.0  0.64500  0.89200  0.60700  1.0000
  O   O13       1.0  0.04300  0.47200  0.75000  1.0000
  O   O14       1.0  0.52800  0.57000  0.75000  1.0000
  O   O15       1.0  0.43000  0.95700  0.75000  1.0000
  O   O16       1.0  0.64500  0.89200  0.89300  1.0000
  O   O17       1.0  0.24700  0.35500  0.89300  1.0000
  O   O18       1.0  0.10800  0.75300  0.89300  1.0000
  Ta  Ta1       1.0  0.66700  0.33300  0.15900  1.0000
  Ta  Ta2       1.0  0.66700  0.33300  0.34100  1.0000
  Ta  Ta3       1.0  0.33300  0.66700  0.65900  1.0000
  Ta  Ta4       1.0  0.33300  0.66700  0.84100  1.0000
