data_image0
_chemical_formula_structural       K4Mo6O20
_chemical_formula_sum              "K4 Mo6 O20"
_cell_length_a       7.78482
_cell_length_b       7.91962
_cell_length_c       8.82023
_cell_angle_alpha    98.2412
_cell_angle_beta     90
_cell_angle_gamma    119.439

_space_group_name_H-M_alt    "P 1"
_space_group_IT_number       1

loop_
  _space_group_symop_operation_xyz
  'x, y, z'

loop_
  _atom_site_type_symbol
  _atom_site_label
  _atom_site_symmetry_multiplicity
  _atom_site_fract_x
  _atom_site_fract_y
  _atom_site_fract_z
  _atom_site_occupancy
  K   K1        1.0  0.59100  0.37300  0.15400  1.0000
  K   K2        1.0  0.21800  0.62700  0.34600  1.0000
  K   K3        1.0  0.78200  0.37300  0.65400  1.0000
  K   K4        1.0  0.40900  0.62700  0.84600  1.0000
  Mo  Mo1       1.0  0.03030  0.22200  0.01770  1.0000
  Mo  Mo2       1.0  0.68500  0.00000  0.25000  1.0000
  Mo  Mo3       1.0  0.80900  0.77800  0.48200  1.0000
  Mo  Mo4       1.0  0.19100  0.22200  0.51800  1.0000
  Mo  Mo5       1.0  0.31500  0.00000  0.75000  1.0000
  Mo  Mo6       1.0  0.97000  0.77800  0.98200  1.0000
  O   O1        1.0  0.26400  0.42400  0.08140  1.0000
  O   O2        1.0  0.87600  0.94700  0.08690  1.0000
  O   O3        1.0  0.49000  0.88600  0.10900  1.0000
  O   O4        1.0  0.05610  0.72700  0.14000  1.0000
  O   O5        1.0  0.87400  0.24900  0.17900  1.0000
  O   O6        1.0  0.62600  0.75100  0.32100  1.0000
  O   O7        1.0  0.32900  0.27300  0.36000  1.0000
  O   O8        1.0  0.60300  0.11400  0.39100  1.0000
  O   O9        1.0  0.92900  0.05250  0.41300  1.0000
  O   O10       1.0  0.84000  0.57600  0.41900  1.0000
  O   O11       1.0  0.16000  0.42400  0.58100  1.0000
  O   O12       1.0  0.07110  0.94700  0.58700  1.0000
  O   O13       1.0  0.39700  0.88600  0.60900  1.0000
  O   O14       1.0  0.67100  0.72700  0.64000  1.0000
  O   O15       1.0  0.37400  0.24900  0.67900  1.0000
  O   O16       1.0  0.12600  0.75100  0.82100  1.0000
  O   O17       1.0  0.94400  0.27300  0.86000  1.0000
  O   O18       1.0  0.51000  0.11400  0.89100  1.0000
  O   O19       1.0  0.12400  0.05250  0.91300  1.0000
  O   O20       1.0  0.73600  0.57600  0.91900  1.0000
