data_image0
_chemical_formula_structural       H2K2Mn4O18P4
_chemical_formula_sum              "H2 K2 Mn4 O18 P4"
_cell_length_a       6.21542
_cell_length_b       6.85636
_cell_length_c       8.81925
_cell_angle_alpha    90
_cell_angle_beta     108.491
_cell_angle_gamma    90

_space_group_name_H-M_alt    "P 1"
_space_group_IT_number       1

loop_
  _space_group_symop_operation_xyz
  'x, y, z'

loop_
  _atom_site_type_symbol
  _atom_site_label
  _atom_site_symmetry_multiplicity
  _atom_site_fract_x
  _atom_site_fract_y
  _atom_site_fract_z
  _atom_site_occupancy
  H   H1        1.0  0.03600  0.25000  0.48400  1.0000
  H   H2        1.0  0.96400  0.75000  0.51600  1.0000
  K   K1        1.0  0.06530  0.75000  0.18400  1.0000
  K   K2        1.0  0.93500  0.25000  0.81600  1.0000
  Mn  Mn1       1.0  0.50000  0.00000  0.00000  1.0000
  Mn  Mn2       1.0  0.50000  0.50000  0.00000  1.0000
  Mn  Mn3       1.0  0.47800  0.25000  0.29100  1.0000
  Mn  Mn4       1.0  0.52200  0.75000  0.70900  1.0000
  O   O1        1.0  0.42000  0.25000  0.06300  1.0000
  O   O2        1.0  0.82400  0.06590  0.08280  1.0000
  O   O3        1.0  0.82400  0.43400  0.08280  1.0000
  O   O4        1.0  0.49900  0.56900  0.24500  1.0000
  O   O5        1.0  0.49900  0.93100  0.24500  1.0000
  O   O6        1.0  0.15900  0.25000  0.26100  1.0000
  O   O7        1.0  0.81100  0.25000  0.33400  1.0000
  O   O8        1.0  0.85000  0.75000  0.40500  1.0000
  O   O9        1.0  0.47200  0.75000  0.48300  1.0000
  O   O10       1.0  0.52800  0.25000  0.51700  1.0000
  O   O11       1.0  0.15000  0.25000  0.59500  1.0000
  O   O12       1.0  0.18900  0.75000  0.66600  1.0000
  O   O13       1.0  0.84100  0.75000  0.73900  1.0000
  O   O14       1.0  0.50100  0.06860  0.75500  1.0000
  O   O15       1.0  0.50100  0.43100  0.75500  1.0000
  O   O16       1.0  0.17600  0.56600  0.91700  1.0000
  O   O17       1.0  0.17600  0.93400  0.91700  1.0000
  O   O18       1.0  0.58000  0.75000  0.93700  1.0000
  P   P1        1.0  0.90200  0.25000  0.18800  1.0000
  P   P2        1.0  0.58300  0.75000  0.35000  1.0000
  P   P3        1.0  0.41700  0.25000  0.65000  1.0000
  P   P4        1.0  0.09790  0.75000  0.81200  1.0000
