data_image0
_chemical_formula_structural       O19Re4Sr7
_chemical_formula_sum              "O19 Re4 Sr7"
_cell_length_a       5.56781
_cell_length_b       7.36684
_cell_length_c       10.3918
_cell_angle_alpha    97.9784
_cell_angle_beta     90
_cell_angle_gamma    112.203

_space_group_name_H-M_alt    "P 1"
_space_group_IT_number       1

loop_
  _space_group_symop_operation_xyz
  'x, y, z'

loop_
  _atom_site_type_symbol
  _atom_site_label
  _atom_site_symmetry_multiplicity
  _atom_site_fract_x
  _atom_site_fract_y
  _atom_site_fract_z
  _atom_site_occupancy
  O   O1        1.0  0.39600  0.79300  0.06780  1.0000
  O   O2        1.0  0.04550  0.09100  0.14400  1.0000
  O   O3        1.0  0.48300  0.48200  0.15400  1.0000
  O   O4        1.0  0.99800  0.48200  0.15400  1.0000
  O   O5        1.0  0.17400  0.85800  0.28400  1.0000
  O   O6        1.0  0.68300  0.85800  0.28400  1.0000
  O   O7        1.0  0.37400  0.25200  0.37400  1.0000
  O   O8        1.0  0.87800  0.25200  0.37400  1.0000
  O   O9        1.0  0.30300  0.60700  0.38900  1.0000
  O   O10       1.0  0.00000  0.00000  0.50000  1.0000
  O   O11       1.0  0.69700  0.39300  0.61100  1.0000
  O   O12       1.0  0.12200  0.74800  0.62600  1.0000
  O   O13       1.0  0.62600  0.74800  0.62600  1.0000
  O   O14       1.0  0.31700  0.14200  0.71600  1.0000
  O   O15       1.0  0.82600  0.14200  0.71600  1.0000
  O   O16       1.0  0.00179  0.51800  0.84600  1.0000
  O   O17       1.0  0.51700  0.51800  0.84600  1.0000
  O   O18       1.0  0.95500  0.90900  0.85600  1.0000
  O   O19       1.0  0.60400  0.20700  0.93200  1.0000
  Re  Re1       1.0  0.32900  0.65800  0.22000  1.0000
  Re  Re2       1.0  0.03440  0.06870  0.32200  1.0000
  Re  Re3       1.0  0.96600  0.93100  0.67800  1.0000
  Re  Re4       1.0  0.67100  0.34200  0.78000  1.0000
  Sr  Sr1       1.0  0.85800  0.71700  0.04380  1.0000
  Sr  Sr2       1.0  0.58200  0.16500  0.16400  1.0000
  Sr  Sr3       1.0  0.78900  0.57900  0.41000  1.0000
  Sr  Sr4       1.0  0.50000  0.00000  0.50000  1.0000
  Sr  Sr5       1.0  0.21100  0.42100  0.59000  1.0000
  Sr  Sr6       1.0  0.41800  0.83500  0.83600  1.0000
  Sr  Sr7       1.0  0.14200  0.28300  0.95600  1.0000
