data_image0
_chemical_formula_structural       P4Pb2Rb8Se16
_chemical_formula_sum              "P4 Pb2 Rb8 Se16"
_cell_length_a       9.53234
_cell_length_b       10.5765
_cell_length_c       12.0331
_cell_angle_alpha    116.07
_cell_angle_beta     113.334
_cell_angle_gamma    90

_space_group_name_H-M_alt    "P 1"
_space_group_IT_number       1

loop_
  _space_group_symop_operation_xyz
  'x, y, z'

loop_
  _atom_site_type_symbol
  _atom_site_label
  _atom_site_symmetry_multiplicity
  _atom_site_fract_x
  _atom_site_fract_y
  _atom_site_fract_z
  _atom_site_occupancy
  P   P1        1.0  0.32800  0.12500  0.25000  1.0000
  P   P2        1.0  0.92200  0.62500  0.25000  1.0000
  P   P3        1.0  0.07780  0.37500  0.75000  1.0000
  P   P4        1.0  0.67200  0.87500  0.75000  1.0000
  Pb  Pb1       1.0  0.00000  0.25000  0.00000  1.0000
  Pb  Pb2       1.0  0.00000  0.75000  0.00000  1.0000
  Rb  Rb1       1.0  0.70200  0.08640  0.17300  1.0000
  Rb  Rb2       1.0  0.47000  0.58600  0.17300  1.0000
  Rb  Rb3       1.0  0.23500  0.48500  0.47000  1.0000
  Rb  Rb4       1.0  0.23500  0.98500  0.47000  1.0000
  Rb  Rb5       1.0  0.76500  0.01500  0.53000  1.0000
  Rb  Rb6       1.0  0.76500  0.51500  0.53000  1.0000
  Rb  Rb7       1.0  0.53000  0.41400  0.82700  1.0000
  Rb  Rb8       1.0  0.29800  0.91400  0.82700  1.0000
  Se  Se1       1.0  0.36300  0.24500  0.14700  1.0000
  Se  Se2       1.0  0.78300  0.40100  0.14700  1.0000
  Se  Se3       1.0  0.78300  0.74500  0.14700  1.0000
  Se  Se4       1.0  0.36300  0.90100  0.14700  1.0000
  Se  Se5       1.0  0.07580  0.10500  0.21000  1.0000
  Se  Se6       1.0  0.13400  0.60500  0.21000  1.0000
  Se  Se7       1.0  0.49400  0.23600  0.47200  1.0000
  Se  Se8       1.0  0.97800  0.73600  0.47200  1.0000
  Se  Se9       1.0  0.02190  0.26400  0.52800  1.0000
  Se  Se10      1.0  0.50600  0.76400  0.52800  1.0000
  Se  Se11      1.0  0.86600  0.39500  0.79000  1.0000
  Se  Se12      1.0  0.92400  0.89500  0.79000  1.0000
  Se  Se13      1.0  0.63700  0.09860  0.85300  1.0000
  Se  Se14      1.0  0.21700  0.25500  0.85300  1.0000
  Se  Se15      1.0  0.21700  0.59900  0.85300  1.0000
  Se  Se16      1.0  0.63700  0.75500  0.85300  1.0000
