data_image0
_chemical_formula_structural       C6Nb16Zn8
_chemical_formula_sum              "C6 Nb16 Zn8"
_cell_length_a       8.49824
_cell_length_b       8.49824
_cell_length_c       8.49824
_cell_angle_alpha    120
_cell_angle_beta     90
_cell_angle_gamma    120

_space_group_name_H-M_alt    "P 1"
_space_group_IT_number       1

loop_
  _space_group_symop_operation_xyz
  'x, y, z'

loop_
  _atom_site_type_symbol
  _atom_site_label
  _atom_site_symmetry_multiplicity
  _atom_site_fract_x
  _atom_site_fract_y
  _atom_site_fract_z
  _atom_site_occupancy
  C   C1        1.0  0.37500  0.75000  0.12500  1.0000
  C   C2        1.0  0.50000  0.00000  0.50000  1.0000
  C   C3        1.0  0.37500  0.25000  0.62500  1.0000
  C   C4        1.0  0.87500  0.25000  0.62500  1.0000
  C   C5        1.0  0.37500  0.75000  0.62500  1.0000
  C   C6        1.0  0.25000  0.50000  0.75000  1.0000
  Nb  Nb1       1.0  0.37500  0.25000  0.12500  1.0000
  Nb  Nb2       1.0  0.87500  0.25000  0.12500  1.0000
  Nb  Nb3       1.0  0.87500  0.75000  0.12500  1.0000
  Nb  Nb4       1.0  0.31000  0.00000  0.31000  1.0000
  Nb  Nb5       1.0  0.31000  0.62000  0.31000  1.0000
  Nb  Nb6       1.0  0.69000  0.00000  0.31000  1.0000
  Nb  Nb7       1.0  0.06010  0.12000  0.56000  1.0000
  Nb  Nb8       1.0  0.06010  0.50000  0.56000  1.0000
  Nb  Nb9       1.0  0.44000  0.50000  0.56000  1.0000
  Nb  Nb10      1.0  0.87500  0.75000  0.62500  1.0000
  Nb  Nb11      1.0  0.31000  0.00000  0.69000  1.0000
  Nb  Nb12      1.0  0.69000  0.38000  0.69000  1.0000
  Nb  Nb13      1.0  0.69000  0.00000  0.69000  1.0000
  Nb  Nb14      1.0  0.06010  0.50000  0.94000  1.0000
  Nb  Nb15      1.0  0.44000  0.50000  0.94000  1.0000
  Nb  Nb16      1.0  0.44000  0.88000  0.94000  1.0000
  Zn  Zn1       1.0  0.08770  0.17500  0.26300  1.0000
  Zn  Zn2       1.0  0.66200  0.32500  0.33800  1.0000
  Zn  Zn3       1.0  0.66200  0.67500  0.33800  1.0000
  Zn  Zn4       1.0  0.01320  0.67500  0.33800  1.0000
  Zn  Zn5       1.0  0.08770  0.17500  0.91200  1.0000
  Zn  Zn6       1.0  0.08770  0.82500  0.91200  1.0000
  Zn  Zn7       1.0  0.73700  0.82500  0.91200  1.0000
  Zn  Zn8       1.0  0.66200  0.32500  0.98700  1.0000
