data_image0
_chemical_formula_structural       Br18K6Ti6
_chemical_formula_sum              "Br18 K6 Ti6"
_cell_length_a       13.0674
_cell_length_b       13.0668
_cell_length_c       6.3586
_cell_angle_alpha    90
_cell_angle_beta     90
_cell_angle_gamma    120.005

_space_group_name_H-M_alt    "P 1"
_space_group_IT_number       1

loop_
  _space_group_symop_operation_xyz
  'x, y, z'

loop_
  _atom_site_type_symbol
  _atom_site_label
  _atom_site_symmetry_multiplicity
  _atom_site_fract_x
  _atom_site_fract_y
  _atom_site_fract_z
  _atom_site_occupancy
  Br  Br1       1.0  0.33000  0.83100  0.02020  1.0000
  Br  Br2       1.0  0.50100  0.67000  0.02020  1.0000
  Br  Br3       1.0  0.16900  0.49900  0.02020  1.0000
  Br  Br4       1.0  0.49900  0.16900  0.02250  1.0000
  Br  Br5       1.0  0.67000  0.50100  0.02250  1.0000
  Br  Br6       1.0  0.83100  0.33000  0.02250  1.0000
  Br  Br7       1.0  0.81000  0.90500  0.26800  1.0000
  Br  Br8       1.0  0.09540  0.90600  0.26800  1.0000
  Br  Br9       1.0  0.09430  0.19000  0.26800  1.0000
  Br  Br10      1.0  0.67000  0.16900  0.52000  1.0000
  Br  Br11      1.0  0.49900  0.33000  0.52000  1.0000
  Br  Br12      1.0  0.83100  0.50100  0.52000  1.0000
  Br  Br13      1.0  0.33000  0.49900  0.52300  1.0000
  Br  Br14      1.0  0.50100  0.83100  0.52300  1.0000
  Br  Br15      1.0  0.16900  0.67000  0.52300  1.0000
  Br  Br16      1.0  0.19000  0.09540  0.76800  1.0000
  Br  Br17      1.0  0.90500  0.09430  0.76800  1.0000
  Br  Br18      1.0  0.90600  0.81000  0.76800  1.0000
  K   K1        1.0  0.64200  0.00053  0.02230  1.0000
  K   K2        1.0  0.35900  0.35800  0.02230  1.0000
  K   K3        1.0  0.99900  0.64100  0.02230  1.0000
  K   K4        1.0  0.35800  0.99900  0.52200  1.0000
  K   K5        1.0  0.64100  0.64200  0.52200  1.0000
  K   K6        1.0  0.00053  0.35900  0.52200  1.0000
  Ti  Ti1       1.0  0.00000  0.00000  0.01730  1.0000
  Ti  Ti2       1.0  0.33300  0.66700  0.27000  1.0000
  Ti  Ti3       1.0  0.66700  0.33300  0.27200  1.0000
  Ti  Ti4       1.0  0.00000  0.00000  0.51700  1.0000
  Ti  Ti5       1.0  0.66700  0.33300  0.77000  1.0000
  Ti  Ti6       1.0  0.33300  0.66700  0.77200  1.0000
