data_image0
_chemical_formula_structural       I18K6Ti6
_chemical_formula_sum              "I18 K6 Ti6"
_cell_length_a       14.1108
_cell_length_b       14.1121
_cell_length_c       6.81593
_cell_angle_alpha    90.0002
_cell_angle_beta     90
_cell_angle_gamma    119.989

_space_group_name_H-M_alt    "P 1"
_space_group_IT_number       1

loop_
  _space_group_symop_operation_xyz
  'x, y, z'

loop_
  _atom_site_type_symbol
  _atom_site_label
  _atom_site_symmetry_multiplicity
  _atom_site_fract_x
  _atom_site_fract_y
  _atom_site_fract_z
  _atom_site_occupancy
  I   I1        1.0  0.38900  0.53000  0.01910  1.0000
  I   I2        1.0  0.14100  0.61200  0.01910  1.0000
  I   I3        1.0  0.47000  0.85900  0.01910  1.0000
  I   I4        1.0  0.79400  0.51300  0.01990  1.0000
  I   I5        1.0  0.48700  0.28100  0.01990  1.0000
  I   I6        1.0  0.71900  0.20600  0.01990  1.0000
  I   I7        1.0  0.17500  0.01860  0.35100  1.0000
  I   I8        1.0  0.84300  0.82500  0.35100  1.0000
  I   I9        1.0  0.98100  0.15700  0.35100  1.0000
  I   I10       1.0  0.61100  0.47000  0.51900  1.0000
  I   I11       1.0  0.53000  0.14100  0.51900  1.0000
  I   I12       1.0  0.85900  0.38800  0.51900  1.0000
  I   I13       1.0  0.20600  0.48700  0.52000  1.0000
  I   I14       1.0  0.51300  0.71900  0.52000  1.0000
  I   I15       1.0  0.28100  0.79400  0.52000  1.0000
  I   I16       1.0  0.82500  0.98100  0.85100  1.0000
  I   I17       1.0  0.15700  0.17500  0.85100  1.0000
  I   I18       1.0  0.01860  0.84300  0.85100  1.0000
  K   K1        1.0  0.99600  0.67900  0.40400  1.0000
  K   K2        1.0  0.68300  0.00421  0.40400  1.0000
  K   K3        1.0  0.32100  0.31700  0.40400  1.0000
  K   K4        1.0  0.00423  0.32100  0.90400  1.0000
  K   K5        1.0  0.31700  0.99600  0.90400  1.0000
  K   K6        1.0  0.67900  0.68300  0.90400  1.0000
  Ti  Ti1       1.0  0.00000  0.00000  0.10200  1.0000
  Ti  Ti2       1.0  0.33300  0.66700  0.24700  1.0000
  Ti  Ti3       1.0  0.66700  0.33300  0.29200  1.0000
  Ti  Ti4       1.0  0.00000  0.00000  0.60200  1.0000
  Ti  Ti5       1.0  0.66700  0.33300  0.74700  1.0000
  Ti  Ti6       1.0  0.33300  0.66700  0.79200  1.0000
