data_image0
_chemical_formula_structural       Ba2F22Li2Zr4
_chemical_formula_sum              "Ba2 F22 Li2 Zr4"
_cell_length_a       7.8726
_cell_length_b       7.8726
_cell_length_c       7.8726
_cell_angle_alpha    92.0568
_cell_angle_beta     118.82
_cell_angle_gamma    118.82

_space_group_name_H-M_alt    "P 1"
_space_group_IT_number       1

loop_
  _space_group_symop_operation_xyz
  'x, y, z'

loop_
  _atom_site_type_symbol
  _atom_site_label
  _atom_site_symmetry_multiplicity
  _atom_site_fract_x
  _atom_site_fract_y
  _atom_site_fract_z
  _atom_site_occupancy
  Ba  Ba1       1.0  0.00000  0.19700  0.19700  1.0000
  Ba  Ba2       1.0  0.00000  0.80300  0.80300  1.0000
  F   F1        1.0  0.50000  0.50000  0.00000  1.0000
  F   F2        1.0  0.57200  0.85200  0.06150  1.0000
  F   F3        1.0  0.90600  0.80400  0.10200  1.0000
  F   F4        1.0  0.20900  0.72000  0.14800  1.0000
  F   F5        1.0  0.86000  0.46200  0.18200  1.0000
  F   F6        1.0  0.29800  0.10200  0.19600  1.0000
  F   F7        1.0  0.42800  0.49000  0.28000  1.0000
  F   F8        1.0  0.72100  0.18200  0.32200  1.0000
  F   F9        1.0  0.86000  0.67800  0.39900  1.0000
  F   F10       1.0  0.27900  0.60100  0.46200  1.0000
  F   F11       1.0  0.20900  0.06150  0.49000  1.0000
  F   F12       1.0  0.50000  0.00000  0.50000  1.0000
  F   F13       1.0  0.79100  0.93900  0.51000  1.0000
  F   F14       1.0  0.72100  0.39900  0.53800  1.0000
  F   F15       1.0  0.14000  0.32200  0.60100  1.0000
  F   F16       1.0  0.27900  0.81800  0.67800  1.0000
  F   F17       1.0  0.57200  0.51000  0.72000  1.0000
  F   F18       1.0  0.70200  0.89800  0.80400  1.0000
  F   F19       1.0  0.14000  0.53800  0.81800  1.0000
  F   F20       1.0  0.79100  0.28000  0.85200  1.0000
  F   F21       1.0  0.09440  0.19600  0.89800  1.0000
  F   F22       1.0  0.42800  0.14800  0.93900  1.0000
  Li  Li1       1.0  0.50000  0.75000  0.25000  1.0000
  Li  Li2       1.0  0.50000  0.25000  0.75000  1.0000
  Zr  Zr1       1.0  0.56700  0.35400  0.21400  1.0000
  Zr  Zr2       1.0  0.14000  0.78600  0.35400  1.0000
  Zr  Zr3       1.0  0.86000  0.21400  0.64600  1.0000
  Zr  Zr4       1.0  0.43300  0.64600  0.78600  1.0000
