data_image0
_chemical_formula_structural       Br2La2O14Pb12
_chemical_formula_sum              "Br2 La2 O14 Pb12"
_cell_length_a       8.19763
_cell_length_b       9.37041
_cell_length_c       9.37041
_cell_angle_alpha    61.1829
_cell_angle_beta     90
_cell_angle_gamma    90

_space_group_name_H-M_alt    "P 1"
_space_group_IT_number       1

loop_
  _space_group_symop_operation_xyz
  'x, y, z'

loop_
  _atom_site_type_symbol
  _atom_site_label
  _atom_site_symmetry_multiplicity
  _atom_site_fract_x
  _atom_site_fract_y
  _atom_site_fract_z
  _atom_site_occupancy
  Br  Br1       1.0  0.00000  0.50000  0.50000  1.0000
  Br  Br2       1.0  0.50000  0.50000  0.50000  1.0000
  La  La1       1.0  0.00000  0.00000  0.00000  1.0000
  La  La2       1.0  0.50000  0.00000  0.00000  1.0000
  O   O1        1.0  0.52900  0.71300  0.02150  1.0000
  O   O2        1.0  0.97100  0.71300  0.02150  1.0000
  O   O3        1.0  0.25000  0.83700  0.14600  1.0000
  O   O4        1.0  0.75000  0.85400  0.16300  1.0000
  O   O5        1.0  0.75000  0.19400  0.19400  1.0000
  O   O6        1.0  0.02900  0.97900  0.28700  1.0000
  O   O7        1.0  0.47100  0.97900  0.28700  1.0000
  O   O8        1.0  0.52900  0.02150  0.71300  1.0000
  O   O9        1.0  0.97100  0.02150  0.71300  1.0000
  O   O10       1.0  0.25000  0.80600  0.80600  1.0000
  O   O11       1.0  0.25000  0.14600  0.83700  1.0000
  O   O12       1.0  0.75000  0.16300  0.85400  1.0000
  O   O13       1.0  0.02900  0.28700  0.97900  1.0000
  O   O14       1.0  0.47100  0.28700  0.97900  1.0000
  Pb  Pb1       1.0  0.25000  0.62300  0.11100  1.0000
  Pb  Pb2       1.0  0.75000  0.60100  0.19100  1.0000
  Pb  Pb3       1.0  0.01280  0.23500  0.23500  1.0000
  Pb  Pb4       1.0  0.48700  0.23500  0.23500  1.0000
  Pb  Pb5       1.0  0.75000  0.88900  0.37700  1.0000
  Pb  Pb6       1.0  0.25000  0.80900  0.39900  1.0000
  Pb  Pb7       1.0  0.75000  0.19100  0.60100  1.0000
  Pb  Pb8       1.0  0.25000  0.11100  0.62300  1.0000
  Pb  Pb9       1.0  0.51300  0.76500  0.76500  1.0000
  Pb  Pb10      1.0  0.98700  0.76500  0.76500  1.0000
  Pb  Pb11      1.0  0.25000  0.39900  0.80900  1.0000
  Pb  Pb12      1.0  0.75000  0.37700  0.88900  1.0000
