data_image0
_chemical_formula_structural       Nb21S8
_chemical_formula_sum              "Nb21 S8"
_cell_length_a       3.37671
_cell_length_b       12.0789
_cell_length_c       12.0789
_cell_angle_alpha    91.1195
_cell_angle_beta     98.0349
_cell_angle_gamma    81.9651

_space_group_name_H-M_alt    "P 1"
_space_group_IT_number       1

loop_
  _space_group_symop_operation_xyz
  'x, y, z'

loop_
  _atom_site_type_symbol
  _atom_site_label
  _atom_site_symmetry_multiplicity
  _atom_site_fract_x
  _atom_site_fract_y
  _atom_site_fract_z
  _atom_site_occupancy
  Nb  Nb1       1.0  0.00000  0.00000  0.00000  1.0000
  Nb  Nb2       1.0  0.80800  0.39000  0.00652  1.0000
  Nb  Nb3       1.0  0.45100  0.18500  0.08630  1.0000
  Nb  Nb4       1.0  0.63500  0.91400  0.18500  1.0000
  Nb  Nb5       1.0  0.38400  0.43100  0.19900  1.0000
  Nb  Nb6       1.0  0.27800  0.70200  0.25800  1.0000
  Nb  Nb7       1.0  0.02000  0.25800  0.29800  1.0000
  Nb  Nb8       1.0  0.91900  0.53100  0.36900  1.0000
  Nb  Nb9       1.0  0.19800  0.99300  0.39000  1.0000
  Nb  Nb10      1.0  0.81500  0.80100  0.43100  1.0000
  Nb  Nb11      1.0  0.55000  0.36900  0.46900  1.0000
  Nb  Nb12      1.0  0.45000  0.63100  0.53100  1.0000
  Nb  Nb13      1.0  0.18500  0.19900  0.56900  1.0000
  Nb  Nb14      1.0  0.80200  0.00652  0.61000  1.0000
  Nb  Nb15      1.0  0.08100  0.46900  0.63100  1.0000
  Nb  Nb16      1.0  0.98000  0.74200  0.70200  1.0000
  Nb  Nb17      1.0  0.72200  0.29800  0.74200  1.0000
  Nb  Nb18      1.0  0.61600  0.56900  0.80100  1.0000
  Nb  Nb19      1.0  0.36500  0.08630  0.81500  1.0000
  Nb  Nb20      1.0  0.54900  0.81500  0.91400  1.0000
  Nb  Nb21      1.0  0.19200  0.61000  0.99300  1.0000
  S   S1        1.0  0.13700  0.79900  0.07330  1.0000
  S   S2        1.0  0.78700  0.57700  0.15100  1.0000
  S   S3        1.0  0.06400  0.07330  0.20100  1.0000
  S   S4        1.0  0.63600  0.15100  0.42300  1.0000
  S   S5        1.0  0.36400  0.84900  0.57700  1.0000
  S   S6        1.0  0.93600  0.92700  0.79900  1.0000
  S   S7        1.0  0.21300  0.42300  0.84900  1.0000
  S   S8        1.0  0.86300  0.20100  0.92700  1.0000
