data_image0
_chemical_formula_structural       FeS17U8
_chemical_formula_sum              "Fe1 S17 U8"
_cell_length_a       7.72052
_cell_length_b       7.72052
_cell_length_c       10.2128
_cell_angle_alpha    99.4629
_cell_angle_beta     99.4629
_cell_angle_gamma    64.4589

_space_group_name_H-M_alt    "P 1"
_space_group_IT_number       1

loop_
  _space_group_symop_operation_xyz
  'x, y, z'

loop_
  _atom_site_type_symbol
  _atom_site_label
  _atom_site_symmetry_multiplicity
  _atom_site_fract_x
  _atom_site_fract_y
  _atom_site_fract_z
  _atom_site_occupancy
  Fe  Fe1       1.0  0.00000  0.00000  0.00000  1.0000
  S   S1        1.0  0.68400  0.05500  0.02430  1.0000
  S   S2        1.0  0.05500  0.68400  0.02430  1.0000
  S   S3        1.0  0.52200  0.52200  0.16900  1.0000
  S   S4        1.0  0.05650  0.05650  0.22200  1.0000
  S   S5        1.0  0.30000  0.30000  0.24200  1.0000
  S   S6        1.0  0.78600  0.78600  0.27900  1.0000
  S   S7        1.0  0.81900  0.43400  0.46400  1.0000
  S   S8        1.0  0.43400  0.81900  0.46400  1.0000
  S   S9        1.0  0.00000  0.00000  0.50000  1.0000
  S   S10       1.0  0.56600  0.18100  0.53600  1.0000
  S   S11       1.0  0.18100  0.56600  0.53600  1.0000
  S   S12       1.0  0.21400  0.21400  0.72100  1.0000
  S   S13       1.0  0.70000  0.70000  0.75800  1.0000
  S   S14       1.0  0.94300  0.94300  0.77800  1.0000
  S   S15       1.0  0.47800  0.47800  0.83100  1.0000
  S   S16       1.0  0.94500  0.31600  0.97600  1.0000
  S   S17       1.0  0.31600  0.94500  0.97600  1.0000
  U   U1        1.0  0.68200  0.68200  0.01810  1.0000
  U   U2        1.0  0.69900  0.18100  0.29600  1.0000
  U   U3        1.0  0.18100  0.69900  0.29600  1.0000
  U   U4        1.0  0.20300  0.20300  0.45300  1.0000
  U   U5        1.0  0.79700  0.79700  0.54700  1.0000
  U   U6        1.0  0.81900  0.30100  0.70400  1.0000
  U   U7        1.0  0.30100  0.81900  0.70400  1.0000
  U   U8        1.0  0.31800  0.31800  0.98200  1.0000
