data_image0
_chemical_formula_structural       K6Na2Se16Sn6
_chemical_formula_sum              "K6 Na2 Se16 Sn6"
_cell_length_a       8.29608
_cell_length_b       8.29608
_cell_length_c       13.9035
_cell_angle_alpha    90
_cell_angle_beta     90
_cell_angle_gamma    90

_space_group_name_H-M_alt    "P 1"
_space_group_IT_number       1

loop_
  _space_group_symop_operation_xyz
  'x, y, z'

loop_
  _atom_site_type_symbol
  _atom_site_label
  _atom_site_symmetry_multiplicity
  _atom_site_fract_x
  _atom_site_fract_y
  _atom_site_fract_z
  _atom_site_occupancy
  K   K1        1.0  0.25000  0.25000  0.00000  1.0000
  K   K2        1.0  0.75000  0.75000  0.00000  1.0000
  K   K3        1.0  0.25000  0.25000  0.27700  1.0000
  K   K4        1.0  0.75000  0.75000  0.27700  1.0000
  K   K5        1.0  0.25000  0.25000  0.72300  1.0000
  K   K6        1.0  0.75000  0.75000  0.72300  1.0000
  Na  Na1       1.0  0.75000  0.25000  0.00000  1.0000
  Na  Na2       1.0  0.25000  0.75000  0.00000  1.0000
  Se  Se1       1.0  0.56900  0.06890  0.14700  1.0000
  Se  Se2       1.0  0.93100  0.43100  0.14700  1.0000
  Se  Se3       1.0  0.43100  0.56900  0.14700  1.0000
  Se  Se4       1.0  0.06890  0.93100  0.14700  1.0000
  Se  Se5       1.0  0.91400  0.08570  0.37700  1.0000
  Se  Se6       1.0  0.58600  0.41400  0.37700  1.0000
  Se  Se7       1.0  0.08570  0.58600  0.37700  1.0000
  Se  Se8       1.0  0.41400  0.91400  0.37700  1.0000
  Se  Se9       1.0  0.58600  0.08570  0.62300  1.0000
  Se  Se10      1.0  0.91400  0.41400  0.62300  1.0000
  Se  Se11      1.0  0.41400  0.58600  0.62300  1.0000
  Se  Se12      1.0  0.08570  0.91400  0.62300  1.0000
  Se  Se13      1.0  0.93100  0.06890  0.85300  1.0000
  Se  Se14      1.0  0.56900  0.43100  0.85300  1.0000
  Se  Se15      1.0  0.06890  0.56900  0.85300  1.0000
  Se  Se16      1.0  0.43100  0.93100  0.85300  1.0000
  Sn  Sn1       1.0  0.75000  0.25000  0.24500  1.0000
  Sn  Sn2       1.0  0.25000  0.75000  0.24500  1.0000
  Sn  Sn3       1.0  0.75000  0.25000  0.50000  1.0000
  Sn  Sn4       1.0  0.25000  0.75000  0.50000  1.0000
  Sn  Sn5       1.0  0.75000  0.25000  0.75500  1.0000
  Sn  Sn6       1.0  0.25000  0.75000  0.75500  1.0000
