data_image0
_chemical_formula_structural       F4Na4O16Si2U4
_chemical_formula_sum              "F4 Na4 O16 Si2 U4"
_cell_length_a       6.92841
_cell_length_b       6.92841
_cell_length_c       10.388
_cell_angle_alpha    109.48
_cell_angle_beta     109.48
_cell_angle_gamma    90

_space_group_name_H-M_alt    "P 1"
_space_group_IT_number       1

loop_
  _space_group_symop_operation_xyz
  'x, y, z'

loop_
  _atom_site_type_symbol
  _atom_site_label
  _atom_site_symmetry_multiplicity
  _atom_site_fract_x
  _atom_site_fract_y
  _atom_site_fract_z
  _atom_site_occupancy
  F   F1        1.0  0.07850  0.82800  0.15700  1.0000
  F   F2        1.0  0.67200  0.42200  0.34300  1.0000
  F   F3        1.0  0.32800  0.57800  0.65700  1.0000
  F   F4        1.0  0.92200  0.17200  0.84300  1.0000
  Na  Na1       1.0  0.00000  0.00000  0.00000  1.0000
  Na  Na2       1.0  0.00000  0.50000  0.00000  1.0000
  Na  Na3       1.0  0.00000  0.50000  0.50000  1.0000
  Na  Na4       1.0  0.50000  0.50000  0.50000  1.0000
  O   O1        1.0  0.28600  0.29900  0.09810  1.0000
  O   O2        1.0  0.81200  0.29900  0.09810  1.0000
  O   O3        1.0  0.56700  0.64000  0.13400  1.0000
  O   O4        1.0  0.56700  0.99400  0.13400  1.0000
  O   O5        1.0  0.50600  0.93300  0.36600  1.0000
  O   O6        1.0  0.86000  0.93300  0.36600  1.0000
  O   O7        1.0  0.20100  0.21400  0.40200  1.0000
  O   O8        1.0  0.20100  0.68800  0.40200  1.0000
  O   O9        1.0  0.79900  0.31200  0.59800  1.0000
  O   O10       1.0  0.79900  0.78600  0.59800  1.0000
  O   O11       1.0  0.14000  0.06700  0.63400  1.0000
  O   O12       1.0  0.49400  0.06700  0.63400  1.0000
  O   O13       1.0  0.43300  0.00635  0.86600  1.0000
  O   O14       1.0  0.43300  0.36000  0.86600  1.0000
  O   O15       1.0  0.18800  0.70100  0.90200  1.0000
  O   O16       1.0  0.71400  0.70100  0.90200  1.0000
  Si  Si1       1.0  0.62500  0.87500  0.25000  1.0000
  Si  Si2       1.0  0.37500  0.12500  0.75000  1.0000
  U   U1        1.0  0.54900  0.29900  0.09820  1.0000
  U   U2        1.0  0.20100  0.95100  0.40200  1.0000
  U   U3        1.0  0.79900  0.04910  0.59800  1.0000
  U   U4        1.0  0.45100  0.70100  0.90200  1.0000
