data_image0
_chemical_formula_structural       Cu16Eu6Sn8
_chemical_formula_sum              "Cu16 Eu6 Sn8"
_cell_length_a       9.19247
_cell_length_b       9.19253
_cell_length_c       7.77893
_cell_angle_alpha    90
_cell_angle_beta     90
_cell_angle_gamma    120

_space_group_name_H-M_alt    "P 1"
_space_group_IT_number       1

loop_
  _space_group_symop_operation_xyz
  'x, y, z'

loop_
  _atom_site_type_symbol
  _atom_site_label
  _atom_site_symmetry_multiplicity
  _atom_site_fract_x
  _atom_site_fract_y
  _atom_site_fract_z
  _atom_site_occupancy
  Cu  Cu1       1.0  0.10100  0.89900  0.02300  1.0000
  Cu  Cu2       1.0  0.79700  0.89900  0.02300  1.0000
  Cu  Cu3       1.0  0.10100  0.20300  0.02300  1.0000
  Cu  Cu4       1.0  0.66700  0.33300  0.17000  1.0000
  Cu  Cu5       1.0  0.00000  0.00000  0.27600  1.0000
  Cu  Cu6       1.0  0.16300  0.32600  0.32900  1.0000
  Cu  Cu7       1.0  0.16300  0.83700  0.32900  1.0000
  Cu  Cu8       1.0  0.67400  0.83700  0.32900  1.0000
  Cu  Cu9       1.0  0.20300  0.10100  0.52300  1.0000
  Cu  Cu10      1.0  0.89900  0.10100  0.52300  1.0000
  Cu  Cu11      1.0  0.89900  0.79700  0.52300  1.0000
  Cu  Cu12      1.0  0.33300  0.66700  0.67000  1.0000
  Cu  Cu13      1.0  0.00000  0.00000  0.77600  1.0000
  Cu  Cu14      1.0  0.32600  0.16300  0.82900  1.0000
  Cu  Cu15      1.0  0.83700  0.16300  0.82900  1.0000
  Cu  Cu16      1.0  0.83700  0.67400  0.82900  1.0000
  Eu  Eu1       1.0  0.52400  0.47600  0.50000  1.0000
  Eu  Eu2       1.0  0.95200  0.47600  0.50000  1.0000
  Eu  Eu3       1.0  0.52400  0.04820  0.50000  1.0000
  Eu  Eu4       1.0  0.04820  0.52400  0.00000  1.0000
  Eu  Eu5       1.0  0.47600  0.52400  0.00000  1.0000
  Eu  Eu6       1.0  0.47600  0.95200  0.00000  1.0000
  Sn  Sn1       1.0  0.33600  0.16800  0.20500  1.0000
  Sn  Sn2       1.0  0.83200  0.16800  0.20500  1.0000
  Sn  Sn3       1.0  0.83200  0.66400  0.20500  1.0000
  Sn  Sn4       1.0  0.33300  0.66700  0.31500  1.0000
  Sn  Sn5       1.0  0.16800  0.83200  0.70500  1.0000
  Sn  Sn6       1.0  0.66400  0.83200  0.70500  1.0000
  Sn  Sn7       1.0  0.16800  0.33600  0.70500  1.0000
  Sn  Sn8       1.0  0.66700  0.33300  0.81500  1.0000
