data_image0
_chemical_formula_structural       C16Ca2N12
_chemical_formula_sum              "C16 Ca2 N12"
_cell_length_a       5.51777
_cell_length_b       8.09317
_cell_length_c       10.8411
_cell_angle_alpha    90
_cell_angle_beta     90
_cell_angle_gamma    90

_space_group_name_H-M_alt    "P 1"
_space_group_IT_number       1

loop_
  _space_group_symop_operation_xyz
  'x, y, z'

loop_
  _atom_site_type_symbol
  _atom_site_label
  _atom_site_symmetry_multiplicity
  _atom_site_fract_x
  _atom_site_fract_y
  _atom_site_fract_z
  _atom_site_occupancy
  C   C1        1.0  0.31200  0.35100  0.11800  1.0000
  C   C2        1.0  0.31200  0.64900  0.11800  1.0000
  C   C3        1.0  0.41100  0.50000  0.15900  1.0000
  C   C4        1.0  0.60100  0.50000  0.24400  1.0000
  C   C5        1.0  0.60100  0.00000  0.25600  1.0000
  C   C6        1.0  0.41100  0.00000  0.34100  1.0000
  C   C7        1.0  0.31200  0.14900  0.38200  1.0000
  C   C8        1.0  0.31200  0.85100  0.38200  1.0000
  C   C9        1.0  0.68800  0.14900  0.61800  1.0000
  C   C10       1.0  0.68800  0.85100  0.61800  1.0000
  C   C11       1.0  0.58900  0.00000  0.65900  1.0000
  C   C12       1.0  0.39900  0.00000  0.74400  1.0000
  C   C13       1.0  0.39900  0.50000  0.75600  1.0000
  C   C14       1.0  0.58900  0.50000  0.84100  1.0000
  C   C15       1.0  0.68800  0.35100  0.88200  1.0000
  C   C16       1.0  0.68800  0.64900  0.88200  1.0000
  Ca  Ca1       1.0  0.00000  0.00000  0.00000  1.0000
  Ca  Ca2       1.0  0.00000  0.50000  0.50000  1.0000
  N   N1        1.0  0.22900  0.22700  0.08290  1.0000
  N   N2        1.0  0.22900  0.77300  0.08290  1.0000
  N   N3        1.0  0.75900  0.00000  0.18400  1.0000
  N   N4        1.0  0.75900  0.50000  0.31600  1.0000
  N   N5        1.0  0.22900  0.27300  0.41700  1.0000
  N   N6        1.0  0.22900  0.72700  0.41700  1.0000
  N   N7        1.0  0.77100  0.27300  0.58300  1.0000
  N   N8        1.0  0.77100  0.72700  0.58300  1.0000
  N   N9        1.0  0.24100  0.50000  0.68400  1.0000
  N   N10       1.0  0.24100  0.00000  0.81600  1.0000
  N   N11       1.0  0.77100  0.22700  0.91700  1.0000
  N   N12       1.0  0.77100  0.77300  0.91700  1.0000
