data_image0
_chemical_formula_structural       Ba2K8S16V4
_chemical_formula_sum              "Ba2 K8 S16 V4"
_cell_length_a       9.03737
_cell_length_b       10.0034
_cell_length_c       11.4443
_cell_angle_alpha    115.916
_cell_angle_beta     113.256
_cell_angle_gamma    90

_space_group_name_H-M_alt    "P 1"
_space_group_IT_number       1

loop_
  _space_group_symop_operation_xyz
  'x, y, z'

loop_
  _atom_site_type_symbol
  _atom_site_label
  _atom_site_symmetry_multiplicity
  _atom_site_fract_x
  _atom_site_fract_y
  _atom_site_fract_z
  _atom_site_occupancy
  Ba  Ba1       1.0  0.00000  0.25000  0.00000  1.0000
  Ba  Ba2       1.0  0.00000  0.75000  0.00000  1.0000
  K   K1        1.0  0.70200  0.07680  0.15400  1.0000
  K   K2        1.0  0.45100  0.57700  0.15400  1.0000
  K   K3        1.0  0.24800  0.49800  0.49700  1.0000
  K   K4        1.0  0.24800  0.99800  0.49700  1.0000
  K   K5        1.0  0.75200  0.00160  0.50300  1.0000
  K   K6        1.0  0.75200  0.50200  0.50300  1.0000
  K   K7        1.0  0.54900  0.42300  0.84600  1.0000
  K   K8        1.0  0.29800  0.92300  0.84600  1.0000
  S   S1        1.0  0.39700  0.26500  0.17700  1.0000
  S   S2        1.0  0.78000  0.41200  0.17700  1.0000
  S   S3        1.0  0.78000  0.76500  0.17700  1.0000
  S   S4        1.0  0.39700  0.91200  0.17700  1.0000
  S   S5        1.0  0.08340  0.10800  0.21600  1.0000
  S   S6        1.0  0.13300  0.60800  0.21600  1.0000
  S   S7        1.0  0.48200  0.25000  0.49900  1.0000
  S   S8        1.0  0.01720  0.75000  0.49900  1.0000
  S   S9        1.0  0.98300  0.25000  0.50100  1.0000
  S   S10       1.0  0.51800  0.75000  0.50100  1.0000
  S   S11       1.0  0.86700  0.39200  0.78400  1.0000
  S   S12       1.0  0.91700  0.89200  0.78400  1.0000
  S   S13       1.0  0.60300  0.08810  0.82300  1.0000
  S   S14       1.0  0.22000  0.23500  0.82300  1.0000
  S   S15       1.0  0.22000  0.58800  0.82300  1.0000
  S   S16       1.0  0.60300  0.73500  0.82300  1.0000
  V   V1        1.0  0.34300  0.13400  0.26800  1.0000
  V   V2        1.0  0.92500  0.63400  0.26800  1.0000
  V   V3        1.0  0.07510  0.36600  0.73200  1.0000
  V   V4        1.0  0.65700  0.86600  0.73200  1.0000
