data_image0
_chemical_formula_structural       Cs8P4Pd2Se16
_chemical_formula_sum              "Cs8 P4 Pd2 Se16"
_cell_length_a       7.66647
_cell_length_b       13.8144
_cell_length_c       10.3571
_cell_angle_alpha    90
_cell_angle_beta     93.3179
_cell_angle_gamma    90

_space_group_name_H-M_alt    "P 1"
_space_group_IT_number       1

loop_
  _space_group_symop_operation_xyz
  'x, y, z'

loop_
  _atom_site_type_symbol
  _atom_site_label
  _atom_site_symmetry_multiplicity
  _atom_site_fract_x
  _atom_site_fract_y
  _atom_site_fract_z
  _atom_site_occupancy
  Cs  Cs1       1.0  0.22600  0.85000  0.03390  1.0000
  Cs  Cs2       1.0  0.67800  0.63100  0.17200  1.0000
  Cs  Cs3       1.0  0.32200  0.13100  0.32800  1.0000
  Cs  Cs4       1.0  0.77400  0.35000  0.46600  1.0000
  Cs  Cs5       1.0  0.22600  0.65000  0.53400  1.0000
  Cs  Cs6       1.0  0.67800  0.86900  0.67200  1.0000
  Cs  Cs7       1.0  0.32200  0.36900  0.82800  1.0000
  Cs  Cs8       1.0  0.77400  0.15000  0.96600  1.0000
  P   P1        1.0  0.26200  0.41800  0.24300  1.0000
  P   P2        1.0  0.73800  0.91800  0.25700  1.0000
  P   P3        1.0  0.26200  0.08200  0.74300  1.0000
  P   P4        1.0  0.73800  0.58200  0.75700  1.0000
  Pd  Pd1       1.0  0.00000  0.50000  0.00000  1.0000
  Pd  Pd2       1.0  0.00000  0.00000  0.50000  1.0000
  Se  Se1       1.0  0.74100  0.89100  0.04940  1.0000
  Se  Se2       1.0  0.02340  0.35200  0.13500  1.0000
  Se  Se3       1.0  0.51000  0.37100  0.16600  1.0000
  Se  Se4       1.0  0.19000  0.57200  0.17800  1.0000
  Se  Se5       1.0  0.81000  0.07210  0.32200  1.0000
  Se  Se6       1.0  0.49000  0.87100  0.33400  1.0000
  Se  Se7       1.0  0.97700  0.85200  0.36500  1.0000
  Se  Se8       1.0  0.25900  0.39100  0.45100  1.0000
  Se  Se9       1.0  0.74100  0.60900  0.54900  1.0000
  Se  Se10      1.0  0.02340  0.14800  0.63500  1.0000
  Se  Se11      1.0  0.51000  0.12900  0.66600  1.0000
  Se  Se12      1.0  0.19000  0.92800  0.67800  1.0000
  Se  Se13      1.0  0.81000  0.42800  0.82200  1.0000
  Se  Se14      1.0  0.49000  0.62900  0.83400  1.0000
  Se  Se15      1.0  0.97700  0.64800  0.86500  1.0000
  Se  Se16      1.0  0.25900  0.10900  0.95100  1.0000
