data_image0
_chemical_formula_structural       Ba6Bi2Ir4O18
_chemical_formula_sum              "Ba6 Bi2 Ir4 O18"
_cell_length_a       5.93815
_cell_length_b       5.93815
_cell_length_c       14.8777
_cell_angle_alpha    90.9891
_cell_angle_beta     90.9891
_cell_angle_gamma    119.64

_space_group_name_H-M_alt    "P 1"
_space_group_IT_number       1

loop_
  _space_group_symop_operation_xyz
  'x, y, z'

loop_
  _atom_site_type_symbol
  _atom_site_label
  _atom_site_symmetry_multiplicity
  _atom_site_fract_x
  _atom_site_fract_y
  _atom_site_fract_z
  _atom_site_occupancy
  Ba  Ba1       1.0  0.34000  0.67500  0.09470  1.0000
  Ba  Ba2       1.0  0.99300  0.00730  0.25000  1.0000
  Ba  Ba3       1.0  0.32500  0.66000  0.40500  1.0000
  Ba  Ba4       1.0  0.67500  0.34000  0.59500  1.0000
  Ba  Ba5       1.0  0.00730  0.99300  0.75000  1.0000
  Ba  Ba6       1.0  0.66000  0.32500  0.90500  1.0000
  Bi  Bi1       1.0  0.00000  0.00000  0.00000  1.0000
  Bi  Bi2       1.0  0.00000  0.00000  0.50000  1.0000
  Ir  Ir1       1.0  0.67900  0.35200  0.16600  1.0000
  Ir  Ir2       1.0  0.64800  0.32100  0.33400  1.0000
  Ir  Ir3       1.0  0.35200  0.67900  0.66600  1.0000
  Ir  Ir4       1.0  0.32100  0.64800  0.83400  1.0000
  O   O1        1.0  0.39900  0.21800  0.07250  1.0000
  O   O2        1.0  0.86000  0.21200  0.09230  1.0000
  O   O3        1.0  0.86100  0.68300  0.10200  1.0000
  O   O4        1.0  0.50300  0.02370  0.23900  1.0000
  O   O5        1.0  0.50400  0.49600  0.25000  1.0000
  O   O6        1.0  0.97600  0.49700  0.26100  1.0000
  O   O7        1.0  0.31700  0.13900  0.39800  1.0000
  O   O8        1.0  0.78800  0.14000  0.40800  1.0000
  O   O9        1.0  0.78200  0.60100  0.42800  1.0000
  O   O10       1.0  0.21800  0.39900  0.57200  1.0000
  O   O11       1.0  0.21200  0.86000  0.59200  1.0000
  O   O12       1.0  0.68300  0.86100  0.60200  1.0000
  O   O13       1.0  0.02370  0.50300  0.73900  1.0000
  O   O14       1.0  0.49600  0.50400  0.75000  1.0000
  O   O15       1.0  0.49700  0.97600  0.76100  1.0000
  O   O16       1.0  0.13900  0.31700  0.89800  1.0000
  O   O17       1.0  0.14000  0.78800  0.90800  1.0000
  O   O18       1.0  0.60100  0.78200  0.92800  1.0000
