data_image0
_chemical_formula_structural       Co2O20P4Ti4
_chemical_formula_sum              "Co2 O20 P4 Ti4"
_cell_length_a       7.36094
_cell_length_b       7.31262
_cell_length_c       7.27553
_cell_angle_alpha    90
_cell_angle_beta     119.108
_cell_angle_gamma    90

_space_group_name_H-M_alt    "P 1"
_space_group_IT_number       1

loop_
  _space_group_symop_operation_xyz
  'x, y, z'

loop_
  _atom_site_type_symbol
  _atom_site_label
  _atom_site_symmetry_multiplicity
  _atom_site_fract_x
  _atom_site_fract_y
  _atom_site_fract_z
  _atom_site_occupancy
  Co  Co1       1.0  0.50000  0.00000  0.00000  1.0000
  Co  Co2       1.0  0.50000  0.50000  0.50000  1.0000
  O   O1        1.0  0.73300  0.16400  0.00763  1.0000
  O   O2        1.0  0.94000  0.75100  0.07900  1.0000
  O   O3        1.0  0.44300  0.24400  0.09810  1.0000
  O   O4        1.0  0.75400  0.51700  0.17800  1.0000
  O   O5        1.0  0.26800  0.49900  0.18000  1.0000
  O   O6        1.0  0.73200  0.99900  0.32000  1.0000
  O   O7        1.0  0.24600  0.01670  0.32200  1.0000
  O   O8        1.0  0.55700  0.74400  0.40200  1.0000
  O   O9        1.0  0.05990  0.25100  0.42100  1.0000
  O   O10       1.0  0.26700  0.66400  0.49200  1.0000
  O   O11       1.0  0.73300  0.33600  0.50800  1.0000
  O   O12       1.0  0.94000  0.74900  0.57900  1.0000
  O   O13       1.0  0.44300  0.25600  0.59800  1.0000
  O   O14       1.0  0.75400  0.98300  0.67800  1.0000
  O   O15       1.0  0.26800  0.00103  0.68000  1.0000
  O   O16       1.0  0.73200  0.50100  0.82000  1.0000
  O   O17       1.0  0.24600  0.48300  0.82200  1.0000
  O   O18       1.0  0.55700  0.75600  0.90200  1.0000
  O   O19       1.0  0.05990  0.24900  0.92100  1.0000
  O   O20       1.0  0.26700  0.83600  0.99200  1.0000
  P   P1        1.0  0.25300  0.37100  0.00382  1.0000
  P   P2        1.0  0.74700  0.87100  0.49600  1.0000
  P   P3        1.0  0.25300  0.12900  0.50400  1.0000
  P   P4        1.0  0.74700  0.62900  0.99600  1.0000
  Ti  Ti1       1.0  0.23300  0.77700  0.21200  1.0000
  Ti  Ti2       1.0  0.76700  0.27700  0.28800  1.0000
  Ti  Ti3       1.0  0.23300  0.72300  0.71200  1.0000
  Ti  Ti4       1.0  0.76700  0.22300  0.78800  1.0000
