data_image0
_chemical_formula_structural       Ca6Cu16Sn8
_chemical_formula_sum              "Ca6 Cu16 Sn8"
_cell_length_a       9.09191
_cell_length_b       9.09245
_cell_length_c       7.68934
_cell_angle_alpha    90
_cell_angle_beta     90
_cell_angle_gamma    119.998

_space_group_name_H-M_alt    "P 1"
_space_group_IT_number       1

loop_
  _space_group_symop_operation_xyz
  'x, y, z'

loop_
  _atom_site_type_symbol
  _atom_site_label
  _atom_site_symmetry_multiplicity
  _atom_site_fract_x
  _atom_site_fract_y
  _atom_site_fract_z
  _atom_site_occupancy
  Ca  Ca1       1.0  0.04680  0.52300  0.50000  1.0000
  Ca  Ca2       1.0  0.47700  0.52300  0.50000  1.0000
  Ca  Ca3       1.0  0.47700  0.95300  0.50000  1.0000
  Ca  Ca4       1.0  0.52300  0.47700  0.00000  1.0000
  Ca  Ca5       1.0  0.95300  0.47700  0.00000  1.0000
  Ca  Ca6       1.0  0.52300  0.04680  0.00000  1.0000
  Cu  Cu1       1.0  0.16400  0.83600  0.16000  1.0000
  Cu  Cu2       1.0  0.67200  0.83600  0.16000  1.0000
  Cu  Cu3       1.0  0.16400  0.32800  0.16000  1.0000
  Cu  Cu4       1.0  0.00000  0.00000  0.21800  1.0000
  Cu  Cu5       1.0  0.66700  0.33300  0.33900  1.0000
  Cu  Cu6       1.0  0.10400  0.20700  0.47000  1.0000
  Cu  Cu7       1.0  0.10400  0.89600  0.47000  1.0000
  Cu  Cu8       1.0  0.79300  0.89600  0.47000  1.0000
  Cu  Cu9       1.0  0.32800  0.16400  0.66000  1.0000
  Cu  Cu10      1.0  0.83600  0.16400  0.66000  1.0000
  Cu  Cu11      1.0  0.83600  0.67200  0.66000  1.0000
  Cu  Cu12      1.0  0.00000  0.00000  0.71800  1.0000
  Cu  Cu13      1.0  0.33300  0.66700  0.83900  1.0000
  Cu  Cu14      1.0  0.89600  0.79300  0.97000  1.0000
  Cu  Cu15      1.0  0.20700  0.10400  0.97000  1.0000
  Cu  Cu16      1.0  0.89600  0.10400  0.97000  1.0000
  Sn  Sn1       1.0  0.33300  0.66700  0.19800  1.0000
  Sn  Sn2       1.0  0.33700  0.16900  0.28800  1.0000
  Sn  Sn3       1.0  0.83100  0.16900  0.28800  1.0000
  Sn  Sn4       1.0  0.83100  0.66300  0.28900  1.0000
  Sn  Sn5       1.0  0.66700  0.33300  0.69800  1.0000
  Sn  Sn6       1.0  0.16900  0.83100  0.78800  1.0000
  Sn  Sn7       1.0  0.66300  0.83100  0.78800  1.0000
  Sn  Sn8       1.0  0.16900  0.33700  0.78900  1.0000
