data_image0
_chemical_formula_structural       O20P4Sr2V4
_chemical_formula_sum              "O20 P4 Sr2 V4"
_cell_length_a       6.91917
_cell_length_b       6.91917
_cell_length_c       8.77992
_cell_angle_alpha    102.555
_cell_angle_beta     102.555
_cell_angle_gamma    116.637

_space_group_name_H-M_alt    "P 1"
_space_group_IT_number       1

loop_
  _space_group_symop_operation_xyz
  'x, y, z'

loop_
  _atom_site_type_symbol
  _atom_site_label
  _atom_site_symmetry_multiplicity
  _atom_site_fract_x
  _atom_site_fract_y
  _atom_site_fract_z
  _atom_site_occupancy
  O   O1        1.0  0.40500  0.12000  0.02860  1.0000
  O   O2        1.0  0.63800  0.92900  0.03280  1.0000
  O   O3        1.0  0.59400  0.59600  0.16900  1.0000
  O   O4        1.0  0.92500  0.44500  0.19600  1.0000
  O   O5        1.0  0.28400  0.76900  0.20000  1.0000
  O   O6        1.0  0.33400  0.31800  0.30000  1.0000
  O   O7        1.0  0.97800  0.99800  0.30400  1.0000
  O   O8        1.0  0.67500  0.17600  0.33100  1.0000
  O   O9        1.0  0.85500  0.64600  0.46700  1.0000
  O   O10       1.0  0.62700  0.84200  0.47100  1.0000
  O   O11       1.0  0.37000  0.15500  0.52900  1.0000
  O   O12       1.0  0.17900  0.38800  0.53300  1.0000
  O   O13       1.0  0.84600  0.34400  0.66900  1.0000
  O   O14       1.0  0.69500  0.67500  0.69600  1.0000
  O   O15       1.0  0.01850  0.03430  0.70000  1.0000
  O   O16       1.0  0.56800  0.08400  0.80000  1.0000
  O   O17       1.0  0.24800  0.72800  0.80400  1.0000
  O   O18       1.0  0.42600  0.42500  0.83100  1.0000
  O   O19       1.0  0.89600  0.60500  0.96700  1.0000
  O   O20       1.0  0.09180  0.37700  0.97100  1.0000
  P   P1        1.0  0.05000  0.54900  0.08320  1.0000
  P   P2        1.0  0.21700  0.21600  0.41700  1.0000
  P   P3        1.0  0.79900  0.80000  0.58300  1.0000
  P   P4        1.0  0.46600  0.96700  0.91700  1.0000
  Sr  Sr1       1.0  0.00321  0.00321  0.00000  1.0000
  Sr  Sr2       1.0  0.25300  0.75300  0.50000  1.0000
  V   V1        1.0  0.62800  0.39900  0.24000  1.0000
  V   V2        1.0  0.63800  0.90900  0.26000  1.0000
  V   V3        1.0  0.64900  0.37800  0.74000  1.0000
  V   V4        1.0  0.15900  0.38800  0.76000  1.0000
