data_image0
_chemical_formula_structural       Ba4N16Si10
_chemical_formula_sum              "Ba4 N16 Si10"
_cell_length_a       5.78901
_cell_length_b       6.97555
_cell_length_c       9.40452
_cell_angle_alpha    90
_cell_angle_beta     90
_cell_angle_gamma    90

_space_group_name_H-M_alt    "P 1"
_space_group_IT_number       1

loop_
  _space_group_symop_operation_xyz
  'x, y, z'

loop_
  _atom_site_type_symbol
  _atom_site_label
  _atom_site_symmetry_multiplicity
  _atom_site_fract_x
  _atom_site_fract_y
  _atom_site_fract_z
  _atom_site_occupancy
  Ba  Ba1       1.0  0.00000  0.85400  0.00000  1.0000
  Ba  Ba2       1.0  0.50000  0.12200  0.13200  1.0000
  Ba  Ba3       1.0  0.50000  0.14600  0.50000  1.0000
  Ba  Ba4       1.0  0.00000  0.87800  0.63200  1.0000
  N   N1        1.0  0.00000  0.17500  0.16400  1.0000
  N   N2        1.0  0.50000  0.57900  0.23000  1.0000
  N   N3        1.0  0.00000  0.57600  0.23500  1.0000
  N   N4        1.0  0.24000  0.90500  0.33100  1.0000
  N   N5        1.0  0.76000  0.90500  0.33100  1.0000
  N   N6        1.0  0.00000  0.19700  0.47200  1.0000
  N   N7        1.0  0.25400  0.55300  0.49300  1.0000
  N   N8        1.0  0.74600  0.55300  0.49300  1.0000
  N   N9        1.0  0.50000  0.82500  0.66400  1.0000
  N   N10       1.0  0.00000  0.42100  0.73000  1.0000
  N   N11       1.0  0.50000  0.42400  0.73500  1.0000
  N   N12       1.0  0.26000  0.09460  0.83100  1.0000
  N   N13       1.0  0.74000  0.09460  0.83100  1.0000
  N   N14       1.0  0.50000  0.80300  0.97200  1.0000
  N   N15       1.0  0.24600  0.44700  0.99300  1.0000
  N   N16       1.0  0.75400  0.44700  0.99300  1.0000
  Si  Si1       1.0  0.50000  0.58100  0.03950  1.0000
  Si  Si2       1.0  0.00000  0.40000  0.10300  1.0000
  Si  Si3       1.0  0.25100  0.66300  0.32100  1.0000
  Si  Si4       1.0  0.74900  0.66300  0.32100  1.0000
  Si  Si5       1.0  0.00000  0.05180  0.32300  1.0000
  Si  Si6       1.0  0.00000  0.41900  0.53900  1.0000
  Si  Si7       1.0  0.50000  0.60000  0.60300  1.0000
  Si  Si8       1.0  0.24900  0.33700  0.82100  1.0000
  Si  Si9       1.0  0.75100  0.33700  0.82100  1.0000
  Si  Si10      1.0  0.50000  0.94800  0.82300  1.0000
