data_image0
_chemical_formula_structural       Hg2O20V8
_chemical_formula_sum              "Hg2 O20 V8"
_cell_length_a       3.65668
_cell_length_b       9.6009
_cell_length_c       11.0375
_cell_angle_alpha    90.427
_cell_angle_beta     99.5348
_cell_angle_gamma    90

_space_group_name_H-M_alt    "P 1"
_space_group_IT_number       1

loop_
  _space_group_symop_operation_xyz
  'x, y, z'

loop_
  _atom_site_type_symbol
  _atom_site_label
  _atom_site_symmetry_multiplicity
  _atom_site_fract_x
  _atom_site_fract_y
  _atom_site_fract_z
  _atom_site_occupancy
  Hg  Hg1       1.0  0.52000  0.62600  0.03970  1.0000
  Hg  Hg2       1.0  0.48000  0.37400  0.96000  1.0000
  O   O1        1.0  0.53400  0.85100  0.06800  1.0000
  O   O2        1.0  0.05790  0.29200  0.11600  1.0000
  O   O3        1.0  0.09400  0.00253  0.18800  1.0000
  O   O4        1.0  0.11400  0.58100  0.22900  1.0000
  O   O5        1.0  0.62400  0.14900  0.24900  1.0000
  O   O6        1.0  0.65800  0.83600  0.31500  1.0000
  O   O7        1.0  0.17900  0.33600  0.35800  1.0000
  O   O8        1.0  0.71000  0.54300  0.42000  1.0000
  O   O9        1.0  0.21700  0.08610  0.43500  1.0000
  O   O10       1.0  0.23000  0.72200  0.45900  1.0000
  O   O11       1.0  0.77000  0.27800  0.54100  1.0000
  O   O12       1.0  0.78300  0.91400  0.56500  1.0000
  O   O13       1.0  0.29000  0.45700  0.58000  1.0000
  O   O14       1.0  0.82100  0.66400  0.64200  1.0000
  O   O15       1.0  0.34200  0.16400  0.68500  1.0000
  O   O16       1.0  0.37600  0.85100  0.75100  1.0000
  O   O17       1.0  0.88600  0.41900  0.77100  1.0000
  O   O18       1.0  0.90600  0.99700  0.81200  1.0000
  O   O19       1.0  0.94200  0.70800  0.88400  1.0000
  O   O20       1.0  0.46600  0.14900  0.93200  1.0000
  V   V1        1.0  0.59900  0.94700  0.19700  1.0000
  V   V2        1.0  0.12000  0.19900  0.24000  1.0000
  V   V3        1.0  0.18700  0.53900  0.37500  1.0000
  V   V4        1.0  0.74200  0.77000  0.48400  1.0000
  V   V5        1.0  0.25800  0.23000  0.51600  1.0000
  V   V6        1.0  0.81300  0.46100  0.62500  1.0000
  V   V7        1.0  0.88000  0.80100  0.76000  1.0000
  V   V8        1.0  0.40100  0.05300  0.80300  1.0000
