data_image0
_chemical_formula_structural       BaF22Sb2Xe5
_chemical_formula_sum              "Ba1 F22 Sb2 Xe5"
_cell_length_a       8.77067
_cell_length_b       8.77055
_cell_length_c       8.82772
_cell_angle_alpha    115.245
_cell_angle_beta     115.244
_cell_angle_gamma    98.1358

_space_group_name_H-M_alt    "P 1"
_space_group_IT_number       1

loop_
  _space_group_symop_operation_xyz
  'x, y, z'

loop_
  _atom_site_type_symbol
  _atom_site_label
  _atom_site_symmetry_multiplicity
  _atom_site_fract_x
  _atom_site_fract_y
  _atom_site_fract_z
  _atom_site_occupancy
  Ba  Ba1       1.0  0.00000  0.00000  0.00000  1.0000
  F   F1        1.0  0.30100  0.09950  0.00000  1.0000
  F   F2        1.0  0.09950  0.30100  0.00000  1.0000
  F   F3        1.0  0.90100  0.70000  0.00013  1.0000
  F   F4        1.0  0.65600  0.34600  0.00158  1.0000
  F   F5        1.0  0.29200  0.93200  0.22400  1.0000
  F   F6        1.0  0.93200  0.29200  0.22400  1.0000
  F   F7        1.0  0.74800  0.95300  0.33800  1.0000
  F   F8        1.0  0.38500  0.59000  0.33800  1.0000
  F   F9        1.0  0.59000  0.38400  0.33900  1.0000
  F   F10       1.0  0.95400  0.74800  0.33900  1.0000
  F   F11       1.0  0.06220  0.06270  0.34700  1.0000
  F   F12       1.0  0.28400  0.28400  0.34700  1.0000
  F   F13       1.0  0.93800  0.93700  0.65300  1.0000
  F   F14       1.0  0.71600  0.71600  0.65300  1.0000
  F   F15       1.0  0.41000  0.61600  0.66100  1.0000
  F   F16       1.0  0.04560  0.25200  0.66100  1.0000
  F   F17       1.0  0.25200  0.04720  0.66200  1.0000
  F   F18       1.0  0.61500  0.41000  0.66200  1.0000
  F   F19       1.0  0.06790  0.70800  0.77600  1.0000
  F   F20       1.0  0.70800  0.06800  0.77600  1.0000
  F   F21       1.0  0.34400  0.65400  0.99800  1.0000
  F   F22       1.0  0.69900  0.90000  0.00000  1.0000
  Sb  Sb1       1.0  0.00000  0.00000  0.50000  1.0000
  Sb  Sb2       1.0  0.50000  0.50000  0.50000  1.0000
  Xe  Xe1       1.0  0.00019  0.50000  0.00027  1.0000
  Xe  Xe2       1.0  0.50000  0.00000  0.50000  1.0000
  Xe  Xe3       1.0  0.00000  0.50000  0.50000  1.0000
  Xe  Xe4       1.0  0.50000  0.50000  0.00000  1.0000
  Xe  Xe5       1.0  0.50000  0.00000  0.00000  1.0000
