data_image0
_chemical_formula_structural       Ba6O18Ru4Sr2
_chemical_formula_sum              "Ba6 O18 Ru4 Sr2"
_cell_length_a       5.96016
_cell_length_b       5.96016
_cell_length_c       15.2165
_cell_angle_alpha    90.8625
_cell_angle_beta     90.8625
_cell_angle_gamma    119.651

_space_group_name_H-M_alt    "P 1"
_space_group_IT_number       1

loop_
  _space_group_symop_operation_xyz
  'x, y, z'

loop_
  _atom_site_type_symbol
  _atom_site_label
  _atom_site_symmetry_multiplicity
  _atom_site_fract_x
  _atom_site_fract_y
  _atom_site_fract_z
  _atom_site_occupancy
  Ba  Ba1       1.0  0.34800  0.67700  0.10400  1.0000
  Ba  Ba2       1.0  0.99400  0.00566  0.25000  1.0000
  Ba  Ba3       1.0  0.32300  0.65200  0.39600  1.0000
  Ba  Ba4       1.0  0.67700  0.34800  0.60400  1.0000
  Ba  Ba5       1.0  0.00566  0.99400  0.75000  1.0000
  Ba  Ba6       1.0  0.65200  0.32300  0.89600  1.0000
  O   O1        1.0  0.41600  0.22400  0.07420  1.0000
  O   O2        1.0  0.88000  0.22300  0.10100  1.0000
  O   O3        1.0  0.87400  0.68600  0.10900  1.0000
  O   O4        1.0  0.51600  0.03580  0.23600  1.0000
  O   O5        1.0  0.51400  0.48600  0.25000  1.0000
  O   O6        1.0  0.96400  0.48400  0.26400  1.0000
  O   O7        1.0  0.31400  0.12600  0.39100  1.0000
  O   O8        1.0  0.77700  0.12000  0.39900  1.0000
  O   O9        1.0  0.77600  0.58400  0.42600  1.0000
  O   O10       1.0  0.22400  0.41600  0.57400  1.0000
  O   O11       1.0  0.22300  0.88000  0.60100  1.0000
  O   O12       1.0  0.68600  0.87400  0.60900  1.0000
  O   O13       1.0  0.03580  0.51600  0.73600  1.0000
  O   O14       1.0  0.48600  0.51400  0.75000  1.0000
  O   O15       1.0  0.48400  0.96400  0.76400  1.0000
  O   O16       1.0  0.12600  0.31400  0.89100  1.0000
  O   O17       1.0  0.12000  0.77700  0.89900  1.0000
  O   O18       1.0  0.58400  0.77600  0.92600  1.0000
  Ru  Ru1       1.0  0.69000  0.35400  0.16000  1.0000
  Ru  Ru2       1.0  0.64600  0.31000  0.34000  1.0000
  Ru  Ru3       1.0  0.35400  0.69000  0.66000  1.0000
  Ru  Ru4       1.0  0.31000  0.64600  0.84000  1.0000
  Sr  Sr1       1.0  0.00000  0.00000  0.00000  1.0000
  Sr  Sr2       1.0  0.00000  0.00000  0.50000  1.0000
