data_image0
_chemical_formula_structural       Mn4P24Ti2
_chemical_formula_sum              "Mn4 P24 Ti2"
_cell_length_a       5.78841
_cell_length_b       8.50887
_cell_length_c       10.6175
_cell_angle_alpha    113.572
_cell_angle_beta     90
_cell_angle_gamma    109.885

_space_group_name_H-M_alt    "P 1"
_space_group_IT_number       1

loop_
  _space_group_symop_operation_xyz
  'x, y, z'

loop_
  _atom_site_type_symbol
  _atom_site_label
  _atom_site_symmetry_multiplicity
  _atom_site_fract_x
  _atom_site_fract_y
  _atom_site_fract_z
  _atom_site_occupancy
  Mn  Mn1       1.0  0.99200  0.36500  0.04610  1.0000
  Mn  Mn2       1.0  0.62700  0.63500  0.45400  1.0000
  Mn  Mn3       1.0  0.37300  0.36500  0.54600  1.0000
  Mn  Mn4       1.0  0.00753  0.63500  0.95400  1.0000
  P   P1        1.0  0.56700  0.23400  0.00569  1.0000
  P   P2        1.0  0.01540  0.93400  0.07260  1.0000
  P   P3        1.0  0.40400  0.45200  0.07500  1.0000
  P   P4        1.0  0.99500  0.64400  0.16500  1.0000
  P   P5        1.0  0.41500  0.12300  0.16700  1.0000
  P   P6        1.0  0.97900  0.31100  0.24200  1.0000
  P   P7        1.0  0.66800  0.68900  0.25800  1.0000
  P   P8        1.0  0.29200  0.87700  0.33300  1.0000
  P   P9        1.0  0.35100  0.35600  0.33500  1.0000
  P   P10       1.0  0.95200  0.54800  0.42500  1.0000
  P   P11       1.0  0.08160  0.06630  0.42700  1.0000
  P   P12       1.0  0.33400  0.76600  0.49400  1.0000
  P   P13       1.0  0.66600  0.23400  0.50600  1.0000
  P   P14       1.0  0.91800  0.93400  0.57300  1.0000
  P   P15       1.0  0.04800  0.45200  0.57500  1.0000
  P   P16       1.0  0.64900  0.64400  0.66500  1.0000
  P   P17       1.0  0.70800  0.12300  0.66700  1.0000
  P   P18       1.0  0.33200  0.31100  0.74200  1.0000
  P   P19       1.0  0.02110  0.68900  0.75800  1.0000
  P   P20       1.0  0.58500  0.87700  0.83300  1.0000
  P   P21       1.0  0.00529  0.35600  0.83500  1.0000
  P   P22       1.0  0.59600  0.54800  0.92500  1.0000
  P   P23       1.0  0.98500  0.06630  0.92700  1.0000
  P   P24       1.0  0.43300  0.76600  0.99400  1.0000
  Ti  Ti1       1.0  0.69700  0.00000  0.25000  1.0000
  Ti  Ti2       1.0  0.30300  0.00000  0.75000  1.0000
