data_image0
_chemical_formula_structural       Ba6Ir4Na2O18
_chemical_formula_sum              "Ba6 Ir4 Na2 O18"
_cell_length_a       5.78376
_cell_length_b       5.78376
_cell_length_c       14.3608
_cell_angle_alpha    89.707
_cell_angle_beta     90.293
_cell_angle_gamma    60.0373

_space_group_name_H-M_alt    "P 1"
_space_group_IT_number       1

loop_
  _space_group_symop_operation_xyz
  'x, y, z'

loop_
  _atom_site_type_symbol
  _atom_site_label
  _atom_site_symmetry_multiplicity
  _atom_site_fract_x
  _atom_site_fract_y
  _atom_site_fract_z
  _atom_site_occupancy
  Ba  Ba1       1.0  0.00000  0.00000  0.25000  1.0000
  Ba  Ba2       1.0  0.00047  0.00047  0.75000  1.0000
  Ba  Ba3       1.0  0.66500  0.66900  0.91600  1.0000
  Ba  Ba4       1.0  0.66900  0.66500  0.58400  1.0000
  Ba  Ba5       1.0  0.33500  0.33100  0.08430  1.0000
  Ba  Ba6       1.0  0.33100  0.33500  0.41600  1.0000
  Ir  Ir1       1.0  0.67000  0.66200  0.16100  1.0000
  Ir  Ir2       1.0  0.66200  0.67000  0.33900  1.0000
  Ir  Ir3       1.0  0.33000  0.33800  0.83900  1.0000
  Ir  Ir4       1.0  0.33800  0.33000  0.66100  1.0000
  Na  Na1       1.0  0.00000  0.00000  0.00000  1.0000
  Na  Na2       1.0  0.00000  0.00000  0.50000  1.0000
  O   O1        1.0  0.16900  0.65500  0.91000  1.0000
  O   O2        1.0  0.65500  0.16900  0.59000  1.0000
  O   O3        1.0  0.83100  0.34500  0.09020  1.0000
  O   O4        1.0  0.34500  0.83100  0.41000  1.0000
  O   O5        1.0  0.81600  0.83100  0.41200  1.0000
  O   O6        1.0  0.83100  0.81600  0.08800  1.0000
  O   O7        1.0  0.18400  0.16900  0.58800  1.0000
  O   O8        1.0  0.16900  0.18400  0.91200  1.0000
  O   O9        1.0  0.81600  0.36100  0.41500  1.0000
  O   O10       1.0  0.36100  0.81600  0.08460  1.0000
  O   O11       1.0  0.18400  0.63900  0.58500  1.0000
  O   O12       1.0  0.63900  0.18400  0.91500  1.0000
  O   O13       1.0  0.50600  0.50600  0.25000  1.0000
  O   O14       1.0  0.49400  0.49400  0.75000  1.0000
  O   O15       1.0  0.50600  0.98600  0.24700  1.0000
  O   O16       1.0  0.98600  0.50600  0.25300  1.0000
  O   O17       1.0  0.49400  0.01420  0.75300  1.0000
  O   O18       1.0  0.01420  0.49400  0.74700  1.0000
