data_image0
_chemical_formula_structural       Na12Se14Sn4
_chemical_formula_sum              "Na12 Se14 Sn4"
_cell_length_a       7.4042
_cell_length_b       7.4042
_cell_length_c       16.0346
_cell_angle_alpha    99.4648
_cell_angle_beta     99.4648
_cell_angle_gamma    98.5142

_space_group_name_H-M_alt    "P 1"
_space_group_IT_number       1

loop_
  _space_group_symop_operation_xyz
  'x, y, z'

loop_
  _atom_site_type_symbol
  _atom_site_label
  _atom_site_symmetry_multiplicity
  _atom_site_fract_x
  _atom_site_fract_y
  _atom_site_fract_z
  _atom_site_occupancy
  Na  Na1       1.0  0.50000  0.50000  0.00000  1.0000
  Na  Na2       1.0  0.96300  0.25200  0.07330  1.0000
  Na  Na3       1.0  0.50300  0.04600  0.13900  1.0000
  Na  Na4       1.0  0.42700  0.57300  0.25000  1.0000
  Na  Na5       1.0  0.95400  0.49700  0.36100  1.0000
  Na  Na6       1.0  0.74800  0.03720  0.42700  1.0000
  Na  Na7       1.0  0.50000  0.50000  0.50000  1.0000
  Na  Na8       1.0  0.25200  0.96300  0.57300  1.0000
  Na  Na9       1.0  0.04600  0.50300  0.63900  1.0000
  Na  Na10      1.0  0.57300  0.42700  0.75000  1.0000
  Na  Na11      1.0  0.49700  0.95400  0.86100  1.0000
  Na  Na12      1.0  0.03720  0.74800  0.92700  1.0000
  Se  Se1       1.0  0.73000  0.86700  0.01590  1.0000
  Se  Se2       1.0  0.23300  0.68500  0.10200  1.0000
  Se  Se3       1.0  0.74900  0.47700  0.18100  1.0000
  Se  Se4       1.0  0.94800  0.05180  0.25000  1.0000
  Se  Se5       1.0  0.52300  0.25100  0.31900  1.0000
  Se  Se6       1.0  0.31500  0.76700  0.39800  1.0000
  Se  Se7       1.0  0.13300  0.27000  0.48400  1.0000
  Se  Se8       1.0  0.86700  0.73000  0.51600  1.0000
  Se  Se9       1.0  0.68500  0.23300  0.60200  1.0000
  Se  Se10      1.0  0.47700  0.74900  0.68100  1.0000
  Se  Se11      1.0  0.05180  0.94800  0.75000  1.0000
  Se  Se12      1.0  0.25100  0.52300  0.81900  1.0000
  Se  Se13      1.0  0.76700  0.31500  0.89800  1.0000
  Se  Se14      1.0  0.27000  0.13300  0.98400  1.0000
  Sn  Sn1       1.0  0.92700  0.75400  0.13600  1.0000
  Sn  Sn2       1.0  0.24600  0.07290  0.36400  1.0000
  Sn  Sn3       1.0  0.75400  0.92700  0.63600  1.0000
  Sn  Sn4       1.0  0.07290  0.24600  0.86400  1.0000
