data_image0
_chemical_formula_structural       As8Nd4O18
_chemical_formula_sum              "As8 Nd4 O18"
_cell_length_a       6.85156
_cell_length_b       7.64318
_cell_length_c       9.41496
_cell_angle_alpha    97.1052
_cell_angle_beta     103.316
_cell_angle_gamma    104.641

_space_group_name_H-M_alt    "P 1"
_space_group_IT_number       1

loop_
  _space_group_symop_operation_xyz
  'x, y, z'

loop_
  _atom_site_type_symbol
  _atom_site_label
  _atom_site_symmetry_multiplicity
  _atom_site_fract_x
  _atom_site_fract_y
  _atom_site_fract_z
  _atom_site_occupancy
  As  As1       1.0  0.31300  0.35800  0.21600  1.0000
  As  As2       1.0  0.25300  0.92400  0.22300  1.0000
  As  As3       1.0  0.67500  0.76100  0.42800  1.0000
  As  As4       1.0  0.82200  0.23600  0.44800  1.0000
  As  As5       1.0  0.17800  0.76400  0.55200  1.0000
  As  As6       1.0  0.32500  0.23900  0.57200  1.0000
  As  As7       1.0  0.74700  0.07630  0.77700  1.0000
  As  As8       1.0  0.68700  0.64200  0.78400  1.0000
  Nd  Nd1       1.0  0.77700  0.46800  0.09320  1.0000
  Nd  Nd2       1.0  0.75000  0.94600  0.12100  1.0000
  Nd  Nd3       1.0  0.25000  0.05400  0.87900  1.0000
  Nd  Nd4       1.0  0.22300  0.53200  0.90700  1.0000
  O   O1        1.0  0.40800  0.33300  0.05320  1.0000
  O   O2        1.0  0.34500  0.86900  0.06340  1.0000
  O   O3        1.0  0.12800  0.46300  0.13500  1.0000
  O   O4        1.0  0.13700  0.10600  0.15100  1.0000
  O   O5        1.0  0.99800  0.77600  0.18200  1.0000
  O   O6        1.0  0.61700  0.66200  0.24000  1.0000
  O   O7        1.0  0.76200  0.25200  0.25900  1.0000
  O   O8        1.0  0.81400  0.98900  0.39400  1.0000
  O   O9        1.0  0.10700  0.33000  0.49400  1.0000
  O   O10       1.0  0.89300  0.67000  0.50600  1.0000
  O   O11       1.0  0.18600  0.01120  0.60600  1.0000
  O   O12       1.0  0.23800  0.74800  0.74100  1.0000
  O   O13       1.0  0.38300  0.33800  0.76000  1.0000
  O   O14       1.0  0.00208  0.22400  0.81800  1.0000
  O   O15       1.0  0.86300  0.89400  0.84900  1.0000
  O   O16       1.0  0.87200  0.53700  0.86500  1.0000
  O   O17       1.0  0.65500  0.13100  0.93700  1.0000
  O   O18       1.0  0.59200  0.66700  0.94700  1.0000
