data_image0
_chemical_formula_structural       Ni2O18Se6Sr4
_chemical_formula_sum              "Ni2 O18 Se6 Sr4"
_cell_length_a       7.24253
_cell_length_b       7.50699
_cell_length_c       8.68562
_cell_angle_alpha    102.883
_cell_angle_beta     105.374
_cell_angle_gamma    95.343

_space_group_name_H-M_alt    "P 1"
_space_group_IT_number       1

loop_
  _space_group_symop_operation_xyz
  'x, y, z'

loop_
  _atom_site_type_symbol
  _atom_site_label
  _atom_site_symmetry_multiplicity
  _atom_site_fract_x
  _atom_site_fract_y
  _atom_site_fract_z
  _atom_site_occupancy
  Ni  Ni1       1.0  0.59600  0.33100  0.25400  1.0000
  Ni  Ni2       1.0  0.40400  0.66900  0.74600  1.0000
  O   O1        1.0  0.72800  0.40400  0.08770  1.0000
  O   O2        1.0  0.32700  0.35500  0.11500  1.0000
  O   O3        1.0  0.97500  0.70900  0.15200  1.0000
  O   O4        1.0  0.64000  0.04530  0.15300  1.0000
  O   O5        1.0  0.01140  0.12200  0.18200  1.0000
  O   O6        1.0  0.36900  0.75300  0.32500  1.0000
  O   O7        1.0  0.43400  0.18500  0.35500  1.0000
  O   O8        1.0  0.86500  0.29900  0.40800  1.0000
  O   O9        1.0  0.67300  0.58000  0.42200  1.0000
  O   O10       1.0  0.32700  0.42000  0.57800  1.0000
  O   O11       1.0  0.13500  0.70100  0.59200  1.0000
  O   O12       1.0  0.56600  0.81500  0.64500  1.0000
  O   O13       1.0  0.63100  0.24700  0.67500  1.0000
  O   O14       1.0  0.98900  0.87800  0.81800  1.0000
  O   O15       1.0  0.36000  0.95500  0.84700  1.0000
  O   O16       1.0  0.02510  0.29100  0.84800  1.0000
  O   O17       1.0  0.67300  0.64500  0.88500  1.0000
  O   O18       1.0  0.27200  0.59600  0.91200  1.0000
  Se  Se1       1.0  0.72900  0.63800  0.08960  1.0000
  Se  Se2       1.0  0.86500  0.07560  0.29900  1.0000
  Se  Se3       1.0  0.59900  0.79400  0.45300  1.0000
  Se  Se4       1.0  0.40100  0.20600  0.54700  1.0000
  Se  Se5       1.0  0.13500  0.92400  0.70100  1.0000
  Se  Se6       1.0  0.27100  0.36200  0.91000  1.0000
  Sr  Sr1       1.0  0.25500  0.91600  0.10700  1.0000
  Sr  Sr2       1.0  0.12500  0.48200  0.30600  1.0000
  Sr  Sr3       1.0  0.87500  0.51800  0.69400  1.0000
  Sr  Sr4       1.0  0.74500  0.08410  0.89300  1.0000
