data_image0
_chemical_formula_structural       Mn23Yb6
_chemical_formula_sum              "Mn23 Yb6"
_cell_length_a       8.61018
_cell_length_b       8.61018
_cell_length_c       8.61018
_cell_angle_alpha    120
_cell_angle_beta     90
_cell_angle_gamma    120

_space_group_name_H-M_alt    "P 1"
_space_group_IT_number       1

loop_
  _space_group_symop_operation_xyz
  'x, y, z'

loop_
  _atom_site_type_symbol
  _atom_site_label
  _atom_site_symmetry_multiplicity
  _atom_site_fract_x
  _atom_site_fract_y
  _atom_site_fract_z
  _atom_site_occupancy
  Mn  Mn1       1.0  0.00000  0.00000  0.00000  1.0000
  Mn  Mn2       1.0  0.50000  0.00000  0.00000  1.0000
  Mn  Mn3       1.0  0.00000  0.50000  0.00000  1.0000
  Mn  Mn4       1.0  0.50000  0.50000  0.00000  1.0000
  Mn  Mn5       1.0  0.67700  0.35400  0.03150  1.0000
  Mn  Mn6       1.0  0.35700  0.23800  0.11900  1.0000
  Mn  Mn7       1.0  0.88100  0.23800  0.11900  1.0000
  Mn  Mn8       1.0  0.88100  0.76200  0.11900  1.0000
  Mn  Mn9       1.0  0.67700  0.35400  0.32300  1.0000
  Mn  Mn10      1.0  0.67700  0.64600  0.32300  1.0000
  Mn  Mn11      1.0  0.96800  0.64600  0.32300  1.0000
  Mn  Mn12      1.0  0.11900  0.23800  0.35700  1.0000
  Mn  Mn13      1.0  0.00000  0.00000  0.50000  1.0000
  Mn  Mn14      1.0  0.00000  0.50000  0.50000  1.0000
  Mn  Mn15      1.0  0.50000  0.50000  0.50000  1.0000
  Mn  Mn16      1.0  0.88100  0.76200  0.64300  1.0000
  Mn  Mn17      1.0  0.03150  0.35400  0.67700  1.0000
  Mn  Mn18      1.0  0.32300  0.35400  0.67700  1.0000
  Mn  Mn19      1.0  0.32300  0.64600  0.67700  1.0000
  Mn  Mn20      1.0  0.11900  0.23800  0.88100  1.0000
  Mn  Mn21      1.0  0.11900  0.76200  0.88100  1.0000
  Mn  Mn22      1.0  0.64300  0.76200  0.88100  1.0000
  Mn  Mn23      1.0  0.32300  0.64600  0.96800  1.0000
  Yb  Yb1       1.0  0.29400  0.00000  0.29400  1.0000
  Yb  Yb2       1.0  0.70600  0.00000  0.29400  1.0000
  Yb  Yb3       1.0  0.29400  0.58700  0.29400  1.0000
  Yb  Yb4       1.0  0.29400  0.00000  0.70600  1.0000
  Yb  Yb5       1.0  0.70600  0.00000  0.70600  1.0000
  Yb  Yb6       1.0  0.70600  0.41300  0.70600  1.0000
