data_image0
_chemical_formula_structural       N16Si10Sr4
_chemical_formula_sum              "N16 Si10 Sr4"
_cell_length_a       5.70733
_cell_length_b       6.83171
_cell_length_c       9.34797
_cell_angle_alpha    90
_cell_angle_beta     90
_cell_angle_gamma    90

_space_group_name_H-M_alt    "P 1"
_space_group_IT_number       1

loop_
  _space_group_symop_operation_xyz
  'x, y, z'

loop_
  _atom_site_type_symbol
  _atom_site_label
  _atom_site_symmetry_multiplicity
  _atom_site_fract_x
  _atom_site_fract_y
  _atom_site_fract_z
  _atom_site_occupancy
  N   N1        1.0  0.24900  0.44400  0.01120  1.0000
  N   N2        1.0  0.75100  0.44400  0.01120  1.0000
  N   N3        1.0  0.50000  0.81100  0.02080  1.0000
  N   N4        1.0  0.25000  0.08620  0.17200  1.0000
  N   N5        1.0  0.75000  0.08620  0.17200  1.0000
  N   N6        1.0  0.00000  0.42900  0.27200  1.0000
  N   N7        1.0  0.50000  0.41400  0.27300  1.0000
  N   N8        1.0  0.50000  0.82700  0.33900  1.0000
  N   N9        1.0  0.25100  0.55600  0.51100  1.0000
  N   N10       1.0  0.74900  0.55600  0.51100  1.0000
  N   N11       1.0  0.00000  0.18900  0.52100  1.0000
  N   N12       1.0  0.25000  0.91400  0.67200  1.0000
  N   N13       1.0  0.75000  0.91400  0.67200  1.0000
  N   N14       1.0  0.50000  0.57100  0.77200  1.0000
  N   N15       1.0  0.00000  0.58600  0.77300  1.0000
  N   N16       1.0  0.00000  0.17300  0.83900  1.0000
  Si  Si1       1.0  0.50000  0.94600  0.17700  1.0000
  Si  Si2       1.0  0.24800  0.33300  0.18300  1.0000
  Si  Si3       1.0  0.75200  0.33300  0.18300  1.0000
  Si  Si4       1.0  0.50000  0.59900  0.40200  1.0000
  Si  Si5       1.0  0.00000  0.42000  0.46100  1.0000
  Si  Si6       1.0  0.00000  0.05420  0.67700  1.0000
  Si  Si7       1.0  0.25200  0.66700  0.68300  1.0000
  Si  Si8       1.0  0.74800  0.66700  0.68300  1.0000
  Si  Si9       1.0  0.00000  0.40100  0.90200  1.0000
  Si  Si10      1.0  0.50000  0.58000  0.96100  1.0000
  Sr  Sr1       1.0  0.00000  0.88200  0.36800  1.0000
  Sr  Sr2       1.0  0.50000  0.12900  0.50000  1.0000
  Sr  Sr3       1.0  0.50000  0.11800  0.86800  1.0000
  Sr  Sr4       1.0  0.00000  0.87100  0.00000  1.0000
