data_image0
_chemical_formula_structural       F6O18Re6
_chemical_formula_sum              "F6 O18 Re6"
_cell_length_a       6.68645
_cell_length_b       5.6914
_cell_length_c       9.84014
_cell_angle_alpha    90
_cell_angle_beta     90.132
_cell_angle_gamma    90

_space_group_name_H-M_alt    "P 1"
_space_group_IT_number       1

loop_
  _space_group_symop_operation_xyz
  'x, y, z'

loop_
  _atom_site_type_symbol
  _atom_site_label
  _atom_site_symmetry_multiplicity
  _atom_site_fract_x
  _atom_site_fract_y
  _atom_site_fract_z
  _atom_site_occupancy
  F   F1        1.0  0.83300  0.76100  0.18400  1.0000
  F   F2        1.0  0.50000  0.96300  0.25000  1.0000
  F   F3        1.0  0.16700  0.76100  0.31600  1.0000
  F   F4        1.0  0.83300  0.23900  0.68400  1.0000
  F   F5        1.0  0.50000  0.03720  0.75000  1.0000
  F   F6        1.0  0.16700  0.23900  0.81600  1.0000
  O   O1        1.0  0.50900  0.24200  0.00313  1.0000
  O   O2        1.0  0.18200  0.48700  0.08030  1.0000
  O   O3        1.0  0.16500  0.97600  0.10100  1.0000
  O   O4        1.0  0.84300  0.24700  0.16300  1.0000
  O   O5        1.0  0.50000  0.53300  0.25000  1.0000
  O   O6        1.0  0.15700  0.24700  0.33700  1.0000
  O   O7        1.0  0.83500  0.97600  0.39900  1.0000
  O   O8        1.0  0.81800  0.48700  0.42000  1.0000
  O   O9        1.0  0.49100  0.24200  0.49700  1.0000
  O   O10       1.0  0.50900  0.75800  0.50300  1.0000
  O   O11       1.0  0.18200  0.51300  0.58000  1.0000
  O   O12       1.0  0.16500  0.02450  0.60100  1.0000
  O   O13       1.0  0.84300  0.75300  0.66300  1.0000
  O   O14       1.0  0.50000  0.46700  0.75000  1.0000
  O   O15       1.0  0.15700  0.75300  0.83700  1.0000
  O   O16       1.0  0.83500  0.02450  0.89900  1.0000
  O   O17       1.0  0.81800  0.51300  0.92000  1.0000
  O   O18       1.0  0.49100  0.75800  0.99700  1.0000
  Re  Re1       1.0  0.33400  0.71100  0.13100  1.0000
  Re  Re2       1.0  0.00000  0.06390  0.25000  1.0000
  Re  Re3       1.0  0.66600  0.71100  0.36900  1.0000
  Re  Re4       1.0  0.33400  0.28900  0.63100  1.0000
  Re  Re5       1.0  0.00000  0.93600  0.75000  1.0000
  Re  Re6       1.0  0.66600  0.28900  0.86900  1.0000
