data_image0
_chemical_formula_structural       Co8Nb8Si14
_chemical_formula_sum              "Co8 Nb8 Si14"
_cell_length_a       4.98455
_cell_length_b       9.21574
_cell_length_c       9.21574
_cell_angle_alpha    94.1941
_cell_angle_beta     105.69
_cell_angle_gamma    74.3097

_space_group_name_H-M_alt    "P 1"
_space_group_IT_number       1

loop_
  _space_group_symop_operation_xyz
  'x, y, z'

loop_
  _atom_site_type_symbol
  _atom_site_label
  _atom_site_symmetry_multiplicity
  _atom_site_fract_x
  _atom_site_fract_y
  _atom_site_fract_z
  _atom_site_occupancy
  Co  Co1       1.0  0.10100  0.50000  0.20300  1.0000
  Co  Co2       1.0  0.60100  0.50000  0.20300  1.0000
  Co  Co3       1.0  0.39900  0.20300  0.50000  1.0000
  Co  Co4       1.0  0.89900  0.20300  0.50000  1.0000
  Co  Co5       1.0  0.10100  0.79700  0.50000  1.0000
  Co  Co6       1.0  0.60100  0.79700  0.50000  1.0000
  Co  Co7       1.0  0.39900  0.50000  0.79700  1.0000
  Co  Co8       1.0  0.89900  0.50000  0.79700  1.0000
  Nb  Nb1       1.0  0.86600  0.26800  0.00000  1.0000
  Nb  Nb2       1.0  0.13400  0.73200  0.00000  1.0000
  Nb  Nb3       1.0  0.50000  0.19100  0.19100  1.0000
  Nb  Nb4       1.0  0.69100  0.80900  0.19100  1.0000
  Nb  Nb5       1.0  0.13400  0.00000  0.26800  1.0000
  Nb  Nb6       1.0  0.86600  0.00000  0.73200  1.0000
  Nb  Nb7       1.0  0.30900  0.19100  0.80900  1.0000
  Nb  Nb8       1.0  0.50000  0.80900  0.80900  1.0000
  Si  Si1       1.0  0.24900  0.00000  0.00000  1.0000
  Si  Si2       1.0  0.75100  0.00000  0.00000  1.0000
  Si  Si3       1.0  0.29100  0.41700  0.00000  1.0000
  Si  Si4       1.0  0.70900  0.58300  0.00000  1.0000
  Si  Si5       1.0  0.00000  0.29700  0.29700  1.0000
  Si  Si6       1.0  0.29700  0.70300  0.29700  1.0000
  Si  Si7       1.0  0.50000  0.40600  0.40600  1.0000
  Si  Si8       1.0  0.90600  0.59400  0.40600  1.0000
  Si  Si9       1.0  0.70900  0.00000  0.41700  1.0000
  Si  Si10      1.0  0.29100  0.00000  0.58300  1.0000
  Si  Si11      1.0  0.09420  0.40600  0.59400  1.0000
  Si  Si12      1.0  0.50000  0.59400  0.59400  1.0000
  Si  Si13      1.0  0.70300  0.29700  0.70300  1.0000
  Si  Si14      1.0  0.00000  0.70300  0.70300  1.0000
