data_image0
_chemical_formula_structural       Co8Hf8Si14
_chemical_formula_sum              "Co8 Hf8 Si14"
_cell_length_a       5.03538
_cell_length_b       9.41464
_cell_length_c       9.41464
_cell_angle_alpha    94.101
_cell_angle_beta     74.489
_cell_angle_gamma    105.511

_space_group_name_H-M_alt    "P 1"
_space_group_IT_number       1

loop_
  _space_group_symop_operation_xyz
  'x, y, z'

loop_
  _atom_site_type_symbol
  _atom_site_label
  _atom_site_symmetry_multiplicity
  _atom_site_fract_x
  _atom_site_fract_y
  _atom_site_fract_z
  _atom_site_occupancy
  Co  Co1       1.0  0.39800  0.50000  0.20400  1.0000
  Co  Co2       1.0  0.89800  0.50000  0.20400  1.0000
  Co  Co3       1.0  0.10200  0.20400  0.50000  1.0000
  Co  Co4       1.0  0.60200  0.20400  0.50000  1.0000
  Co  Co5       1.0  0.39800  0.79600  0.50000  1.0000
  Co  Co6       1.0  0.89800  0.79600  0.50000  1.0000
  Co  Co7       1.0  0.10200  0.50000  0.79600  1.0000
  Co  Co8       1.0  0.60200  0.50000  0.79600  1.0000
  Hf  Hf1       1.0  0.13700  0.27500  0.00000  1.0000
  Hf  Hf2       1.0  0.86300  0.72500  0.00000  1.0000
  Hf  Hf3       1.0  0.30400  0.80400  0.19600  1.0000
  Hf  Hf4       1.0  0.50000  0.19600  0.19600  1.0000
  Hf  Hf5       1.0  0.86300  0.00000  0.27500  1.0000
  Hf  Hf6       1.0  0.13700  0.00000  0.72500  1.0000
  Hf  Hf7       1.0  0.50000  0.80400  0.80400  1.0000
  Hf  Hf8       1.0  0.69600  0.19600  0.80400  1.0000
  Si  Si1       1.0  0.25000  0.00000  0.00000  1.0000
  Si  Si2       1.0  0.75000  0.00000  0.00000  1.0000
  Si  Si3       1.0  0.71000  0.42000  0.00000  1.0000
  Si  Si4       1.0  0.29000  0.58000  0.00000  1.0000
  Si  Si5       1.0  0.00000  0.30100  0.30100  1.0000
  Si  Si6       1.0  0.69900  0.69900  0.30100  1.0000
  Si  Si7       1.0  0.09200  0.59200  0.40800  1.0000
  Si  Si8       1.0  0.50000  0.40800  0.40800  1.0000
  Si  Si9       1.0  0.29000  0.00000  0.42000  1.0000
  Si  Si10      1.0  0.71000  0.00000  0.58000  1.0000
  Si  Si11      1.0  0.50000  0.59200  0.59200  1.0000
  Si  Si12      1.0  0.90800  0.40800  0.59200  1.0000
  Si  Si13      1.0  0.30100  0.30100  0.69900  1.0000
  Si  Si14      1.0  0.00000  0.69900  0.69900  1.0000
