data_image0
_chemical_formula_structural       Al4O11U4
_chemical_formula_sum              "Al4 O11 U4"
_cell_length_a       5.33515
_cell_length_b       5.34021
_cell_length_c       7.53445
_cell_angle_alpha    89.9664
_cell_angle_beta     89.9979
_cell_angle_gamma    90.0105

_space_group_name_H-M_alt    "P 1"
_space_group_IT_number       1

loop_
  _space_group_symop_operation_xyz
  'x, y, z'

loop_
  _atom_site_type_symbol
  _atom_site_label
  _atom_site_symmetry_multiplicity
  _atom_site_fract_x
  _atom_site_fract_y
  _atom_site_fract_z
  _atom_site_occupancy
  Al  Al1       1.0  0.50000  0.99900  0.50000  1.0000
  Al  Al2       1.0  0.00044  0.50000  0.50000  1.0000
  Al  Al3       1.0  0.99900  0.49800  1.00000  1.0000
  Al  Al4       1.0  0.50200  0.00183  1.00000  1.0000
  O   O1        1.0  0.75000  0.75000  0.00603  1.0000
  O   O2        1.0  0.49200  0.00404  0.24900  1.0000
  O   O3        1.0  0.00865  0.49500  0.24900  1.0000
  O   O4        1.0  0.75300  0.75200  0.49300  1.0000
  O   O5        1.0  0.74800  0.25200  0.49500  1.0000
  O   O6        1.0  0.25300  0.74700  0.50500  1.0000
  O   O7        1.0  0.24700  0.24700  0.50700  1.0000
  O   O8        1.0  0.51500  0.00171  0.75100  1.0000
  O   O9        1.0  0.98600  0.49800  0.75100  1.0000
  O   O10       1.0  0.25100  0.25100  0.99400  1.0000
  O   O11       1.0  0.25000  0.75100  0.99500  1.0000
  U   U1        1.0  0.99800  0.00205  0.24800  1.0000
  U   U2        1.0  0.50200  0.49800  0.24800  1.0000
  U   U3        1.0  0.50200  0.49800  0.75100  1.0000
  U   U4        1.0  0.99800  0.00128  0.75100  1.0000
