data_image0
_chemical_formula_structural       P4Rb8Se18
_chemical_formula_sum              "P4 Rb8 Se18"
_cell_length_a       7.30614
_cell_length_b       7.30614
_cell_length_c       19.5621
_cell_angle_alpha    91.8453
_cell_angle_beta     91.8453
_cell_angle_gamma    94.5879

_space_group_name_H-M_alt    "P 1"
_space_group_IT_number       1

loop_
  _space_group_symop_operation_xyz
  'x, y, z'

loop_
  _atom_site_type_symbol
  _atom_site_label
  _atom_site_symmetry_multiplicity
  _atom_site_fract_x
  _atom_site_fract_y
  _atom_site_fract_z
  _atom_site_occupancy
  P   P1        1.0  0.72800  0.74300  0.11900  1.0000
  P   P2        1.0  0.25700  0.27200  0.38100  1.0000
  P   P3        1.0  0.74300  0.72800  0.61900  1.0000
  P   P4        1.0  0.27200  0.25700  0.88100  1.0000
  Rb  Rb1       1.0  0.71500  0.22100  0.02620  1.0000
  Rb  Rb2       1.0  0.24500  0.43500  0.18100  1.0000
  Rb  Rb3       1.0  0.56500  0.75500  0.31900  1.0000
  Rb  Rb4       1.0  0.77900  0.28500  0.47400  1.0000
  Rb  Rb5       1.0  0.22100  0.71500  0.52600  1.0000
  Rb  Rb6       1.0  0.43500  0.24500  0.68100  1.0000
  Rb  Rb7       1.0  0.75500  0.56500  0.81900  1.0000
  Rb  Rb8       1.0  0.28500  0.77900  0.97400  1.0000
  Se  Se1       1.0  0.79000  0.72500  0.00882  1.0000
  Se  Se2       1.0  0.47600  0.87300  0.14100  1.0000
  Se  Se3       1.0  0.98600  0.95300  0.14700  1.0000
  Se  Se4       1.0  0.75200  0.49700  0.17700  1.0000
  Se  Se5       1.0  0.90000  0.10000  0.25000  1.0000
  Se  Se6       1.0  0.50300  0.24800  0.32300  1.0000
  Se  Se7       1.0  0.04670  0.01380  0.35300  1.0000
  Se  Se8       1.0  0.12700  0.52400  0.35900  1.0000
  Se  Se9       1.0  0.27500  0.21000  0.49100  1.0000
  Se  Se10      1.0  0.72500  0.79000  0.50900  1.0000
  Se  Se11      1.0  0.87300  0.47600  0.64100  1.0000
  Se  Se12      1.0  0.95300  0.98600  0.64700  1.0000
  Se  Se13      1.0  0.49700  0.75200  0.67700  1.0000
  Se  Se14      1.0  0.10000  0.90000  0.75000  1.0000
  Se  Se15      1.0  0.24800  0.50300  0.82300  1.0000
  Se  Se16      1.0  0.01380  0.04670  0.85300  1.0000
  Se  Se17      1.0  0.52400  0.12700  0.85900  1.0000
  Se  Se18      1.0  0.21000  0.27500  0.99100  1.0000
