data_image0
_chemical_formula_structural       Ni2O20P4V4
_chemical_formula_sum              "Ni2 O20 P4 V4"
_cell_length_a       6.34079
_cell_length_b       7.2513
_cell_length_c       7.25751
_cell_angle_alpha    90
_cell_angle_beta     90.2415
_cell_angle_gamma    90

_space_group_name_H-M_alt    "P 1"
_space_group_IT_number       1

loop_
  _space_group_symop_operation_xyz
  'x, y, z'

loop_
  _atom_site_type_symbol
  _atom_site_label
  _atom_site_symmetry_multiplicity
  _atom_site_fract_x
  _atom_site_fract_y
  _atom_site_fract_z
  _atom_site_occupancy
  Ni  Ni1       1.0  0.00000  0.00000  0.00000  1.0000
  Ni  Ni2       1.0  0.00000  0.50000  0.50000  1.0000
  O   O1        1.0  0.26700  0.48600  0.05090  1.0000
  O   O2        1.0  0.76800  0.16400  0.10900  1.0000
  O   O3        1.0  0.94300  0.75600  0.12100  1.0000
  O   O4        1.0  0.55700  0.75700  0.14700  1.0000
  O   O5        1.0  0.22400  0.00042  0.20400  1.0000
  O   O6        1.0  0.77600  0.50000  0.29600  1.0000
  O   O7        1.0  0.44300  0.25700  0.35300  1.0000
  O   O8        1.0  0.05740  0.25600  0.37900  1.0000
  O   O9        1.0  0.23200  0.66400  0.39100  1.0000
  O   O10       1.0  0.73300  0.98600  0.44900  1.0000
  O   O11       1.0  0.26700  0.01430  0.55100  1.0000
  O   O12       1.0  0.76800  0.33600  0.60900  1.0000
  O   O13       1.0  0.94300  0.74400  0.62100  1.0000
  O   O14       1.0  0.55700  0.74300  0.64700  1.0000
  O   O15       1.0  0.22400  0.50000  0.70400  1.0000
  O   O16       1.0  0.77600  0.00000  0.79600  1.0000
  O   O17       1.0  0.44300  0.24300  0.85300  1.0000
  O   O18       1.0  0.05740  0.24400  0.87900  1.0000
  O   O19       1.0  0.23200  0.83600  0.89100  1.0000
  O   O20       1.0  0.73300  0.51400  0.94900  1.0000
  P   P1        1.0  0.74800  0.62800  0.12600  1.0000
  P   P2        1.0  0.25200  0.12800  0.37400  1.0000
  P   P3        1.0  0.74800  0.87200  0.62600  1.0000
  P   P4        1.0  0.25200  0.37200  0.87400  1.0000
  V   V1        1.0  0.26000  0.72400  0.16300  1.0000
  V   V2        1.0  0.74000  0.22400  0.33700  1.0000
  V   V3        1.0  0.26000  0.77600  0.66300  1.0000
  V   V4        1.0  0.74000  0.27600  0.83700  1.0000
