data_image0
_chemical_formula_structural       Bi16Ca6Pd8
_chemical_formula_sum              "Bi16 Ca6 Pd8"
_cell_length_a       10.8975
_cell_length_b       17.157
_cell_length_c       4.20581
_cell_angle_alpha    90
_cell_angle_beta     90
_cell_angle_gamma    90

_space_group_name_H-M_alt    "P 1"
_space_group_IT_number       1

loop_
  _space_group_symop_operation_xyz
  'x, y, z'

loop_
  _atom_site_type_symbol
  _atom_site_label
  _atom_site_symmetry_multiplicity
  _atom_site_fract_x
  _atom_site_fract_y
  _atom_site_fract_z
  _atom_site_occupancy
  Bi  Bi1       1.0  0.69500  0.08540  0.00000  1.0000
  Bi  Bi2       1.0  0.39100  0.14200  0.00000  1.0000
  Bi  Bi3       1.0  0.11100  0.21300  0.00000  1.0000
  Bi  Bi4       1.0  0.61100  0.28700  0.00000  1.0000
  Bi  Bi5       1.0  0.89100  0.35800  0.00000  1.0000
  Bi  Bi6       1.0  0.19500  0.41500  0.00000  1.0000
  Bi  Bi7       1.0  0.80500  0.58500  0.00000  1.0000
  Bi  Bi8       1.0  0.10900  0.64200  0.00000  1.0000
  Bi  Bi9       1.0  0.38900  0.71300  0.00000  1.0000
  Bi  Bi10      1.0  0.88900  0.78700  0.00000  1.0000
  Bi  Bi11      1.0  0.60900  0.85800  0.00000  1.0000
  Bi  Bi12      1.0  0.30500  0.91500  0.00000  1.0000
  Bi  Bi13      1.0  0.13100  0.03900  0.50000  1.0000
  Bi  Bi14      1.0  0.63100  0.46100  0.50000  1.0000
  Bi  Bi15      1.0  0.36900  0.53900  0.50000  1.0000
  Bi  Bi16      1.0  0.86900  0.96100  0.50000  1.0000
  Ca  Ca1       1.0  0.50000  0.00000  0.50000  1.0000
  Ca  Ca2       1.0  0.85800  0.19900  0.50000  1.0000
  Ca  Ca3       1.0  0.35800  0.30100  0.50000  1.0000
  Ca  Ca4       1.0  0.00000  0.50000  0.50000  1.0000
  Ca  Ca5       1.0  0.64200  0.69900  0.50000  1.0000
  Ca  Ca6       1.0  0.14200  0.80100  0.50000  1.0000
  Pd  Pd1       1.0  0.95400  0.07850  0.00000  1.0000
  Pd  Pd2       1.0  0.45400  0.42200  0.00000  1.0000
  Pd  Pd3       1.0  0.54600  0.57800  0.00000  1.0000
  Pd  Pd4       1.0  0.04640  0.92200  0.00000  1.0000
  Pd  Pd5       1.0  0.57000  0.17600  0.50000  1.0000
  Pd  Pd6       1.0  0.07040  0.32400  0.50000  1.0000
  Pd  Pd7       1.0  0.93000  0.67600  0.50000  1.0000
  Pd  Pd8       1.0  0.43000  0.82400  0.50000  1.0000
