data_image0
_chemical_formula_structural       Cu4O11Pr4
_chemical_formula_sum              "Cu4 O11 Pr4"
_cell_length_a       5.4375
_cell_length_b       5.37685
_cell_length_c       7.74097
_cell_angle_alpha    89.5336
_cell_angle_beta     89.2295
_cell_angle_gamma    90.7939

_space_group_name_H-M_alt    "P 1"
_space_group_IT_number       1

loop_
  _space_group_symop_operation_xyz
  'x, y, z'

loop_
  _atom_site_type_symbol
  _atom_site_label
  _atom_site_symmetry_multiplicity
  _atom_site_fract_x
  _atom_site_fract_y
  _atom_site_fract_z
  _atom_site_occupancy
  Cu  Cu1       1.0  0.99600  0.49500  0.00093  1.0000
  Cu  Cu2       1.0  0.99200  0.49300  0.50100  1.0000
  Cu  Cu3       1.0  0.50400  0.00550  0.50200  1.0000
  Cu  Cu4       1.0  0.50400  0.00490  0.99900  1.0000
  O   O1        1.0  0.78200  0.78400  0.04810  1.0000
  O   O2        1.0  0.44900  0.01680  0.23700  1.0000
  O   O3        1.0  0.05600  0.48000  0.24200  1.0000
  O   O4        1.0  0.71600  0.28200  0.45300  1.0000
  O   O5        1.0  0.77500  0.77800  0.47100  1.0000
  O   O6        1.0  0.27800  0.72100  0.52000  1.0000
  O   O7        1.0  0.21700  0.21600  0.53700  1.0000
  O   O8        1.0  0.91600  0.49500  0.76100  1.0000
  O   O9        1.0  0.58400  0.02770  0.76500  1.0000
  O   O10       1.0  0.28900  0.71000  0.95600  1.0000
  O   O11       1.0  0.21800  0.21700  0.96300  1.0000
  Pr  Pr1       1.0  0.49900  0.54700  0.25500  1.0000
  Pr  Pr2       1.0  0.01150  0.02020  0.26400  1.0000
  Pr  Pr3       1.0  0.48100  0.47100  0.73600  1.0000
  Pr  Pr4       1.0  0.01100  0.95500  0.75400  1.0000
