data_image0
_chemical_formula_structural       Cl24Mo2Se4
_chemical_formula_sum              "Cl24 Mo2 Se4"
_cell_length_a       8.63701
_cell_length_b       8.63701
_cell_length_c       12.274
_cell_angle_alpha    108.821
_cell_angle_beta     108.821
_cell_angle_gamma    94.7662

_space_group_name_H-M_alt    "P 1"
_space_group_IT_number       1

loop_
  _space_group_symop_operation_xyz
  'x, y, z'

loop_
  _atom_site_type_symbol
  _atom_site_label
  _atom_site_symmetry_multiplicity
  _atom_site_fract_x
  _atom_site_fract_y
  _atom_site_fract_z
  _atom_site_occupancy
  Cl  Cl1       1.0  0.08510  0.23900  0.09340  1.0000
  Cl  Cl2       1.0  0.00830  0.85400  0.09340  1.0000
  Cl  Cl3       1.0  0.52400  0.32800  0.09650  1.0000
  Cl  Cl4       1.0  0.57200  0.76800  0.09650  1.0000
  Cl  Cl5       1.0  0.90300  0.56700  0.24300  1.0000
  Cl  Cl6       1.0  0.34000  0.67600  0.24300  1.0000
  Cl  Cl7       1.0  0.39700  0.08320  0.25000  1.0000
  Cl  Cl8       1.0  0.85300  0.16600  0.25000  1.0000
  Cl  Cl9       1.0  0.15800  0.00414  0.40300  1.0000
  Cl  Cl10      1.0  0.24500  0.39900  0.40300  1.0000
  Cl  Cl11      1.0  0.67800  0.49800  0.43800  1.0000
  Cl  Cl12      1.0  0.76000  0.94100  0.43800  1.0000
  Cl  Cl13      1.0  0.10400  0.75800  0.59300  1.0000
  Cl  Cl14      1.0  0.48900  0.83500  0.59300  1.0000
  Cl  Cl15      1.0  0.57800  0.27400  0.59600  1.0000
  Cl  Cl16      1.0  0.01800  0.32200  0.59600  1.0000
  Cl  Cl17      1.0  0.92600  0.08970  0.74300  1.0000
  Cl  Cl18      1.0  0.81700  0.65300  0.74300  1.0000
  Cl  Cl19      1.0  0.33300  0.14700  0.75000  1.0000
  Cl  Cl20      1.0  0.41600  0.60300  0.75000  1.0000
  Cl  Cl21      1.0  0.25400  0.90800  0.90300  1.0000
  Cl  Cl22      1.0  0.64900  0.99500  0.90300  1.0000
  Cl  Cl23      1.0  0.74800  0.42800  0.93800  1.0000
  Cl  Cl24      1.0  0.19100  0.51000  0.93800  1.0000
  Mo  Mo1       1.0  0.12600  0.12600  0.25200  1.0000
  Mo  Mo2       1.0  0.37600  0.87600  0.75200  1.0000
  Se  Se1       1.0  0.77400  0.32700  0.08750  1.0000
  Se  Se2       1.0  0.31300  0.76000  0.08750  1.0000
  Se  Se3       1.0  0.00996  0.06300  0.58700  1.0000
  Se  Se4       1.0  0.57700  0.52400  0.58700  1.0000
