data_image0
_chemical_formula_structural       B6Ir14Zn10
_chemical_formula_sum              "B6 Ir14 Zn10"
_cell_length_a       11.7233
_cell_length_b       2.83958
_cell_length_c       12.4638
_cell_angle_alpha    90
_cell_angle_beta     90
_cell_angle_gamma    90

_space_group_name_H-M_alt    "P 1"
_space_group_IT_number       1

loop_
  _space_group_symop_operation_xyz
  'x, y, z'

loop_
  _atom_site_type_symbol
  _atom_site_label
  _atom_site_symmetry_multiplicity
  _atom_site_fract_x
  _atom_site_fract_y
  _atom_site_fract_z
  _atom_site_occupancy
  B   B1        1.0  0.75000  0.50000  0.24800  1.0000
  B   B2        1.0  0.10600  0.50000  0.39200  1.0000
  B   B3        1.0  0.39400  0.50000  0.39200  1.0000
  B   B4        1.0  0.60600  0.50000  0.60800  1.0000
  B   B5        1.0  0.89400  0.50000  0.60800  1.0000
  B   B6        1.0  0.25000  0.50000  0.75200  1.0000
  Ir  Ir1       1.0  0.14200  0.00000  0.06140  1.0000
  Ir  Ir2       1.0  0.35800  0.00000  0.06140  1.0000
  Ir  Ir3       1.0  0.75000  0.00000  0.12900  1.0000
  Ir  Ir4       1.0  0.09130  0.00000  0.26100  1.0000
  Ir  Ir5       1.0  0.40900  0.00000  0.26100  1.0000
  Ir  Ir6       1.0  0.25000  0.00000  0.41900  1.0000
  Ir  Ir7       1.0  0.00000  0.00000  0.50000  1.0000
  Ir  Ir8       1.0  0.50000  0.00000  0.50000  1.0000
  Ir  Ir9       1.0  0.75000  0.00000  0.58100  1.0000
  Ir  Ir10      1.0  0.59100  0.00000  0.73900  1.0000
  Ir  Ir11      1.0  0.90900  0.00000  0.73900  1.0000
  Ir  Ir12      1.0  0.25000  0.00000  0.87100  1.0000
  Ir  Ir13      1.0  0.64200  0.00000  0.93900  1.0000
  Ir  Ir14      1.0  0.85800  0.00000  0.93900  1.0000
  Zn  Zn1       1.0  0.54900  0.50000  0.10300  1.0000
  Zn  Zn2       1.0  0.95100  0.50000  0.10300  1.0000
  Zn  Zn3       1.0  0.57900  0.50000  0.31300  1.0000
  Zn  Zn4       1.0  0.92100  0.50000  0.31300  1.0000
  Zn  Zn5       1.0  0.75000  0.50000  0.41700  1.0000
  Zn  Zn6       1.0  0.25000  0.50000  0.58300  1.0000
  Zn  Zn7       1.0  0.07900  0.50000  0.68700  1.0000
  Zn  Zn8       1.0  0.42100  0.50000  0.68700  1.0000
  Zn  Zn9       1.0  0.04950  0.50000  0.89700  1.0000
  Zn  Zn10      1.0  0.45100  0.50000  0.89700  1.0000
