data_image0
_chemical_formula_structural       Bi4Ga8O18
_chemical_formula_sum              "Bi4 Ga8 O18"
_cell_length_a       7.88725
_cell_length_b       8.32703
_cell_length_c       5.92573
_cell_angle_alpha    90
_cell_angle_beta     90
_cell_angle_gamma    90

_space_group_name_H-M_alt    "P 1"
_space_group_IT_number       1

loop_
  _space_group_symop_operation_xyz
  'x, y, z'

loop_
  _atom_site_type_symbol
  _atom_site_label
  _atom_site_symmetry_multiplicity
  _atom_site_fract_x
  _atom_site_fract_y
  _atom_site_fract_z
  _atom_site_occupancy
  Bi  Bi1       1.0  0.16700  0.16900  0.00000  1.0000
  Bi  Bi2       1.0  0.66700  0.33100  0.00000  1.0000
  Bi  Bi3       1.0  0.33300  0.66900  0.00000  1.0000
  Bi  Bi4       1.0  0.83300  0.83100  0.00000  1.0000
  Ga  Ga1       1.0  0.50000  0.00000  0.25700  1.0000
  Ga  Ga2       1.0  0.00000  0.50000  0.25700  1.0000
  Ga  Ga3       1.0  0.85200  0.16600  0.50000  1.0000
  Ga  Ga4       1.0  0.35200  0.33400  0.50000  1.0000
  Ga  Ga5       1.0  0.64800  0.66600  0.50000  1.0000
  Ga  Ga6       1.0  0.14800  0.83400  0.50000  1.0000
  Ga  Ga7       1.0  0.50000  0.00000  0.74300  1.0000
  Ga  Ga8       1.0  0.00000  0.50000  0.74300  1.0000
  O   O1        1.0  0.65200  0.06770  0.00000  1.0000
  O   O2        1.0  0.15200  0.43200  0.00000  1.0000
  O   O3        1.0  0.84800  0.56800  0.00000  1.0000
  O   O4        1.0  0.34800  0.93200  0.00000  1.0000
  O   O5        1.0  0.37100  0.20800  0.24000  1.0000
  O   O6        1.0  0.87100  0.29200  0.24000  1.0000
  O   O7        1.0  0.12900  0.70800  0.24000  1.0000
  O   O8        1.0  0.62900  0.79200  0.24000  1.0000
  O   O9        1.0  0.00000  0.00000  0.50000  1.0000
  O   O10       1.0  0.63100  0.09490  0.50000  1.0000
  O   O11       1.0  0.13100  0.40500  0.50000  1.0000
  O   O12       1.0  0.50000  0.50000  0.50000  1.0000
  O   O13       1.0  0.86900  0.59500  0.50000  1.0000
  O   O14       1.0  0.36900  0.90500  0.50000  1.0000
  O   O15       1.0  0.37100  0.20800  0.76000  1.0000
  O   O16       1.0  0.87100  0.29200  0.76000  1.0000
  O   O17       1.0  0.12900  0.70800  0.76000  1.0000
  O   O18       1.0  0.62900  0.79200  0.76000  1.0000
