data_image0
_chemical_formula_structural       Ba6Er2Mn4O18
_chemical_formula_sum              "Ba6 Er2 Mn4 O18"
_cell_length_a       5.81756
_cell_length_b       5.82006
_cell_length_c       14.3
_cell_angle_alpha    90
_cell_angle_beta     90
_cell_angle_gamma    60.0142

_space_group_name_H-M_alt    "P 1"
_space_group_IT_number       1

loop_
  _space_group_symop_operation_xyz
  'x, y, z'

loop_
  _atom_site_type_symbol
  _atom_site_label
  _atom_site_symmetry_multiplicity
  _atom_site_fract_x
  _atom_site_fract_y
  _atom_site_fract_z
  _atom_site_occupancy
  Ba  Ba1       1.0  0.33400  0.33100  0.10100  1.0000
  Ba  Ba2       1.0  0.00011  0.00000  0.25600  1.0000
  Ba  Ba3       1.0  0.33200  0.33500  0.41100  1.0000
  Ba  Ba4       1.0  0.66600  0.66900  0.60100  1.0000
  Ba  Ba5       1.0  0.00000  0.00022  0.75600  1.0000
  Ba  Ba6       1.0  0.66800  0.66500  0.91100  1.0000
  Er  Er1       1.0  0.00130  0.99700  0.00558  1.0000
  Er  Er2       1.0  0.99900  0.00260  0.50600  1.0000
  Mn  Mn1       1.0  0.66800  0.66400  0.16500  1.0000
  Mn  Mn2       1.0  0.66600  0.66900  0.34600  1.0000
  Mn  Mn3       1.0  0.33200  0.33600  0.66500  1.0000
  Mn  Mn4       1.0  0.33400  0.33100  0.84600  1.0000
  O   O1        1.0  0.35600  0.81900  0.09350  1.0000
  O   O2        1.0  0.82500  0.81900  0.09350  1.0000
  O   O3        1.0  0.82500  0.34900  0.09460  1.0000
  O   O4        1.0  0.52000  0.96000  0.25500  1.0000
  O   O5        1.0  0.52000  0.52000  0.25600  1.0000
  O   O6        1.0  0.96000  0.52000  0.25600  1.0000
  O   O7        1.0  0.35200  0.82600  0.41700  1.0000
  O   O8        1.0  0.82100  0.82600  0.41700  1.0000
  O   O9        1.0  0.82200  0.35700  0.41800  1.0000
  O   O10       1.0  0.17500  0.18100  0.59300  1.0000
  O   O11       1.0  0.64400  0.18100  0.59300  1.0000
  O   O12       1.0  0.17500  0.65100  0.59500  1.0000
  O   O13       1.0  0.48000  0.04010  0.75500  1.0000
  O   O14       1.0  0.03990  0.48000  0.75600  1.0000
  O   O15       1.0  0.48000  0.48000  0.75600  1.0000
  O   O16       1.0  0.17900  0.17400  0.91700  1.0000
  O   O17       1.0  0.64800  0.17400  0.91700  1.0000
  O   O18       1.0  0.17800  0.64300  0.91800  1.0000
