data_image0
_chemical_formula_structural       Ag2Rb6Se16Sn6
_chemical_formula_sum              "Ag2 Rb6 Se16 Sn6"
_cell_length_a       8.5532
_cell_length_b       8.5532
_cell_length_c       13.7126
_cell_angle_alpha    90
_cell_angle_beta     90
_cell_angle_gamma    90

_space_group_name_H-M_alt    "P 1"
_space_group_IT_number       1

loop_
  _space_group_symop_operation_xyz
  'x, y, z'

loop_
  _atom_site_type_symbol
  _atom_site_label
  _atom_site_symmetry_multiplicity
  _atom_site_fract_x
  _atom_site_fract_y
  _atom_site_fract_z
  _atom_site_occupancy
  Ag  Ag1       1.0  0.75000  0.25000  0.50000  1.0000
  Ag  Ag2       1.0  0.25000  0.75000  0.50000  1.0000
  Rb  Rb1       1.0  0.25000  0.25000  0.22200  1.0000
  Rb  Rb2       1.0  0.75000  0.75000  0.22200  1.0000
  Rb  Rb3       1.0  0.25000  0.25000  0.50000  1.0000
  Rb  Rb4       1.0  0.75000  0.75000  0.50000  1.0000
  Rb  Rb5       1.0  0.25000  0.25000  0.77800  1.0000
  Rb  Rb6       1.0  0.75000  0.75000  0.77800  1.0000
  Se  Se1       1.0  0.59000  0.09030  0.12400  1.0000
  Se  Se2       1.0  0.91000  0.41000  0.12400  1.0000
  Se  Se3       1.0  0.41000  0.59000  0.12400  1.0000
  Se  Se4       1.0  0.09030  0.91000  0.12400  1.0000
  Se  Se5       1.0  0.92200  0.07750  0.36100  1.0000
  Se  Se6       1.0  0.57800  0.42200  0.36100  1.0000
  Se  Se7       1.0  0.07750  0.57800  0.36100  1.0000
  Se  Se8       1.0  0.42200  0.92200  0.36100  1.0000
  Se  Se9       1.0  0.57800  0.07750  0.63900  1.0000
  Se  Se10      1.0  0.92200  0.42200  0.63900  1.0000
  Se  Se11      1.0  0.42200  0.57800  0.63900  1.0000
  Se  Se12      1.0  0.07750  0.92200  0.63900  1.0000
  Se  Se13      1.0  0.91000  0.09030  0.87600  1.0000
  Se  Se14      1.0  0.59000  0.41000  0.87600  1.0000
  Se  Se15      1.0  0.09030  0.59000  0.87600  1.0000
  Se  Se16      1.0  0.41000  0.91000  0.87600  1.0000
  Sn  Sn1       1.0  0.75000  0.25000  0.00000  1.0000
  Sn  Sn2       1.0  0.25000  0.75000  0.00000  1.0000
  Sn  Sn3       1.0  0.75000  0.25000  0.25900  1.0000
  Sn  Sn4       1.0  0.25000  0.75000  0.25900  1.0000
  Sn  Sn5       1.0  0.75000  0.25000  0.74100  1.0000
  Sn  Sn6       1.0  0.25000  0.75000  0.74100  1.0000
