data_image0
_chemical_formula_structural       Co8Si14Ti8
_chemical_formula_sum              "Co8 Si14 Ti8"
_cell_length_a       4.91824
_cell_length_b       9.15829
_cell_length_c       9.15829
_cell_angle_alpha    94.1346
_cell_angle_beta     105.576
_cell_angle_gamma    74.4242

_space_group_name_H-M_alt    "P 1"
_space_group_IT_number       1

loop_
  _space_group_symop_operation_xyz
  'x, y, z'

loop_
  _atom_site_type_symbol
  _atom_site_label
  _atom_site_symmetry_multiplicity
  _atom_site_fract_x
  _atom_site_fract_y
  _atom_site_fract_z
  _atom_site_occupancy
  Co  Co1       1.0  0.10000  0.50000  0.20100  1.0000
  Co  Co2       1.0  0.60000  0.50000  0.20100  1.0000
  Co  Co3       1.0  0.40000  0.20100  0.50000  1.0000
  Co  Co4       1.0  0.90000  0.20100  0.50000  1.0000
  Co  Co5       1.0  0.10000  0.79900  0.50000  1.0000
  Co  Co6       1.0  0.60000  0.79900  0.50000  1.0000
  Co  Co7       1.0  0.40000  0.50000  0.79900  1.0000
  Co  Co8       1.0  0.90000  0.50000  0.79900  1.0000
  Si  Si1       1.0  0.25000  0.00000  0.00000  1.0000
  Si  Si2       1.0  0.75000  0.00000  0.00000  1.0000
  Si  Si3       1.0  0.29400  0.41200  0.00000  1.0000
  Si  Si4       1.0  0.70600  0.58800  0.00000  1.0000
  Si  Si5       1.0  0.00000  0.29300  0.29300  1.0000
  Si  Si6       1.0  0.29300  0.70700  0.29300  1.0000
  Si  Si7       1.0  0.90500  0.59500  0.40500  1.0000
  Si  Si8       1.0  0.50000  0.40500  0.40500  1.0000
  Si  Si9       1.0  0.70600  0.00000  0.41200  1.0000
  Si  Si10      1.0  0.29400  0.00000  0.58800  1.0000
  Si  Si11      1.0  0.50000  0.59500  0.59500  1.0000
  Si  Si12      1.0  0.09470  0.40500  0.59500  1.0000
  Si  Si13      1.0  0.70700  0.29300  0.70700  1.0000
  Si  Si14      1.0  0.00000  0.70700  0.70700  1.0000
  Ti  Ti1       1.0  0.86500  0.27100  0.00000  1.0000
  Ti  Ti2       1.0  0.13500  0.72900  0.00000  1.0000
  Ti  Ti3       1.0  0.69300  0.80700  0.19300  1.0000
  Ti  Ti4       1.0  0.50000  0.19300  0.19300  1.0000
  Ti  Ti5       1.0  0.13500  0.00000  0.27100  1.0000
  Ti  Ti6       1.0  0.86500  0.00000  0.72900  1.0000
  Ti  Ti7       1.0  0.50000  0.80700  0.80700  1.0000
  Ti  Ti8       1.0  0.30700  0.19300  0.80700  1.0000
