data_image0
_chemical_formula_structural       Ba6Ca2O18Sb4
_chemical_formula_sum              "Ba6 Ca2 O18 Sb4"
_cell_length_a       6.00456
_cell_length_b       6.00456
_cell_length_c       14.9223
_cell_angle_alpha    90.8825
_cell_angle_beta     90.8825
_cell_angle_gamma    119.877

_space_group_name_H-M_alt    "P 1"
_space_group_IT_number       1

loop_
  _space_group_symop_operation_xyz
  'x, y, z'

loop_
  _atom_site_type_symbol
  _atom_site_label
  _atom_site_symmetry_multiplicity
  _atom_site_fract_x
  _atom_site_fract_y
  _atom_site_fract_z
  _atom_site_occupancy
  Ba  Ba1       1.0  0.34000  0.67900  0.09010  1.0000
  Ba  Ba2       1.0  0.99100  0.00927  0.25000  1.0000
  Ba  Ba3       1.0  0.32100  0.66000  0.41000  1.0000
  Ba  Ba4       1.0  0.67900  0.34000  0.59000  1.0000
  Ba  Ba5       1.0  0.00927  0.99100  0.75000  1.0000
  Ba  Ba6       1.0  0.66000  0.32100  0.91000  1.0000
  Ca  Ca1       1.0  0.00000  0.00000  0.00000  1.0000
  Ca  Ca2       1.0  0.00000  0.00000  0.50000  1.0000
  O   O1        1.0  0.38400  0.22300  0.07330  1.0000
  O   O2        1.0  0.85800  0.21400  0.08680  1.0000
  O   O3        1.0  0.86700  0.69600  0.10400  1.0000
  O   O4        1.0  0.51900  0.04510  0.23800  1.0000
  O   O5        1.0  0.51500  0.48500  0.25000  1.0000
  O   O6        1.0  0.95500  0.48100  0.26200  1.0000
  O   O7        1.0  0.30400  0.13300  0.39600  1.0000
  O   O8        1.0  0.78600  0.14200  0.41300  1.0000
  O   O9        1.0  0.77700  0.61600  0.42700  1.0000
  O   O10       1.0  0.22300  0.38400  0.57300  1.0000
  O   O11       1.0  0.21400  0.85800  0.58700  1.0000
  O   O12       1.0  0.69600  0.86700  0.60400  1.0000
  O   O13       1.0  0.04510  0.51900  0.73800  1.0000
  O   O14       1.0  0.48500  0.51500  0.75000  1.0000
  O   O15       1.0  0.48100  0.95500  0.76200  1.0000
  O   O16       1.0  0.13300  0.30400  0.89600  1.0000
  O   O17       1.0  0.14200  0.78600  0.91300  1.0000
  O   O18       1.0  0.61600  0.77700  0.92700  1.0000
  Sb  Sb1       1.0  0.68100  0.35700  0.15400  1.0000
  Sb  Sb2       1.0  0.64300  0.31900  0.34600  1.0000
  Sb  Sb3       1.0  0.35700  0.68100  0.65400  1.0000
  Sb  Sb4       1.0  0.31900  0.64300  0.84600  1.0000
