data_image0
_chemical_formula_structural       H12I2Li2O14
_chemical_formula_sum              "H12 I2 Li2 O14"
_cell_length_a       5.89931
_cell_length_b       5.29123
_cell_length_c       9.76508
_cell_angle_alpha    97.8573
_cell_angle_beta     102.865
_cell_angle_gamma    106.876

_space_group_name_H-M_alt    "P 1"
_space_group_IT_number       1

loop_
  _space_group_symop_operation_xyz
  'x, y, z'

loop_
  _atom_site_type_symbol
  _atom_site_label
  _atom_site_symmetry_multiplicity
  _atom_site_fract_x
  _atom_site_fract_y
  _atom_site_fract_z
  _atom_site_occupancy
  H   H1        1.0  0.73500  0.19200  0.05470  1.0000
  H   H2        1.0  0.25200  0.81800  0.11300  1.0000
  H   H3        1.0  0.84900  0.19600  0.24900  1.0000
  H   H4        1.0  0.69400  0.37400  0.28900  1.0000
  H   H5        1.0  0.23500  0.60500  0.29400  1.0000
  H   H6        1.0  0.95700  0.66900  0.45400  1.0000
  H   H7        1.0  0.04330  0.33100  0.54600  1.0000
  H   H8        1.0  0.76500  0.39500  0.70600  1.0000
  H   H9        1.0  0.30600  0.62600  0.71100  1.0000
  H   H10       1.0  0.15100  0.80400  0.75100  1.0000
  H   H11       1.0  0.74800  0.18200  0.88700  1.0000
  H   H12       1.0  0.26500  0.80800  0.94500  1.0000
  I   I1        1.0  0.27900  0.10000  0.41900  1.0000
  I   I2        1.0  0.72100  0.90000  0.58100  1.0000
  Li  Li1       1.0  0.17300  0.21500  0.06850  1.0000
  Li  Li2       1.0  0.82700  0.78500  0.93100  1.0000
  O   O1        1.0  0.17500  0.84700  0.01650  1.0000
  O   O2        1.0  0.54000  0.60200  0.08850  1.0000
  O   O3        1.0  0.77000  0.71100  0.14000  1.0000
  O   O4        1.0  0.68200  0.21300  0.21900  1.0000
  O   O5        1.0  0.14800  0.23200  0.26200  1.0000
  O   O6        1.0  0.32500  0.78800  0.28200  1.0000
  O   O7        1.0  0.78300  0.59000  0.45300  1.0000
  O   O8        1.0  0.21700  0.41000  0.54700  1.0000
  O   O9        1.0  0.67500  0.21200  0.71800  1.0000
  O   O10       1.0  0.85200  0.76800  0.73800  1.0000
  O   O11       1.0  0.31800  0.78700  0.78100  1.0000
  O   O12       1.0  0.23100  0.28900  0.86100  1.0000
  O   O13       1.0  0.46000  0.39800  0.91200  1.0000
  O   O14       1.0  0.82500  0.15300  0.98300  1.0000
