data_image0
_chemical_formula_structural       Co23Hf6
_chemical_formula_sum              "Co23 Hf6"
_cell_length_a       8.04289
_cell_length_b       8.04289
_cell_length_c       8.04289
_cell_angle_alpha    120
_cell_angle_beta     90
_cell_angle_gamma    120

_space_group_name_H-M_alt    "P 1"
_space_group_IT_number       1

loop_
  _space_group_symop_operation_xyz
  'x, y, z'

loop_
  _atom_site_type_symbol
  _atom_site_label
  _atom_site_symmetry_multiplicity
  _atom_site_fract_x
  _atom_site_fract_y
  _atom_site_fract_z
  _atom_site_occupancy
  Co  Co1       1.0  0.00000  0.00000  0.00000  1.0000
  Co  Co2       1.0  0.50000  0.00000  0.00000  1.0000
  Co  Co3       1.0  0.00000  0.50000  0.00000  1.0000
  Co  Co4       1.0  0.50000  0.50000  0.00000  1.0000
  Co  Co5       1.0  0.67400  0.34800  0.02170  1.0000
  Co  Co6       1.0  0.36200  0.24100  0.12100  1.0000
  Co  Co7       1.0  0.87900  0.24100  0.12100  1.0000
  Co  Co8       1.0  0.87900  0.75900  0.12100  1.0000
  Co  Co9       1.0  0.67400  0.34800  0.32600  1.0000
  Co  Co10      1.0  0.67400  0.65200  0.32600  1.0000
  Co  Co11      1.0  0.97800  0.65200  0.32600  1.0000
  Co  Co12      1.0  0.12100  0.24100  0.36200  1.0000
  Co  Co13      1.0  0.00000  0.00000  0.50000  1.0000
  Co  Co14      1.0  0.00000  0.50000  0.50000  1.0000
  Co  Co15      1.0  0.50000  0.50000  0.50000  1.0000
  Co  Co16      1.0  0.87900  0.75900  0.63800  1.0000
  Co  Co17      1.0  0.02170  0.34800  0.67400  1.0000
  Co  Co18      1.0  0.32600  0.34800  0.67400  1.0000
  Co  Co19      1.0  0.32600  0.65200  0.67400  1.0000
  Co  Co20      1.0  0.12100  0.24100  0.87900  1.0000
  Co  Co21      1.0  0.12100  0.75900  0.87900  1.0000
  Co  Co22      1.0  0.63800  0.75900  0.87900  1.0000
  Co  Co23      1.0  0.32600  0.65200  0.97800  1.0000
  Hf  Hf1       1.0  0.29000  0.00000  0.29000  1.0000
  Hf  Hf2       1.0  0.71000  0.00000  0.29000  1.0000
  Hf  Hf3       1.0  0.29000  0.58000  0.29000  1.0000
  Hf  Hf4       1.0  0.29000  0.00000  0.71000  1.0000
  Hf  Hf5       1.0  0.71000  0.42000  0.71000  1.0000
  Hf  Hf6       1.0  0.71000  0.00000  0.71000  1.0000
