data_image0
_chemical_formula_structural       Cl8I4O12Pb6
_chemical_formula_sum              "Cl8 I4 O12 Pb6"
_cell_length_a       7.42258
_cell_length_b       8.50597
_cell_length_c       11.3764
_cell_angle_alpha    71.8576
_cell_angle_beta     109.04
_cell_angle_gamma    115.869

_space_group_name_H-M_alt    "P 1"
_space_group_IT_number       1

loop_
  _space_group_symop_operation_xyz
  'x, y, z'

loop_
  _atom_site_type_symbol
  _atom_site_label
  _atom_site_symmetry_multiplicity
  _atom_site_fract_x
  _atom_site_fract_y
  _atom_site_fract_z
  _atom_site_occupancy
  Cl  Cl1       1.0  0.84100  0.48400  0.10200  1.0000
  Cl  Cl2       1.0  0.42600  0.52800  0.23000  1.0000
  Cl  Cl3       1.0  0.66900  0.97200  0.27000  1.0000
  Cl  Cl4       1.0  0.25400  0.01580  0.39800  1.0000
  Cl  Cl5       1.0  0.74600  0.98400  0.60200  1.0000
  Cl  Cl6       1.0  0.33100  0.02760  0.73000  1.0000
  Cl  Cl7       1.0  0.57400  0.47200  0.77000  1.0000
  Cl  Cl8       1.0  0.15900  0.51600  0.89800  1.0000
  I   I1        1.0  0.65800  0.86500  0.02880  1.0000
  I   I2        1.0  0.76500  0.63500  0.47100  1.0000
  I   I3        1.0  0.23500  0.36500  0.52900  1.0000
  I   I4        1.0  0.34200  0.13500  0.97100  1.0000
  O   O1        1.0  0.28200  0.89200  0.02310  1.0000
  O   O2        1.0  0.33700  0.18200  0.11700  1.0000
  O   O3        1.0  0.91900  0.88900  0.12200  1.0000
  O   O4        1.0  0.90700  0.61100  0.37800  1.0000
  O   O5        1.0  0.03750  0.31800  0.38300  1.0000
  O   O6        1.0  0.36700  0.60800  0.47700  1.0000
  O   O7        1.0  0.63300  0.39200  0.52300  1.0000
  O   O8        1.0  0.96200  0.68200  0.61700  1.0000
  O   O9        1.0  0.09300  0.38900  0.62200  1.0000
  O   O10       1.0  0.08140  0.11100  0.87800  1.0000
  O   O11       1.0  0.66300  0.81800  0.88300  1.0000
  O   O12       1.0  0.71800  0.10800  0.97700  1.0000
  Pb  Pb1       1.0  0.05080  0.22300  0.17200  1.0000
  Pb  Pb2       1.0  0.17700  0.75000  0.25000  1.0000
  Pb  Pb3       1.0  0.65600  0.27700  0.32800  1.0000
  Pb  Pb4       1.0  0.34400  0.72300  0.67200  1.0000
  Pb  Pb5       1.0  0.82300  0.25000  0.75000  1.0000
  Pb  Pb6       1.0  0.94900  0.77700  0.82800  1.0000
