data_image0
_chemical_formula_structural       As8O18Sm4
_chemical_formula_sum              "As8 O18 Sm4"
_cell_length_a       6.7809
_cell_length_b       7.55323
_cell_length_c       9.36245
_cell_angle_alpha    97.0515
_cell_angle_beta     103.167
_cell_angle_gamma    104.661

_space_group_name_H-M_alt    "P 1"
_space_group_IT_number       1

loop_
  _space_group_symop_operation_xyz
  'x, y, z'

loop_
  _atom_site_type_symbol
  _atom_site_label
  _atom_site_symmetry_multiplicity
  _atom_site_fract_x
  _atom_site_fract_y
  _atom_site_fract_z
  _atom_site_occupancy
  As  As1       1.0  0.31200  0.36000  0.21600  1.0000
  As  As2       1.0  0.24900  0.92300  0.22300  1.0000
  As  As3       1.0  0.67400  0.76100  0.42900  1.0000
  As  As4       1.0  0.82000  0.23900  0.44700  1.0000
  As  As5       1.0  0.18000  0.76100  0.55300  1.0000
  As  As6       1.0  0.32600  0.23900  0.57100  1.0000
  As  As7       1.0  0.75100  0.07740  0.77700  1.0000
  As  As8       1.0  0.68800  0.64000  0.78400  1.0000
  O   O1        1.0  0.40700  0.33200  0.05180  1.0000
  O   O2        1.0  0.34300  0.87000  0.06230  1.0000
  O   O3        1.0  0.12600  0.46700  0.13400  1.0000
  O   O4        1.0  0.13100  0.10600  0.15200  1.0000
  O   O5        1.0  0.99100  0.77500  0.18200  1.0000
  O   O6        1.0  0.61200  0.66000  0.23900  1.0000
  O   O7        1.0  0.76100  0.25300  0.25700  1.0000
  O   O8        1.0  0.81400  0.98900  0.39200  1.0000
  O   O9        1.0  0.10900  0.33400  0.49500  1.0000
  O   O10       1.0  0.89100  0.66600  0.50500  1.0000
  O   O11       1.0  0.18600  0.01090  0.60800  1.0000
  O   O12       1.0  0.23900  0.74700  0.74300  1.0000
  O   O13       1.0  0.38800  0.34000  0.76100  1.0000
  O   O14       1.0  0.00878  0.22500  0.81800  1.0000
  O   O15       1.0  0.86900  0.89400  0.84800  1.0000
  O   O16       1.0  0.87400  0.53300  0.86600  1.0000
  O   O17       1.0  0.65700  0.13000  0.93800  1.0000
  O   O18       1.0  0.59300  0.66800  0.94800  1.0000
  Sm  Sm1       1.0  0.77500  0.46800  0.09170  1.0000
  Sm  Sm2       1.0  0.74700  0.94600  0.12200  1.0000
  Sm  Sm3       1.0  0.25300  0.05440  0.87800  1.0000
  Sm  Sm4       1.0  0.22500  0.53200  0.90800  1.0000
