data_image0
_chemical_formula_structural       H8Li2Na2O14Si4
_chemical_formula_sum              "H8 Li2 Na2 O14 Si4"
_cell_length_a       4.98553
_cell_length_b       8.24491
_cell_length_c       8.24491
_cell_angle_alpha    59.7052
_cell_angle_beta     96.3986
_cell_angle_gamma    96.3986

_space_group_name_H-M_alt    "P 1"
_space_group_IT_number       1

loop_
  _space_group_symop_operation_xyz
  'x, y, z'

loop_
  _atom_site_type_symbol
  _atom_site_label
  _atom_site_symmetry_multiplicity
  _atom_site_fract_x
  _atom_site_fract_y
  _atom_site_fract_z
  _atom_site_occupancy
  H   H1        1.0  0.97500  0.76200  0.05530  1.0000
  H   H2        1.0  0.23400  0.21900  0.11200  1.0000
  H   H3        1.0  0.47500  0.55500  0.26200  1.0000
  H   H4        1.0  0.26600  0.38800  0.28100  1.0000
  H   H5        1.0  0.73400  0.61200  0.71900  1.0000
  H   H6        1.0  0.52500  0.44500  0.73800  1.0000
  H   H7        1.0  0.76600  0.78100  0.88800  1.0000
  H   H8        1.0  0.02540  0.23800  0.94500  1.0000
  Li  Li1       1.0  0.25000  0.00788  0.49200  1.0000
  Li  Li2       1.0  0.75000  0.99200  0.50800  1.0000
  Na  Na1       1.0  0.75000  0.36300  0.13700  1.0000
  Na  Na2       1.0  0.25000  0.63700  0.86300  1.0000
  O   O1        1.0  0.50000  0.00000  0.00000  1.0000
  O   O2        1.0  0.09720  0.30000  0.01730  1.0000
  O   O3        1.0  0.40300  0.48300  0.20000  1.0000
  O   O4        1.0  0.10900  0.83600  0.22300  1.0000
  O   O5        1.0  0.48300  0.05680  0.29300  1.0000
  O   O6        1.0  0.60900  0.72300  0.33600  1.0000
  O   O7        1.0  0.01660  0.20700  0.44300  1.0000
  O   O8        1.0  0.00000  0.50000  0.50000  1.0000
  O   O9        1.0  0.98300  0.79300  0.55700  1.0000
  O   O10       1.0  0.39100  0.27700  0.66400  1.0000
  O   O11       1.0  0.51700  0.94300  0.70700  1.0000
  O   O12       1.0  0.89100  0.16400  0.77700  1.0000
  O   O13       1.0  0.59700  0.51700  0.80000  1.0000
  O   O14       1.0  0.90300  0.70000  0.98300  1.0000
  Si  Si1       1.0  0.43100  0.91200  0.21600  1.0000
  Si  Si2       1.0  0.93100  0.71600  0.41200  1.0000
  Si  Si3       1.0  0.06920  0.28400  0.58800  1.0000
  Si  Si4       1.0  0.56900  0.08810  0.78400  1.0000
