data_image0
_chemical_formula_structural       Gd6Mn23
_chemical_formula_sum              "Gd6 Mn23"
_cell_length_a       8.4549
_cell_length_b       8.4549
_cell_length_c       8.4549
_cell_angle_alpha    120
_cell_angle_beta     90
_cell_angle_gamma    120

_space_group_name_H-M_alt    "P 1"
_space_group_IT_number       1

loop_
  _space_group_symop_operation_xyz
  'x, y, z'

loop_
  _atom_site_type_symbol
  _atom_site_label
  _atom_site_symmetry_multiplicity
  _atom_site_fract_x
  _atom_site_fract_y
  _atom_site_fract_z
  _atom_site_occupancy
  Gd  Gd1       1.0  0.29600  0.59300  0.29600  1.0000
  Gd  Gd2       1.0  0.29600  0.00000  0.29600  1.0000
  Gd  Gd3       1.0  0.70400  0.00000  0.29600  1.0000
  Gd  Gd4       1.0  0.70400  0.00000  0.70400  1.0000
  Gd  Gd5       1.0  0.29600  0.00000  0.70400  1.0000
  Gd  Gd6       1.0  0.70400  0.40700  0.70400  1.0000
  Mn  Mn1       1.0  0.00000  0.00000  0.00000  1.0000
  Mn  Mn2       1.0  0.50000  0.00000  0.00000  1.0000
  Mn  Mn3       1.0  0.00000  0.50000  0.00000  1.0000
  Mn  Mn4       1.0  0.50000  0.50000  0.00000  1.0000
  Mn  Mn5       1.0  0.67900  0.35700  0.03570  1.0000
  Mn  Mn6       1.0  0.87600  0.75200  0.12400  1.0000
  Mn  Mn7       1.0  0.37100  0.24800  0.12400  1.0000
  Mn  Mn8       1.0  0.87600  0.24800  0.12400  1.0000
  Mn  Mn9       1.0  0.67900  0.35700  0.32100  1.0000
  Mn  Mn10      1.0  0.67900  0.64300  0.32100  1.0000
  Mn  Mn11      1.0  0.96400  0.64300  0.32100  1.0000
  Mn  Mn12      1.0  0.12400  0.24800  0.37100  1.0000
  Mn  Mn13      1.0  0.00000  0.50000  0.50000  1.0000
  Mn  Mn14      1.0  0.50000  0.50000  0.50000  1.0000
  Mn  Mn15      1.0  0.00000  0.00000  0.50000  1.0000
  Mn  Mn16      1.0  0.87600  0.75200  0.62900  1.0000
  Mn  Mn17      1.0  0.03570  0.35700  0.67900  1.0000
  Mn  Mn18      1.0  0.32100  0.35700  0.67900  1.0000
  Mn  Mn19      1.0  0.32100  0.64300  0.67900  1.0000
  Mn  Mn20      1.0  0.12400  0.24800  0.87600  1.0000
  Mn  Mn21      1.0  0.12400  0.75200  0.87600  1.0000
  Mn  Mn22      1.0  0.62900  0.75200  0.87600  1.0000
  Mn  Mn23      1.0  0.32100  0.64300  0.96400  1.0000
