data_image0
_chemical_formula_structural       Co4Na14O12
_chemical_formula_sum              "Co4 Na14 O12"
_cell_length_a       5.74122
_cell_length_b       7.74532
_cell_length_c       10.5238
_cell_angle_alpha    104.251
_cell_angle_beta     90
_cell_angle_gamma    111.754

_space_group_name_H-M_alt    "P 1"
_space_group_IT_number       1

loop_
  _space_group_symop_operation_xyz
  'x, y, z'

loop_
  _atom_site_type_symbol
  _atom_site_label
  _atom_site_symmetry_multiplicity
  _atom_site_fract_x
  _atom_site_fract_y
  _atom_site_fract_z
  _atom_site_occupancy
  Co  Co1       1.0  0.23800  0.24800  0.03920  1.0000
  Co  Co2       1.0  0.99000  0.75200  0.46100  1.0000
  Co  Co3       1.0  0.01050  0.24800  0.53900  1.0000
  Co  Co4       1.0  0.76200  0.75200  0.96100  1.0000
  Na  Na1       1.0  0.24000  0.66700  0.09490  1.0000
  Na  Na2       1.0  0.69500  0.11700  0.15000  1.0000
  Na  Na3       1.0  0.74000  0.54900  0.19300  1.0000
  Na  Na4       1.0  0.07080  0.00000  0.25000  1.0000
  Na  Na5       1.0  0.19100  0.45100  0.30700  1.0000
  Na  Na6       1.0  0.57800  0.88300  0.35000  1.0000
  Na  Na7       1.0  0.57300  0.33300  0.40500  1.0000
  Na  Na8       1.0  0.42700  0.66700  0.59500  1.0000
  Na  Na9       1.0  0.42200  0.11700  0.65000  1.0000
  Na  Na10      1.0  0.80900  0.54900  0.69300  1.0000
  Na  Na11      1.0  0.92900  0.00000  0.75000  1.0000
  Na  Na12      1.0  0.26000  0.45100  0.80700  1.0000
  Na  Na13      1.0  0.30500  0.88300  0.85000  1.0000
  Na  Na14      1.0  0.76000  0.33300  0.90500  1.0000
  O   O1        1.0  0.99800  0.34800  0.08270  1.0000
  O   O2        1.0  0.67300  0.80600  0.12600  1.0000
  O   O3        1.0  0.39300  0.24000  0.18800  1.0000
  O   O4        1.0  0.15300  0.76000  0.31200  1.0000
  O   O5        1.0  0.86700  0.19400  0.37400  1.0000
  O   O6        1.0  0.65000  0.65200  0.41700  1.0000
  O   O7        1.0  0.35000  0.34800  0.58300  1.0000
  O   O8        1.0  0.13300  0.80600  0.62600  1.0000
  O   O9        1.0  0.84700  0.24000  0.68800  1.0000
  O   O10       1.0  0.60700  0.76000  0.81200  1.0000
  O   O11       1.0  0.32700  0.19400  0.87400  1.0000
  O   O12       1.0  0.00194  0.65200  0.91700  1.0000
