data_image0
_chemical_formula_structural       Be4Cl12Te14
_chemical_formula_sum              "Be4 Cl12 Te14"
_cell_length_a       5.48763
_cell_length_b       10.0359
_cell_length_c       16.7364
_cell_angle_alpha    90
_cell_angle_beta     90
_cell_angle_gamma    90

_space_group_name_H-M_alt    "P 1"
_space_group_IT_number       1

loop_
  _space_group_symop_operation_xyz
  'x, y, z'

loop_
  _atom_site_type_symbol
  _atom_site_label
  _atom_site_symmetry_multiplicity
  _atom_site_fract_x
  _atom_site_fract_y
  _atom_site_fract_z
  _atom_site_occupancy
  Be  Be1       1.0  0.50000  0.00000  0.08060  1.0000
  Be  Be2       1.0  0.00000  0.50000  0.41900  1.0000
  Be  Be3       1.0  0.00000  0.50000  0.58100  1.0000
  Be  Be4       1.0  0.50000  0.00000  0.91900  1.0000
  Cl  Cl1       1.0  0.26200  0.08540  0.00000  1.0000
  Cl  Cl2       1.0  0.73800  0.91500  0.00000  1.0000
  Cl  Cl3       1.0  0.64800  0.14400  0.14600  1.0000
  Cl  Cl4       1.0  0.35200  0.85600  0.14600  1.0000
  Cl  Cl5       1.0  0.14800  0.35600  0.35400  1.0000
  Cl  Cl6       1.0  0.85200  0.64400  0.35400  1.0000
  Cl  Cl7       1.0  0.76200  0.41500  0.50000  1.0000
  Cl  Cl8       1.0  0.23800  0.58500  0.50000  1.0000
  Cl  Cl9       1.0  0.14800  0.35600  0.64600  1.0000
  Cl  Cl10      1.0  0.85200  0.64400  0.64600  1.0000
  Cl  Cl11      1.0  0.64800  0.14400  0.85400  1.0000
  Cl  Cl12      1.0  0.35200  0.85600  0.85400  1.0000
  Te  Te1       1.0  0.50000  0.50000  0.00000  1.0000
  Te  Te2       1.0  0.17100  0.39300  0.12900  1.0000
  Te  Te3       1.0  0.82900  0.60700  0.12900  1.0000
  Te  Te4       1.0  0.50000  0.50000  0.24000  1.0000
  Te  Te5       1.0  0.00000  0.00000  0.26000  1.0000
  Te  Te6       1.0  0.67100  0.10700  0.37100  1.0000
  Te  Te7       1.0  0.32900  0.89300  0.37100  1.0000
  Te  Te8       1.0  0.00000  0.00000  0.50000  1.0000
  Te  Te9       1.0  0.67100  0.10700  0.62900  1.0000
  Te  Te10      1.0  0.32900  0.89300  0.62900  1.0000
  Te  Te11      1.0  0.00000  0.00000  0.74000  1.0000
  Te  Te12      1.0  0.50000  0.50000  0.76000  1.0000
  Te  Te13      1.0  0.17100  0.39300  0.87100  1.0000
  Te  Te14      1.0  0.82900  0.60700  0.87100  1.0000
