data_image0
_chemical_formula_structural       Cu2O18Se6Sr4
_chemical_formula_sum              "Cu2 O18 Se6 Sr4"
_cell_length_a       7.15262
_cell_length_b       7.66877
_cell_length_c       8.59795
_cell_angle_alpha    102.496
_cell_angle_beta     104.989
_cell_angle_gamma    96.2254

_space_group_name_H-M_alt    "P 1"
_space_group_IT_number       1

loop_
  _space_group_symop_operation_xyz
  'x, y, z'

loop_
  _atom_site_type_symbol
  _atom_site_label
  _atom_site_symmetry_multiplicity
  _atom_site_fract_x
  _atom_site_fract_y
  _atom_site_fract_z
  _atom_site_occupancy
  Cu  Cu1       1.0  0.91200  0.66200  0.24800  1.0000
  Cu  Cu2       1.0  0.08840  0.33800  0.75200  1.0000
  O   O1        1.0  0.80300  0.39400  0.06390  1.0000
  O   O2        1.0  0.65900  0.70600  0.10900  1.0000
  O   O3        1.0  0.05990  0.82100  0.15600  1.0000
  O   O4        1.0  0.12500  0.24700  0.17200  1.0000
  O   O5        1.0  0.48000  0.87000  0.31700  1.0000
  O   O6        1.0  0.53300  0.28400  0.34300  1.0000
  O   O7        1.0  0.84600  0.00646  0.35300  1.0000
  O   O8        1.0  0.16600  0.62100  0.37900  1.0000
  O   O9        1.0  0.76900  0.59600  0.40700  1.0000
  O   O10       1.0  0.23100  0.40400  0.59300  1.0000
  O   O11       1.0  0.83400  0.37900  0.62100  1.0000
  O   O12       1.0  0.15400  0.99400  0.64700  1.0000
  O   O13       1.0  0.46700  0.71600  0.65700  1.0000
  O   O14       1.0  0.52000  0.13000  0.68300  1.0000
  O   O15       1.0  0.87500  0.75300  0.82800  1.0000
  O   O16       1.0  0.94000  0.17900  0.84400  1.0000
  O   O17       1.0  0.34100  0.29400  0.89100  1.0000
  O   O18       1.0  0.19700  0.60600  0.93600  1.0000
  Se  Se1       1.0  0.89600  0.19600  0.03490  1.0000
  Se  Se2       1.0  0.62700  0.92600  0.19900  1.0000
  Se  Se3       1.0  0.78000  0.36700  0.41000  1.0000
  Se  Se4       1.0  0.22000  0.63300  0.59000  1.0000
  Se  Se5       1.0  0.37300  0.07450  0.80100  1.0000
  Se  Se6       1.0  0.10400  0.80400  0.96500  1.0000
  Sr  Sr1       1.0  0.38000  0.51300  0.19200  1.0000
  Sr  Sr2       1.0  0.24300  0.08880  0.39600  1.0000
  Sr  Sr3       1.0  0.75700  0.91100  0.60400  1.0000
  Sr  Sr4       1.0  0.62000  0.48700  0.80800  1.0000
