data_image0
_chemical_formula_structural       Cr6Hg3O21
_chemical_formula_sum              "Cr6 Hg3 O21"
_cell_length_a       7.06407
_cell_length_b       7.06407
_cell_length_c       9.55385
_cell_angle_alpha    90
_cell_angle_beta     90
_cell_angle_gamma    120

_space_group_name_H-M_alt    "P 1"
_space_group_IT_number       1

loop_
  _space_group_symop_operation_xyz
  'x, y, z'

loop_
  _atom_site_type_symbol
  _atom_site_label
  _atom_site_symmetry_multiplicity
  _atom_site_fract_x
  _atom_site_fract_y
  _atom_site_fract_z
  _atom_site_occupancy
  Cr  Cr1       1.0  0.65000  0.57700  0.32600  1.0000
  Cr  Cr2       1.0  0.99000  0.24100  0.33100  1.0000
  Cr  Cr3       1.0  0.92700  0.35000  0.65900  1.0000
  Cr  Cr4       1.0  0.25100  0.00987  0.66500  1.0000
  Cr  Cr5       1.0  0.42300  0.07260  0.99200  1.0000
  Cr  Cr6       1.0  0.75900  0.74900  0.99800  1.0000
  Hg  Hg1       1.0  0.31400  0.87800  0.33100  1.0000
  Hg  Hg2       1.0  0.56400  0.68600  0.66500  1.0000
  Hg  Hg3       1.0  0.12200  0.43600  0.99800  1.0000
  O   O1        1.0  0.38000  0.27200  0.02340  1.0000
  O   O2        1.0  0.30900  0.87200  0.11500  1.0000
  O   O3        1.0  0.64000  0.69700  0.16500  1.0000
  O   O4        1.0  0.13600  0.44400  0.21400  1.0000
  O   O5        1.0  0.73200  0.12600  0.30100  1.0000
  O   O6        1.0  0.05780  0.05560  0.32000  1.0000
  O   O7        1.0  0.48900  0.31800  0.32100  1.0000
  O   O8        1.0  0.89200  0.62000  0.35700  1.0000
  O   O9        1.0  0.56300  0.69100  0.44800  1.0000
  O   O10       1.0  0.05660  0.36000  0.49900  1.0000
  O   O11       1.0  0.30800  0.86400  0.54800  1.0000
  O   O12       1.0  0.39400  0.26800  0.63500  1.0000
  O   O13       1.0  0.99800  0.94200  0.65400  1.0000
  O   O14       1.0  0.82900  0.51100  0.65400  1.0000
  O   O15       1.0  0.72800  0.10800  0.69000  1.0000
  O   O16       1.0  0.12800  0.43700  0.78100  1.0000
  O   O17       1.0  0.30300  0.94300  0.83200  1.0000
  O   O18       1.0  0.55600  0.69200  0.88100  1.0000
  O   O19       1.0  0.87400  0.60600  0.96800  1.0000
  O   O20       1.0  0.94400  0.00226  0.98700  1.0000
  O   O21       1.0  0.68200  0.17100  0.98700  1.0000
