data_image0
_chemical_formula_structural       Cs4N24Pd2
_chemical_formula_sum              "Cs4 N24 Pd2"
_cell_length_a       6.99522
_cell_length_b       7.10718
_cell_length_c       10.9074
_cell_angle_alpha    90
_cell_angle_beta     104.892
_cell_angle_gamma    90

_space_group_name_H-M_alt    "P 1"
_space_group_IT_number       1

loop_
  _space_group_symop_operation_xyz
  'x, y, z'

loop_
  _atom_site_type_symbol
  _atom_site_label
  _atom_site_symmetry_multiplicity
  _atom_site_fract_x
  _atom_site_fract_y
  _atom_site_fract_z
  _atom_site_occupancy
  Cs  Cs1       1.0  0.20900  0.34000  0.18000  1.0000
  Cs  Cs2       1.0  0.79100  0.84000  0.32000  1.0000
  Cs  Cs3       1.0  0.20900  0.16000  0.68000  1.0000
  Cs  Cs4       1.0  0.79100  0.66000  0.82000  1.0000
  N   N1        1.0  0.73000  0.49800  0.08650  1.0000
  N   N2        1.0  0.03900  0.80500  0.09720  1.0000
  N   N3        1.0  0.69400  0.34000  0.10300  1.0000
  N   N4        1.0  0.20100  0.86000  0.11200  1.0000
  N   N5        1.0  0.66600  0.18000  0.13100  1.0000
  N   N6        1.0  0.37000  0.91600  0.13700  1.0000
  N   N7        1.0  0.63000  0.41600  0.36300  1.0000
  N   N8        1.0  0.33400  0.68000  0.36900  1.0000
  N   N9        1.0  0.79900  0.36000  0.38800  1.0000
  N   N10       1.0  0.30600  0.84000  0.39700  1.0000
  N   N11       1.0  0.96100  0.30500  0.40300  1.0000
  N   N12       1.0  0.27000  0.99800  0.41400  1.0000
  N   N13       1.0  0.73000  0.00214  0.58600  1.0000
  N   N14       1.0  0.03900  0.69500  0.59700  1.0000
  N   N15       1.0  0.69400  0.16000  0.60300  1.0000
  N   N16       1.0  0.20100  0.64000  0.61200  1.0000
  N   N17       1.0  0.66600  0.32000  0.63100  1.0000
  N   N18       1.0  0.37000  0.58400  0.63700  1.0000
  N   N19       1.0  0.63000  0.08420  0.86300  1.0000
  N   N20       1.0  0.33400  0.82000  0.86900  1.0000
  N   N21       1.0  0.79900  0.14000  0.88800  1.0000
  N   N22       1.0  0.30600  0.66000  0.89700  1.0000
  N   N23       1.0  0.96100  0.19500  0.90300  1.0000
  N   N24       1.0  0.27000  0.50200  0.91400  1.0000
  Pd  Pd1       1.0  0.50000  0.00000  0.00000  1.0000
  Pd  Pd2       1.0  0.50000  0.50000  0.50000  1.0000
