data_image0
_chemical_formula_structural       Cu16Sn8Sr6
_chemical_formula_sum              "Cu16 Sn8 Sr6"
_cell_length_a       9.33504
_cell_length_b       9.33508
_cell_length_c       7.86672
_cell_angle_alpha    90
_cell_angle_beta     90
_cell_angle_gamma    120

_space_group_name_H-M_alt    "P 1"
_space_group_IT_number       1

loop_
  _space_group_symop_operation_xyz
  'x, y, z'

loop_
  _atom_site_type_symbol
  _atom_site_label
  _atom_site_symmetry_multiplicity
  _atom_site_fract_x
  _atom_site_fract_y
  _atom_site_fract_z
  _atom_site_occupancy
  Cu  Cu1       1.0  0.16100  0.32200  0.17400  1.0000
  Cu  Cu2       1.0  0.16100  0.83900  0.17400  1.0000
  Cu  Cu3       1.0  0.67800  0.83900  0.17400  1.0000
  Cu  Cu4       1.0  0.00000  0.00000  0.22500  1.0000
  Cu  Cu5       1.0  0.66700  0.33300  0.33100  1.0000
  Cu  Cu6       1.0  0.09880  0.19800  0.47900  1.0000
  Cu  Cu7       1.0  0.09880  0.90100  0.47900  1.0000
  Cu  Cu8       1.0  0.80200  0.90100  0.47900  1.0000
  Cu  Cu9       1.0  0.83900  0.67800  0.67400  1.0000
  Cu  Cu10      1.0  0.32200  0.16100  0.67400  1.0000
  Cu  Cu11      1.0  0.83900  0.16100  0.67400  1.0000
  Cu  Cu12      1.0  0.00000  0.00000  0.72500  1.0000
  Cu  Cu13      1.0  0.33300  0.66700  0.83100  1.0000
  Cu  Cu14      1.0  0.90100  0.80200  0.97900  1.0000
  Cu  Cu15      1.0  0.19800  0.09880  0.97900  1.0000
  Cu  Cu16      1.0  0.90100  0.09880  0.97900  1.0000
  Sn  Sn1       1.0  0.33300  0.66700  0.18000  1.0000
  Sn  Sn2       1.0  0.33200  0.16600  0.29600  1.0000
  Sn  Sn3       1.0  0.83400  0.16600  0.29600  1.0000
  Sn  Sn4       1.0  0.83400  0.66800  0.29600  1.0000
  Sn  Sn5       1.0  0.66700  0.33300  0.68000  1.0000
  Sn  Sn6       1.0  0.16600  0.83400  0.79600  1.0000
  Sn  Sn7       1.0  0.66800  0.83400  0.79600  1.0000
  Sn  Sn8       1.0  0.16600  0.33200  0.79600  1.0000
  Sr  Sr1       1.0  0.47500  0.94900  0.50000  1.0000
  Sr  Sr2       1.0  0.05090  0.52500  0.50000  1.0000
  Sr  Sr3       1.0  0.47500  0.52500  0.50000  1.0000
  Sr  Sr4       1.0  0.52500  0.05090  0.00000  1.0000
  Sr  Sr5       1.0  0.52500  0.47500  0.00000  1.0000
  Sr  Sr6       1.0  0.94900  0.47500  0.00000  1.0000
