data_image0
_chemical_formula_structural       Ag2K6Se16Sn6
_chemical_formula_sum              "Ag2 K6 Se16 Sn6"
_cell_length_a       8.31316
_cell_length_b       8.31316
_cell_length_c       13.6592
_cell_angle_alpha    90
_cell_angle_beta     90
_cell_angle_gamma    90

_space_group_name_H-M_alt    "P 1"
_space_group_IT_number       1

loop_
  _space_group_symop_operation_xyz
  'x, y, z'

loop_
  _atom_site_type_symbol
  _atom_site_label
  _atom_site_symmetry_multiplicity
  _atom_site_fract_x
  _atom_site_fract_y
  _atom_site_fract_z
  _atom_site_occupancy
  Ag  Ag1       1.0  0.75000  0.25000  0.00000  1.0000
  Ag  Ag2       1.0  0.25000  0.75000  0.00000  1.0000
  K   K1        1.0  0.25000  0.25000  0.00000  1.0000
  K   K2        1.0  0.75000  0.75000  0.00000  1.0000
  K   K3        1.0  0.25000  0.25000  0.27400  1.0000
  K   K4        1.0  0.75000  0.75000  0.27400  1.0000
  K   K5        1.0  0.25000  0.25000  0.72600  1.0000
  K   K6        1.0  0.75000  0.75000  0.72600  1.0000
  Se  Se1       1.0  0.57200  0.07170  0.13800  1.0000
  Se  Se2       1.0  0.92800  0.42800  0.13800  1.0000
  Se  Se3       1.0  0.42800  0.57200  0.13800  1.0000
  Se  Se4       1.0  0.07170  0.92800  0.13800  1.0000
  Se  Se5       1.0  0.91400  0.08560  0.37400  1.0000
  Se  Se6       1.0  0.58600  0.41400  0.37400  1.0000
  Se  Se7       1.0  0.08560  0.58600  0.37400  1.0000
  Se  Se8       1.0  0.41400  0.91400  0.37400  1.0000
  Se  Se9       1.0  0.58600  0.08560  0.62600  1.0000
  Se  Se10      1.0  0.91400  0.41400  0.62600  1.0000
  Se  Se11      1.0  0.41400  0.58600  0.62600  1.0000
  Se  Se12      1.0  0.08560  0.91400  0.62600  1.0000
  Se  Se13      1.0  0.92800  0.07170  0.86200  1.0000
  Se  Se14      1.0  0.57200  0.42800  0.86200  1.0000
  Se  Se15      1.0  0.07170  0.57200  0.86200  1.0000
  Se  Se16      1.0  0.42800  0.92800  0.86200  1.0000
  Sn  Sn1       1.0  0.75000  0.25000  0.24000  1.0000
  Sn  Sn2       1.0  0.25000  0.75000  0.24000  1.0000
  Sn  Sn3       1.0  0.75000  0.25000  0.50000  1.0000
  Sn  Sn4       1.0  0.25000  0.75000  0.50000  1.0000
  Sn  Sn5       1.0  0.75000  0.25000  0.76000  1.0000
  Sn  Sn6       1.0  0.25000  0.75000  0.76000  1.0000
