data_image0
_chemical_formula_structural       Fe2O20P4Ti4
_chemical_formula_sum              "Fe2 O20 P4 Ti4"
_cell_length_a       7.4285
_cell_length_b       7.37093
_cell_length_c       7.30142
_cell_angle_alpha    90.0109
_cell_angle_beta     119.933
_cell_angle_gamma    89.9944

_space_group_name_H-M_alt    "P 1"
_space_group_IT_number       1

loop_
  _space_group_symop_operation_xyz
  'x, y, z'

loop_
  _atom_site_type_symbol
  _atom_site_label
  _atom_site_symmetry_multiplicity
  _atom_site_fract_x
  _atom_site_fract_y
  _atom_site_fract_z
  _atom_site_occupancy
  Fe  Fe1       1.0  0.00000  0.00000  0.00000  1.0000
  Fe  Fe2       1.0  0.00000  0.50000  0.50000  1.0000
  O   O1        1.0  0.25900  0.48500  0.07610  1.0000
  O   O2        1.0  0.77000  0.00367  0.09320  1.0000
  O   O3        1.0  0.56100  0.75300  0.13600  1.0000
  O   O4        1.0  0.05680  0.25000  0.15200  1.0000
  O   O5        1.0  0.23600  0.83700  0.22700  1.0000
  O   O6        1.0  0.76400  0.33700  0.27300  1.0000
  O   O7        1.0  0.94300  0.75000  0.34800  1.0000
  O   O8        1.0  0.44000  0.25300  0.36400  1.0000
  O   O9        1.0  0.23000  0.50400  0.40700  1.0000
  O   O10       1.0  0.74100  0.98500  0.42400  1.0000
  O   O11       1.0  0.25900  0.01490  0.57600  1.0000
  O   O12       1.0  0.77000  0.49600  0.59300  1.0000
  O   O13       1.0  0.56000  0.74700  0.63600  1.0000
  O   O14       1.0  0.05660  0.25000  0.65200  1.0000
  O   O15       1.0  0.23600  0.66300  0.72700  1.0000
  O   O16       1.0  0.76400  0.16300  0.77300  1.0000
  O   O17       1.0  0.94300  0.75000  0.84800  1.0000
  O   O18       1.0  0.43900  0.24700  0.86400  1.0000
  O   O19       1.0  0.23000  0.99600  0.90700  1.0000
  O   O20       1.0  0.74100  0.51500  0.92400  1.0000
  P   P1        1.0  0.24800  0.37500  0.24900  1.0000
  P   P2        1.0  0.75300  0.87500  0.25100  1.0000
  P   P3        1.0  0.24700  0.12500  0.74900  1.0000
  P   P4        1.0  0.75200  0.62500  0.75100  1.0000
  Ti  Ti1       1.0  0.73200  0.27600  0.02120  1.0000
  Ti  Ti2       1.0  0.26800  0.77600  0.47900  1.0000
  Ti  Ti3       1.0  0.73200  0.22400  0.52100  1.0000
  Ti  Ti4       1.0  0.26800  0.72400  0.97900  1.0000
