data_image0
_chemical_formula_structural       Au10Ta20
_chemical_formula_sum              "Au10 Ta20"
_cell_length_a       10.0966
_cell_length_b       10.0966
_cell_length_c       5.23195
_cell_angle_alpha    90
_cell_angle_beta     90
_cell_angle_gamma    90

_space_group_name_H-M_alt    "P 1"
_space_group_IT_number       1

loop_
  _space_group_symop_operation_xyz
  'x, y, z'

loop_
  _atom_site_type_symbol
  _atom_site_label
  _atom_site_symmetry_multiplicity
  _atom_site_fract_x
  _atom_site_fract_y
  _atom_site_fract_z
  _atom_site_occupancy
  Au  Au1       1.0  0.00000  0.00000  0.00000  1.0000
  Au  Au2       1.0  0.73300  0.06340  0.00000  1.0000
  Au  Au3       1.0  0.93700  0.26700  0.00000  1.0000
  Au  Au4       1.0  0.06340  0.73300  0.00000  1.0000
  Au  Au5       1.0  0.26700  0.93700  0.00000  1.0000
  Au  Au6       1.0  0.43700  0.23300  0.50000  1.0000
  Au  Au7       1.0  0.23300  0.43700  0.50000  1.0000
  Au  Au8       1.0  0.50000  0.50000  0.50000  1.0000
  Au  Au9       1.0  0.76700  0.56300  0.50000  1.0000
  Au  Au10      1.0  0.56300  0.76700  0.50000  1.0000
  Ta  Ta1       1.0  0.46500  0.13000  0.00000  1.0000
  Ta  Ta2       1.0  0.39600  0.39600  0.00000  1.0000
  Ta  Ta3       1.0  0.13000  0.46500  0.00000  1.0000
  Ta  Ta4       1.0  0.87000  0.53500  0.00000  1.0000
  Ta  Ta5       1.0  0.60400  0.60400  0.00000  1.0000
  Ta  Ta6       1.0  0.53500  0.87000  0.00000  1.0000
  Ta  Ta7       1.0  0.68300  0.31700  0.25000  1.0000
  Ta  Ta8       1.0  0.31700  0.68300  0.25000  1.0000
  Ta  Ta9       1.0  0.18300  0.18300  0.25000  1.0000
  Ta  Ta10      1.0  0.81700  0.81700  0.25000  1.0000
  Ta  Ta11      1.0  0.63000  0.03510  0.50000  1.0000
  Ta  Ta12      1.0  0.89600  0.10400  0.50000  1.0000
  Ta  Ta13      1.0  0.96500  0.37000  0.50000  1.0000
  Ta  Ta14      1.0  0.03510  0.63000  0.50000  1.0000
  Ta  Ta15      1.0  0.10400  0.89600  0.50000  1.0000
  Ta  Ta16      1.0  0.37000  0.96500  0.50000  1.0000
  Ta  Ta17      1.0  0.18300  0.18300  0.75000  1.0000
  Ta  Ta18      1.0  0.81700  0.81700  0.75000  1.0000
  Ta  Ta19      1.0  0.68300  0.31700  0.75000  1.0000
  Ta  Ta20      1.0  0.31700  0.68300  0.75000  1.0000
