data_image0
_chemical_formula_structural       Hg6K4S16Sn4
_chemical_formula_sum              "Hg6 K4 S16 Sn4"
_cell_length_a       6.65484
_cell_length_b       6.65484
_cell_length_c       19.9162
_cell_angle_alpha    90
_cell_angle_beta     90
_cell_angle_gamma    97.8042

_space_group_name_H-M_alt    "P 1"
_space_group_IT_number       1

loop_
  _space_group_symop_operation_xyz
  'x, y, z'

loop_
  _atom_site_type_symbol
  _atom_site_label
  _atom_site_symmetry_multiplicity
  _atom_site_fract_x
  _atom_site_fract_y
  _atom_site_fract_z
  _atom_site_occupancy
  Hg  Hg1       1.0  0.01080  0.01080  0.00000  1.0000
  Hg  Hg2       1.0  0.31200  0.39200  0.24600  1.0000
  Hg  Hg3       1.0  0.81200  0.89200  0.25400  1.0000
  Hg  Hg4       1.0  0.51100  0.51100  0.50000  1.0000
  Hg  Hg5       1.0  0.89200  0.81200  0.74600  1.0000
  Hg  Hg6       1.0  0.39200  0.31200  0.75400  1.0000
  K   K1        1.0  0.86200  0.44900  0.11800  1.0000
  K   K2        1.0  0.36200  0.94900  0.38200  1.0000
  K   K3        1.0  0.94900  0.36200  0.61800  1.0000
  K   K4        1.0  0.44900  0.86200  0.88200  1.0000
  S   S1        1.0  0.23600  0.77900  0.03170  1.0000
  S   S2        1.0  0.33000  0.30400  0.12600  1.0000
  S   S3        1.0  0.73400  0.90300  0.13300  1.0000
  S   S4        1.0  0.22100  0.79600  0.23300  1.0000
  S   S5        1.0  0.72100  0.29600  0.26700  1.0000
  S   S6        1.0  0.23400  0.40300  0.36700  1.0000
  S   S7        1.0  0.83000  0.80400  0.37400  1.0000
  S   S8        1.0  0.73600  0.27900  0.46800  1.0000
  S   S9        1.0  0.27900  0.73600  0.53200  1.0000
  S   S10       1.0  0.80400  0.83000  0.62600  1.0000
  S   S11       1.0  0.40300  0.23400  0.63300  1.0000
  S   S12       1.0  0.29600  0.72100  0.73300  1.0000
  S   S13       1.0  0.79600  0.22100  0.76700  1.0000
  S   S14       1.0  0.90300  0.73400  0.86700  1.0000
  S   S15       1.0  0.30400  0.33000  0.87400  1.0000
  S   S16       1.0  0.77900  0.23600  0.96800  1.0000
  Sn  Sn1       1.0  0.37700  0.94800  0.13500  1.0000
  Sn  Sn2       1.0  0.87700  0.44800  0.36500  1.0000
  Sn  Sn3       1.0  0.44800  0.87700  0.63500  1.0000
  Sn  Sn4       1.0  0.94800  0.37700  0.86500  1.0000
