data_image0
_chemical_formula_structural       Mn6Na12O12
_chemical_formula_sum              "Mn6 Na12 O12"
_cell_length_a       6.0984
_cell_length_b       8.657
_cell_length_c       8.657
_cell_angle_alpha    92.394
_cell_angle_beta     109.685
_cell_angle_gamma    70.3146

_space_group_name_H-M_alt    "P 1"
_space_group_IT_number       1

loop_
  _space_group_symop_operation_xyz
  'x, y, z'

loop_
  _atom_site_type_symbol
  _atom_site_label
  _atom_site_symmetry_multiplicity
  _atom_site_fract_x
  _atom_site_fract_y
  _atom_site_fract_z
  _atom_site_occupancy
  Mn  Mn1       1.0  0.24600  0.71000  0.13000  1.0000
  Mn  Mn2       1.0  0.74600  0.87000  0.29000  1.0000
  Mn  Mn3       1.0  0.25000  0.32000  0.32000  1.0000
  Mn  Mn4       1.0  0.75000  0.68000  0.68000  1.0000
  Mn  Mn5       1.0  0.25400  0.13000  0.71000  1.0000
  Mn  Mn6       1.0  0.75400  0.29000  0.87000  1.0000
  Na  Na1       1.0  0.24000  0.40300  0.00763  1.0000
  Na  Na2       1.0  0.25000  0.06240  0.06240  1.0000
  Na  Na3       1.0  0.75000  0.19700  0.19700  1.0000
  Na  Na4       1.0  0.77500  0.53000  0.32200  1.0000
  Na  Na5       1.0  0.26000  0.00763  0.40300  1.0000
  Na  Na6       1.0  0.27500  0.67800  0.47000  1.0000
  Na  Na7       1.0  0.72500  0.32200  0.53000  1.0000
  Na  Na8       1.0  0.74000  0.99200  0.59700  1.0000
  Na  Na9       1.0  0.22500  0.47000  0.67800  1.0000
  Na  Na10      1.0  0.25000  0.80300  0.80300  1.0000
  Na  Na11      1.0  0.75000  0.93800  0.93800  1.0000
  Na  Na12      1.0  0.76000  0.59700  0.99200  1.0000
  O   O1        1.0  0.51800  0.78400  0.10000  1.0000
  O   O2        1.0  0.96300  0.33200  0.10300  1.0000
  O   O3        1.0  0.01830  0.90000  0.21600  1.0000
  O   O4        1.0  0.40400  0.49000  0.28500  1.0000
  O   O5        1.0  0.53700  0.10300  0.33200  1.0000
  O   O6        1.0  0.09640  0.28500  0.49000  1.0000
  O   O7        1.0  0.90400  0.71500  0.51000  1.0000
  O   O8        1.0  0.46300  0.89700  0.66800  1.0000
  O   O9        1.0  0.59600  0.51000  0.71500  1.0000
  O   O10       1.0  0.98200  0.10000  0.78400  1.0000
  O   O11       1.0  0.03660  0.66800  0.89700  1.0000
  O   O12       1.0  0.48200  0.21600  0.90000  1.0000
