data_image0
_chemical_formula_structural       Ba6Li2O18Ru4
_chemical_formula_sum              "Ba6 Li2 O18 Ru4"
_cell_length_a       5.77532
_cell_length_b       5.77525
_cell_length_c       14.1668
_cell_angle_alpha    90
_cell_angle_beta     90
_cell_angle_gamma    120

_space_group_name_H-M_alt    "P 1"
_space_group_IT_number       1

loop_
  _space_group_symop_operation_xyz
  'x, y, z'

loop_
  _atom_site_type_symbol
  _atom_site_label
  _atom_site_symmetry_multiplicity
  _atom_site_fract_x
  _atom_site_fract_y
  _atom_site_fract_z
  _atom_site_occupancy
  Ba  Ba1       1.0  0.66700  0.33300  0.09000  1.0000
  Ba  Ba2       1.0  0.00000  0.00000  0.25000  1.0000
  Ba  Ba3       1.0  0.66700  0.33300  0.41000  1.0000
  Ba  Ba4       1.0  0.33300  0.66700  0.59000  1.0000
  Ba  Ba5       1.0  0.00000  0.00000  0.75000  1.0000
  Ba  Ba6       1.0  0.33300  0.66700  0.91000  1.0000
  Li  Li1       1.0  0.00000  0.00000  0.00000  1.0000
  Li  Li2       1.0  0.00000  0.00000  0.50000  1.0000
  O   O1        1.0  0.17200  0.34300  0.08440  1.0000
  O   O2        1.0  0.17200  0.82800  0.08440  1.0000
  O   O3        1.0  0.65700  0.82800  0.08440  1.0000
  O   O4        1.0  0.02830  0.51400  0.25000  1.0000
  O   O5        1.0  0.48600  0.51400  0.25000  1.0000
  O   O6        1.0  0.48600  0.97200  0.25000  1.0000
  O   O7        1.0  0.17200  0.82800  0.41600  1.0000
  O   O8        1.0  0.65700  0.82800  0.41600  1.0000
  O   O9        1.0  0.17200  0.34300  0.41600  1.0000
  O   O10       1.0  0.82800  0.65700  0.58400  1.0000
  O   O11       1.0  0.34300  0.17200  0.58400  1.0000
  O   O12       1.0  0.82800  0.17200  0.58400  1.0000
  O   O13       1.0  0.51400  0.02830  0.75000  1.0000
  O   O14       1.0  0.51400  0.48600  0.75000  1.0000
  O   O15       1.0  0.97200  0.48600  0.75000  1.0000
  O   O16       1.0  0.34300  0.17200  0.91600  1.0000
  O   O17       1.0  0.82800  0.17200  0.91600  1.0000
  O   O18       1.0  0.82800  0.65700  0.91600  1.0000
  Ru  Ru1       1.0  0.33300  0.66700  0.15200  1.0000
  Ru  Ru2       1.0  0.33300  0.66700  0.34800  1.0000
  Ru  Ru3       1.0  0.66700  0.33300  0.65200  1.0000
  Ru  Ru4       1.0  0.66700  0.33300  0.84800  1.0000
