data_image0
_chemical_formula_structural       F22Kr6Sb2
_chemical_formula_sum              "F22 Kr6 Sb2"
_cell_length_a       7.5564
_cell_length_b       7.9969
_cell_length_c       8.49396
_cell_angle_alpha    68.6916
_cell_angle_beta     64.324
_cell_angle_gamma    83.012

_space_group_name_H-M_alt    "P 1"
_space_group_IT_number       1

loop_
  _space_group_symop_operation_xyz
  'x, y, z'

loop_
  _atom_site_type_symbol
  _atom_site_label
  _atom_site_symmetry_multiplicity
  _atom_site_fract_x
  _atom_site_fract_y
  _atom_site_fract_z
  _atom_site_occupancy
  F   F1        1.0  0.97400  0.31900  0.05290  1.0000
  F   F2        1.0  0.66400  0.54400  0.05390  1.0000
  F   F3        1.0  0.33600  0.07030  0.07540  1.0000
  F   F4        1.0  0.62700  0.19300  0.11000  1.0000
  F   F5        1.0  0.03870  0.89800  0.14300  1.0000
  F   F6        1.0  0.11600  0.54700  0.26300  1.0000
  F   F7        1.0  0.48000  0.80400  0.31700  1.0000
  F   F8        1.0  0.77400  0.45200  0.33700  1.0000
  F   F9        1.0  0.43700  0.31800  0.38800  1.0000
  F   F10       1.0  0.74100  0.10100  0.39000  1.0000
  F   F11       1.0  0.95200  0.79100  0.49600  1.0000
  F   F12       1.0  0.04830  0.20900  0.50400  1.0000
  F   F13       1.0  0.25900  0.89900  0.61000  1.0000
  F   F14       1.0  0.56300  0.68200  0.61200  1.0000
  F   F15       1.0  0.22600  0.54800  0.66300  1.0000
  F   F16       1.0  0.52000  0.19600  0.68300  1.0000
  F   F17       1.0  0.88400  0.45300  0.73700  1.0000
  F   F18       1.0  0.96100  0.10200  0.85700  1.0000
  F   F19       1.0  0.37300  0.80700  0.89000  1.0000
  F   F20       1.0  0.66400  0.93000  0.92500  1.0000
  F   F21       1.0  0.33600  0.45600  0.94600  1.0000
  F   F22       1.0  0.02610  0.68100  0.94700  1.0000
  Kr  Kr1       1.0  0.77800  0.83600  0.22300  1.0000
  Kr  Kr2       1.0  0.29900  0.66800  0.27600  1.0000
  Kr  Kr3       1.0  0.19500  0.14400  0.28700  1.0000
  Kr  Kr4       1.0  0.80500  0.85600  0.71300  1.0000
  Kr  Kr5       1.0  0.70100  0.33200  0.72400  1.0000
  Kr  Kr6       1.0  0.22200  0.16400  0.77700  1.0000
  Sb  Sb1       1.0  0.70700  0.32300  0.21900  1.0000
  Sb  Sb2       1.0  0.29300  0.67700  0.78100  1.0000
