data_image0
_chemical_formula_structural       Co8Ge14Hf8
_chemical_formula_sum              "Co8 Ge14 Hf8"
_cell_length_a       5.20674
_cell_length_b       9.67731
_cell_length_c       9.67731
_cell_angle_alpha    94.1502
_cell_angle_beta     105.606
_cell_angle_gamma    74.3942

_space_group_name_H-M_alt    "P 1"
_space_group_IT_number       1

loop_
  _space_group_symop_operation_xyz
  'x, y, z'

loop_
  _atom_site_type_symbol
  _atom_site_label
  _atom_site_symmetry_multiplicity
  _atom_site_fract_x
  _atom_site_fract_y
  _atom_site_fract_z
  _atom_site_occupancy
  Co  Co1       1.0  0.10100  0.50000  0.20200  1.0000
  Co  Co2       1.0  0.60100  0.50000  0.20200  1.0000
  Co  Co3       1.0  0.39900  0.20200  0.50000  1.0000
  Co  Co4       1.0  0.89900  0.20200  0.50000  1.0000
  Co  Co5       1.0  0.10100  0.79800  0.50000  1.0000
  Co  Co6       1.0  0.60100  0.79800  0.50000  1.0000
  Co  Co7       1.0  0.39900  0.50000  0.79800  1.0000
  Co  Co8       1.0  0.89900  0.50000  0.79800  1.0000
  Ge  Ge1       1.0  0.24900  0.00000  0.00000  1.0000
  Ge  Ge2       1.0  0.75100  0.00000  0.00000  1.0000
  Ge  Ge3       1.0  0.29300  0.41400  0.00000  1.0000
  Ge  Ge4       1.0  0.70700  0.58600  0.00000  1.0000
  Ge  Ge5       1.0  0.00000  0.29200  0.29200  1.0000
  Ge  Ge6       1.0  0.29200  0.70800  0.29200  1.0000
  Ge  Ge7       1.0  0.50000  0.40600  0.40600  1.0000
  Ge  Ge8       1.0  0.90600  0.59400  0.40600  1.0000
  Ge  Ge9       1.0  0.70700  0.00000  0.41400  1.0000
  Ge  Ge10      1.0  0.29300  0.00000  0.58600  1.0000
  Ge  Ge11      1.0  0.09400  0.40600  0.59400  1.0000
  Ge  Ge12      1.0  0.50000  0.59400  0.59400  1.0000
  Ge  Ge13      1.0  0.70800  0.29200  0.70800  1.0000
  Ge  Ge14      1.0  0.00000  0.70800  0.70800  1.0000
  Hf  Hf1       1.0  0.86100  0.27800  0.00000  1.0000
  Hf  Hf2       1.0  0.13900  0.72200  0.00000  1.0000
  Hf  Hf3       1.0  0.50000  0.19500  0.19500  1.0000
  Hf  Hf4       1.0  0.69500  0.80500  0.19500  1.0000
  Hf  Hf5       1.0  0.13900  0.00000  0.27800  1.0000
  Hf  Hf6       1.0  0.86100  0.00000  0.72200  1.0000
  Hf  Hf7       1.0  0.50000  0.80500  0.80500  1.0000
  Hf  Hf8       1.0  0.30500  0.19500  0.80500  1.0000
