data_image0
_chemical_formula_structural       Cu16Se12Si2
_chemical_formula_sum              "Cu16 Se12 Si2"
_cell_length_a       7.31677
_cell_length_b       7.19658
_cell_length_c       10.1601
_cell_angle_alpha    90
_cell_angle_beta     90
_cell_angle_gamma    90

_space_group_name_H-M_alt    "P 1"
_space_group_IT_number       1

loop_
  _space_group_symop_operation_xyz
  'x, y, z'

loop_
  _atom_site_type_symbol
  _atom_site_label
  _atom_site_symmetry_multiplicity
  _atom_site_fract_x
  _atom_site_fract_y
  _atom_site_fract_z
  _atom_site_occupancy
  Cu  Cu1       1.0  0.00000  0.60300  0.04730  1.0000
  Cu  Cu2       1.0  0.20200  0.15500  0.16200  1.0000
  Cu  Cu3       1.0  0.79800  0.15500  0.16200  1.0000
  Cu  Cu4       1.0  0.19100  0.52700  0.26300  1.0000
  Cu  Cu5       1.0  0.80900  0.52700  0.26300  1.0000
  Cu  Cu6       1.0  0.28600  0.89000  0.36200  1.0000
  Cu  Cu7       1.0  0.71400  0.89000  0.36200  1.0000
  Cu  Cu8       1.0  0.00000  0.73400  0.48000  1.0000
  Cu  Cu9       1.0  0.50000  0.39700  0.54700  1.0000
  Cu  Cu10      1.0  0.29800  0.84500  0.66200  1.0000
  Cu  Cu11      1.0  0.70200  0.84500  0.66200  1.0000
  Cu  Cu12      1.0  0.30900  0.47300  0.76300  1.0000
  Cu  Cu13      1.0  0.69100  0.47300  0.76300  1.0000
  Cu  Cu14      1.0  0.21400  0.11000  0.86200  1.0000
  Cu  Cu15      1.0  0.78600  0.11000  0.86200  1.0000
  Cu  Cu16      1.0  0.50000  0.26600  0.98000  1.0000
  Se  Se1       1.0  0.00000  0.27300  0.00153  1.0000
  Se  Se2       1.0  0.50000  0.49800  0.15200  1.0000
  Se  Se3       1.0  0.50000  0.00000  0.15300  1.0000
  Se  Se4       1.0  0.00000  0.80600  0.24500  1.0000
  Se  Se5       1.0  0.26100  0.24900  0.39700  1.0000
  Se  Se6       1.0  0.73900  0.24900  0.39700  1.0000
  Se  Se7       1.0  0.50000  0.72700  0.50200  1.0000
  Se  Se8       1.0  0.00000  0.50200  0.65200  1.0000
  Se  Se9       1.0  0.00000  0.00040  0.65300  1.0000
  Se  Se10      1.0  0.50000  0.19400  0.74500  1.0000
  Se  Se11      1.0  0.23900  0.75100  0.89700  1.0000
  Se  Se12      1.0  0.76100  0.75100  0.89700  1.0000
  Si  Si1       1.0  0.50000  0.74700  0.01750  1.0000
  Si  Si2       1.0  0.00000  0.25300  0.51800  1.0000
