data_image0
_chemical_formula_structural       K6O18S6
_chemical_formula_sum              "K6 O18 S6"
_cell_length_a       9.62805
_cell_length_b       9.62827
_cell_length_c       6.19882
_cell_angle_alpha    90
_cell_angle_beta     89.9963
_cell_angle_gamma    120.001

_space_group_name_H-M_alt    "P 1"
_space_group_IT_number       1

loop_
  _space_group_symop_operation_xyz
  'x, y, z'

loop_
  _atom_site_type_symbol
  _atom_site_label
  _atom_site_symmetry_multiplicity
  _atom_site_fract_x
  _atom_site_fract_y
  _atom_site_fract_z
  _atom_site_occupancy
  K   K1        1.0  0.62000  0.00000  0.00000  1.0000
  K   K2        1.0  0.38000  0.38000  0.00000  1.0000
  K   K3        1.0  0.00000  0.62000  0.00000  1.0000
  K   K4        1.0  0.70100  0.70100  0.50000  1.0000
  K   K5        1.0  0.00000  0.29900  0.50000  1.0000
  K   K6        1.0  0.29900  0.00000  0.50000  1.0000
  O   O1        1.0  0.30600  0.79900  0.18800  1.0000
  O   O2        1.0  0.49200  0.69400  0.18800  1.0000
  O   O3        1.0  0.20100  0.50800  0.18800  1.0000
  O   O4        1.0  0.96900  0.83900  0.24000  1.0000
  O   O5        1.0  0.16000  0.12900  0.24000  1.0000
  O   O6        1.0  0.87100  0.03130  0.24000  1.0000
  O   O7        1.0  0.61800  0.16700  0.34400  1.0000
  O   O8        1.0  0.83300  0.45100  0.34400  1.0000
  O   O9        1.0  0.54900  0.38200  0.34400  1.0000
  O   O10       1.0  0.45100  0.83300  0.65600  1.0000
  O   O11       1.0  0.16700  0.61800  0.65600  1.0000
  O   O12       1.0  0.38200  0.54900  0.65600  1.0000
  O   O13       1.0  0.12900  0.16000  0.76000  1.0000
  O   O14       1.0  0.84000  0.96900  0.76000  1.0000
  O   O15       1.0  0.03130  0.87100  0.76000  1.0000
  O   O16       1.0  0.79900  0.30700  0.81200  1.0000
  O   O17       1.0  0.50800  0.20100  0.81200  1.0000
  O   O18       1.0  0.69400  0.49200  0.81200  1.0000
  S   S1        1.0  0.00000  0.00000  0.17900  1.0000
  S   S2        1.0  0.33300  0.66700  0.25000  1.0000
  S   S3        1.0  0.66700  0.33300  0.39900  1.0000
  S   S4        1.0  0.33300  0.66700  0.60100  1.0000
  S   S5        1.0  0.66700  0.33300  0.75000  1.0000
  S   S6        1.0  0.00000  0.00000  0.82100  1.0000
