data_image0
_chemical_formula_structural       K4O18Si6Zr2
_chemical_formula_sum              "K4 O18 Si6 Zr2"
_cell_length_a       6.7391
_cell_length_b       6.73848
_cell_length_c       10.154
_cell_angle_alpha    90
_cell_angle_beta     90
_cell_angle_gamma    120.058

_space_group_name_H-M_alt    "P 1"
_space_group_IT_number       1

loop_
  _space_group_symop_operation_xyz
  'x, y, z'

loop_
  _atom_site_type_symbol
  _atom_site_label
  _atom_site_symmetry_multiplicity
  _atom_site_fract_x
  _atom_site_fract_y
  _atom_site_fract_z
  _atom_site_occupancy
  K   K1        1.0  0.66700  0.33300  0.54100  1.0000
  K   K2        1.0  0.33300  0.66700  0.04060  1.0000
  K   K3        1.0  0.33300  0.66700  0.45900  1.0000
  K   K4        1.0  0.66700  0.33300  0.95900  1.0000
  O   O1        1.0  0.25200  0.25900  0.11500  1.0000
  O   O2        1.0  0.74800  0.74100  0.61500  1.0000
  O   O3        1.0  0.74100  0.99300  0.11500  1.0000
  O   O4        1.0  0.00692  0.74800  0.11500  1.0000
  O   O5        1.0  0.99300  0.25200  0.61500  1.0000
  O   O6        1.0  0.25900  0.00682  0.61500  1.0000
  O   O7        1.0  0.74800  0.74100  0.88500  1.0000
  O   O8        1.0  0.25200  0.25900  0.38500  1.0000
  O   O9        1.0  0.25900  0.00682  0.88500  1.0000
  O   O10       1.0  0.99300  0.25200  0.88500  1.0000
  O   O11       1.0  0.00692  0.74800  0.38500  1.0000
  O   O12       1.0  0.74100  0.99300  0.38500  1.0000
  O   O13       1.0  0.46900  0.08450  0.25000  1.0000
  O   O14       1.0  0.53100  0.91500  0.75000  1.0000
  O   O15       1.0  0.91600  0.38400  0.25000  1.0000
  O   O16       1.0  0.61600  0.53100  0.25000  1.0000
  O   O17       1.0  0.38400  0.46900  0.75000  1.0000
  O   O18       1.0  0.08440  0.61600  0.75000  1.0000
  Si  Si1       1.0  0.38400  0.27500  0.25000  1.0000
  Si  Si2       1.0  0.61600  0.72500  0.75000  1.0000
  Si  Si3       1.0  0.72500  0.10900  0.25000  1.0000
  Si  Si4       1.0  0.89200  0.61600  0.25000  1.0000
  Si  Si5       1.0  0.10800  0.38400  0.75000  1.0000
  Si  Si6       1.0  0.27500  0.89100  0.75000  1.0000
  Zr  Zr1       1.0  0.00000  0.00000  0.00000  1.0000
  Zr  Zr2       1.0  0.00000  0.00000  0.50000  1.0000
