data_image0
_chemical_formula_structural       Ba6Ir4O18Sr2
_chemical_formula_sum              "Ba6 Ir4 O18 Sr2"
_cell_length_a       5.96443
_cell_length_b       5.96443
_cell_length_c       14.9943
_cell_angle_alpha    91.4234
_cell_angle_beta     91.4234
_cell_angle_gamma    119.522

_space_group_name_H-M_alt    "P 1"
_space_group_IT_number       1

loop_
  _space_group_symop_operation_xyz
  'x, y, z'

loop_
  _atom_site_type_symbol
  _atom_site_label
  _atom_site_symmetry_multiplicity
  _atom_site_fract_x
  _atom_site_fract_y
  _atom_site_fract_z
  _atom_site_occupancy
  Ba  Ba1       1.0  0.34300  0.67600  0.09190  1.0000
  Ba  Ba2       1.0  0.99000  0.01040  0.25000  1.0000
  Ba  Ba3       1.0  0.32400  0.65700  0.40800  1.0000
  Ba  Ba4       1.0  0.67600  0.34300  0.59200  1.0000
  Ba  Ba5       1.0  0.01040  0.99000  0.75000  1.0000
  Ba  Ba6       1.0  0.65700  0.32400  0.90800  1.0000
  Ir  Ir1       1.0  0.68800  0.36000  0.16600  1.0000
  Ir  Ir2       1.0  0.64000  0.31200  0.33400  1.0000
  Ir  Ir3       1.0  0.36000  0.68800  0.66600  1.0000
  Ir  Ir4       1.0  0.31200  0.64000  0.83400  1.0000
  O   O1        1.0  0.41600  0.23100  0.07410  1.0000
  O   O2        1.0  0.86800  0.22600  0.09580  1.0000
  O   O3        1.0  0.86700  0.68400  0.10700  1.0000
  O   O4        1.0  0.50600  0.02890  0.23400  1.0000
  O   O5        1.0  0.50700  0.49300  0.25000  1.0000
  O   O6        1.0  0.97100  0.49400  0.26600  1.0000
  O   O7        1.0  0.31600  0.13300  0.39300  1.0000
  O   O8        1.0  0.77400  0.13200  0.40400  1.0000
  O   O9        1.0  0.76900  0.58400  0.42600  1.0000
  O   O10       1.0  0.23100  0.41600  0.57400  1.0000
  O   O11       1.0  0.22600  0.86800  0.59600  1.0000
  O   O12       1.0  0.68400  0.86700  0.60700  1.0000
  O   O13       1.0  0.02890  0.50600  0.73400  1.0000
  O   O14       1.0  0.49300  0.50700  0.75000  1.0000
  O   O15       1.0  0.49400  0.97100  0.76600  1.0000
  O   O16       1.0  0.13300  0.31600  0.89300  1.0000
  O   O17       1.0  0.13200  0.77400  0.90400  1.0000
  O   O18       1.0  0.58400  0.76900  0.92600  1.0000
  Sr  Sr1       1.0  0.00000  0.00000  0.00000  1.0000
  Sr  Sr2       1.0  0.00000  0.00000  0.50000  1.0000
