data_image0
_chemical_formula_structural       Al2Cl8Sb10Se10
_chemical_formula_sum              "Al2 Cl8 Sb10 Se10"
_cell_length_a       9.68124
_cell_length_b       9.86342
_cell_length_c       11.9292
_cell_angle_alpha    104.499
_cell_angle_beta     110.147
_cell_angle_gamma    100.213

_space_group_name_H-M_alt    "P 1"
_space_group_IT_number       1

loop_
  _space_group_symop_operation_xyz
  'x, y, z'

loop_
  _atom_site_type_symbol
  _atom_site_label
  _atom_site_symmetry_multiplicity
  _atom_site_fract_x
  _atom_site_fract_y
  _atom_site_fract_z
  _atom_site_occupancy
  Al  Al1       1.0  0.92500  0.62400  0.30000  1.0000
  Al  Al2       1.0  0.07500  0.37600  0.70000  1.0000
  Cl  Cl1       1.0  0.77200  0.61200  0.11500  1.0000
  Cl  Cl2       1.0  0.16000  0.68300  0.31400  1.0000
  Cl  Cl3       1.0  0.88000  0.41500  0.32400  1.0000
  Cl  Cl4       1.0  0.90300  0.78900  0.44500  1.0000
  Cl  Cl5       1.0  0.09710  0.21100  0.55500  1.0000
  Cl  Cl6       1.0  0.12000  0.58500  0.67600  1.0000
  Cl  Cl7       1.0  0.84000  0.31700  0.68600  1.0000
  Cl  Cl8       1.0  0.22800  0.38800  0.88500  1.0000
  Sb  Sb1       1.0  0.22300  0.76400  0.06270  1.0000
  Sb  Sb2       1.0  0.42700  0.18300  0.08230  1.0000
  Sb  Sb3       1.0  0.08580  0.96900  0.18000  1.0000
  Sb  Sb4       1.0  0.57300  0.12800  0.31900  1.0000
  Sb  Sb5       1.0  0.29500  0.37800  0.41200  1.0000
  Sb  Sb6       1.0  0.70500  0.62200  0.58800  1.0000
  Sb  Sb7       1.0  0.42700  0.87200  0.68100  1.0000
  Sb  Sb8       1.0  0.91400  0.03130  0.82000  1.0000
  Sb  Sb9       1.0  0.57300  0.81700  0.91800  1.0000
  Sb  Sb10      1.0  0.77700  0.23600  0.93700  1.0000
  Se  Se1       1.0  0.71700  0.08520  0.07760  1.0000
  Se  Se2       1.0  0.15400  0.18900  0.10500  1.0000
  Se  Se3       1.0  0.50100  0.84500  0.23400  1.0000
  Se  Se4       1.0  0.51000  0.48200  0.34600  1.0000
  Se  Se5       1.0  0.34900  0.11300  0.40100  1.0000
  Se  Se6       1.0  0.65100  0.88700  0.59900  1.0000
  Se  Se7       1.0  0.49000  0.51800  0.65400  1.0000
  Se  Se8       1.0  0.49900  0.15500  0.76600  1.0000
  Se  Se9       1.0  0.84600  0.81100  0.89500  1.0000
  Se  Se10      1.0  0.28300  0.91500  0.92200  1.0000
