data_image0
_chemical_formula_structural       Co8Si14Zr8
_chemical_formula_sum              "Co8 Si14 Zr8"
_cell_length_a       5.07664
_cell_length_b       9.48764
_cell_length_c       9.48764
_cell_angle_alpha    94.1046
_cell_angle_beta     105.518
_cell_angle_gamma    74.4821

_space_group_name_H-M_alt    "P 1"
_space_group_IT_number       1

loop_
  _space_group_symop_operation_xyz
  'x, y, z'

loop_
  _atom_site_type_symbol
  _atom_site_label
  _atom_site_symmetry_multiplicity
  _atom_site_fract_x
  _atom_site_fract_y
  _atom_site_fract_z
  _atom_site_occupancy
  Co  Co1       1.0  0.10300  0.50000  0.20500  1.0000
  Co  Co2       1.0  0.60300  0.50000  0.20500  1.0000
  Co  Co3       1.0  0.39700  0.20500  0.50000  1.0000
  Co  Co4       1.0  0.89700  0.20500  0.50000  1.0000
  Co  Co5       1.0  0.10300  0.79500  0.50000  1.0000
  Co  Co6       1.0  0.60300  0.79500  0.50000  1.0000
  Co  Co7       1.0  0.39700  0.50000  0.79500  1.0000
  Co  Co8       1.0  0.89700  0.50000  0.79500  1.0000
  Si  Si1       1.0  0.25100  0.00000  0.00000  1.0000
  Si  Si2       1.0  0.74900  0.00000  0.00000  1.0000
  Si  Si3       1.0  0.28900  0.42300  0.00000  1.0000
  Si  Si4       1.0  0.71100  0.57700  0.00000  1.0000
  Si  Si5       1.0  0.00000  0.30300  0.30300  1.0000
  Si  Si6       1.0  0.30300  0.69700  0.30300  1.0000
  Si  Si7       1.0  0.50000  0.40800  0.40800  1.0000
  Si  Si8       1.0  0.90800  0.59200  0.40800  1.0000
  Si  Si9       1.0  0.71100  0.00000  0.42300  1.0000
  Si  Si10      1.0  0.28900  0.00000  0.57700  1.0000
  Si  Si11      1.0  0.09170  0.40800  0.59200  1.0000
  Si  Si12      1.0  0.50000  0.59200  0.59200  1.0000
  Si  Si13      1.0  0.69700  0.30300  0.69700  1.0000
  Si  Si14      1.0  0.00000  0.69700  0.69700  1.0000
  Zr  Zr1       1.0  0.86200  0.27500  0.00000  1.0000
  Zr  Zr2       1.0  0.13800  0.72500  0.00000  1.0000
  Zr  Zr3       1.0  0.69700  0.80300  0.19700  1.0000
  Zr  Zr4       1.0  0.50000  0.19700  0.19700  1.0000
  Zr  Zr5       1.0  0.13800  0.00000  0.27500  1.0000
  Zr  Zr6       1.0  0.86200  0.00000  0.72500  1.0000
  Zr  Zr7       1.0  0.30300  0.19700  0.80300  1.0000
  Zr  Zr8       1.0  0.50000  0.80300  0.80300  1.0000
