data_image0
_chemical_formula_structural       H12Li4O12Sn2
_chemical_formula_sum              "H12 Li4 O12 Sn2"
_cell_length_a       5.54039
_cell_length_b       5.16147
_cell_length_c       8.94451
_cell_angle_alpha    90
_cell_angle_beta     92.4637
_cell_angle_gamma    90

_space_group_name_H-M_alt    "P 1"
_space_group_IT_number       1

loop_
  _space_group_symop_operation_xyz
  'x, y, z'

loop_
  _atom_site_type_symbol
  _atom_site_label
  _atom_site_symmetry_multiplicity
  _atom_site_fract_x
  _atom_site_fract_y
  _atom_site_fract_z
  _atom_site_occupancy
  H   H1        1.0  0.43200  0.50600  0.00791  1.0000
  H   H2        1.0  0.15600  0.31600  0.09900  1.0000
  H   H3        1.0  0.86100  0.45300  0.23100  1.0000
  H   H4        1.0  0.63900  0.95300  0.26900  1.0000
  H   H5        1.0  0.34400  0.81600  0.40100  1.0000
  H   H6        1.0  0.06780  0.00588  0.49200  1.0000
  H   H7        1.0  0.93200  0.99400  0.50800  1.0000
  H   H8        1.0  0.65600  0.18400  0.59900  1.0000
  H   H9        1.0  0.36100  0.04730  0.73100  1.0000
  H   H10       1.0  0.13900  0.54700  0.76900  1.0000
  H   H11       1.0  0.84400  0.68400  0.90100  1.0000
  H   H12       1.0  0.56800  0.49400  0.99200  1.0000
  Li  Li1       1.0  0.06150  0.83300  0.19100  1.0000
  Li  Li2       1.0  0.43800  0.33300  0.30900  1.0000
  Li  Li3       1.0  0.56200  0.66700  0.69100  1.0000
  Li  Li4       1.0  0.93800  0.16700  0.80900  1.0000
  O   O1        1.0  0.06840  0.52200  0.07070  1.0000
  O   O2        1.0  0.26400  0.12300  0.14300  1.0000
  O   O3        1.0  0.72500  0.91100  0.17600  1.0000
  O   O4        1.0  0.77500  0.41100  0.32400  1.0000
  O   O5        1.0  0.23600  0.62300  0.35700  1.0000
  O   O6        1.0  0.43200  0.02170  0.42900  1.0000
  O   O7        1.0  0.56800  0.97800  0.57100  1.0000
  O   O8        1.0  0.76400  0.37700  0.64300  1.0000
  O   O9        1.0  0.22500  0.58900  0.67600  1.0000
  O   O10       1.0  0.27500  0.08930  0.82400  1.0000
  O   O11       1.0  0.73600  0.87700  0.85700  1.0000
  O   O12       1.0  0.93200  0.47800  0.92900  1.0000
  Sn  Sn1       1.0  0.50000  0.00000  0.00000  1.0000
  Sn  Sn2       1.0  0.00000  0.50000  0.50000  1.0000
