data_image0
_chemical_formula_structural       Cl10P8S10Ta2
_chemical_formula_sum              "Cl10 P8 S10 Ta2"
_cell_length_a       6.58548
_cell_length_b       10.2765
_cell_length_c       12.9984
_cell_angle_alpha    97.7806
_cell_angle_beta     103.737
_cell_angle_gamma    106.371

_space_group_name_H-M_alt    "P 1"
_space_group_IT_number       1

loop_
  _space_group_symop_operation_xyz
  'x, y, z'

loop_
  _atom_site_type_symbol
  _atom_site_label
  _atom_site_symmetry_multiplicity
  _atom_site_fract_x
  _atom_site_fract_y
  _atom_site_fract_z
  _atom_site_occupancy
  Cl  Cl1       1.0  0.51300  0.76300  0.00756  1.0000
  Cl  Cl2       1.0  0.01860  0.15900  0.07270  1.0000
  Cl  Cl3       1.0  0.38900  0.48700  0.14500  1.0000
  Cl  Cl4       1.0  0.47600  0.06180  0.18600  1.0000
  Cl  Cl5       1.0  0.35000  0.29900  0.33100  1.0000
  Cl  Cl6       1.0  0.65000  0.70100  0.66900  1.0000
  Cl  Cl7       1.0  0.52400  0.93800  0.81400  1.0000
  Cl  Cl8       1.0  0.61100  0.51300  0.85500  1.0000
  Cl  Cl9       1.0  0.98100  0.84100  0.92700  1.0000
  Cl  Cl10      1.0  0.48700  0.23700  0.99200  1.0000
  P   P1        1.0  0.96500  0.88500  0.25500  1.0000
  P   P2        1.0  0.92500  0.57600  0.31000  1.0000
  P   P3        1.0  0.76500  0.68900  0.41000  1.0000
  P   P4        1.0  0.87300  0.19000  0.49500  1.0000
  P   P5        1.0  0.12700  0.81000  0.50500  1.0000
  P   P6        1.0  0.23500  0.31100  0.59000  1.0000
  P   P7        1.0  0.07460  0.42400  0.69000  1.0000
  P   P8        1.0  0.03490  0.11500  0.74500  1.0000
  S   S1        1.0  0.98300  0.68700  0.18900  1.0000
  S   S2        1.0  0.82800  0.37100  0.25200  1.0000
  S   S3        1.0  0.68000  0.82000  0.31300  1.0000
  S   S4        1.0  0.21100  0.95800  0.40900  1.0000
  S   S5        1.0  0.20800  0.63000  0.44300  1.0000
  S   S6        1.0  0.79200  0.37000  0.55700  1.0000
  S   S7        1.0  0.78900  0.04210  0.59100  1.0000
  S   S8        1.0  0.32000  0.18000  0.68700  1.0000
  S   S9        1.0  0.17200  0.62900  0.74800  1.0000
  S   S10       1.0  0.01700  0.31300  0.81100  1.0000
  Ta  Ta1       1.0  0.39000  0.26300  0.15400  1.0000
  Ta  Ta2       1.0  0.61000  0.73700  0.84600  1.0000
