data_image0
_chemical_formula_structural       O22P4W4
_chemical_formula_sum              "O22 P4 W4"
_cell_length_a       6.33309
_cell_length_b       7.63826
_cell_length_c       7.70923
_cell_angle_alpha    90.6999
_cell_angle_beta     90
_cell_angle_gamma    90

_space_group_name_H-M_alt    "P 1"
_space_group_IT_number       1

loop_
  _space_group_symop_operation_xyz
  'x, y, z'

loop_
  _atom_site_type_symbol
  _atom_site_label
  _atom_site_symmetry_multiplicity
  _atom_site_fract_x
  _atom_site_fract_y
  _atom_site_fract_z
  _atom_site_occupancy
  O   O1        1.0  0.50000  0.00000  0.00000  1.0000
  O   O2        1.0  0.50000  0.66400  0.06740  1.0000
  O   O3        1.0  0.19100  0.19200  0.14400  1.0000
  O   O4        1.0  0.80900  0.19200  0.14400  1.0000
  O   O5        1.0  0.00000  0.55400  0.15600  1.0000
  O   O6        1.0  0.00000  0.91300  0.21700  1.0000
  O   O7        1.0  0.50000  0.41700  0.28100  1.0000
  O   O8        1.0  0.50000  0.06160  0.34600  1.0000
  O   O9        1.0  0.30800  0.69600  0.35600  1.0000
  O   O10       1.0  0.69200  0.69600  0.35600  1.0000
  O   O11       1.0  0.00000  0.16300  0.43200  1.0000
  O   O12       1.0  0.00000  0.50000  0.50000  1.0000
  O   O13       1.0  0.00000  0.83700  0.56800  1.0000
  O   O14       1.0  0.30800  0.30400  0.64400  1.0000
  O   O15       1.0  0.69200  0.30400  0.64400  1.0000
  O   O16       1.0  0.50000  0.93800  0.65400  1.0000
  O   O17       1.0  0.50000  0.58300  0.71900  1.0000
  O   O18       1.0  0.00000  0.08740  0.78300  1.0000
  O   O19       1.0  0.00000  0.44600  0.84400  1.0000
  O   O20       1.0  0.19100  0.80800  0.85600  1.0000
  O   O21       1.0  0.80900  0.80800  0.85600  1.0000
  O   O22       1.0  0.50000  0.33600  0.93300  1.0000
  P   P1        1.0  0.00000  0.11500  0.24200  1.0000
  P   P2        1.0  0.50000  0.61900  0.25600  1.0000
  P   P3        1.0  0.50000  0.38100  0.74400  1.0000
  P   P4        1.0  0.00000  0.88500  0.75800  1.0000
  W   W1        1.0  0.50000  0.18500  0.16300  1.0000
  W   W2        1.0  0.00000  0.68400  0.33800  1.0000
  W   W3        1.0  0.00000  0.31600  0.66200  1.0000
  W   W4        1.0  0.50000  0.81500  0.83700  1.0000
