data_image0
_chemical_formula_structural       C8F12O8Ru2
_chemical_formula_sum              "C8 F12 O8 Ru2"
_cell_length_a       5.05345
_cell_length_b       7.94795
_cell_length_c       8.15565
_cell_angle_alpha    81.4685
_cell_angle_beta     83.2975
_cell_angle_gamma    84.5197

_space_group_name_H-M_alt    "P 1"
_space_group_IT_number       1

loop_
  _space_group_symop_operation_xyz
  'x, y, z'

loop_
  _atom_site_type_symbol
  _atom_site_label
  _atom_site_symmetry_multiplicity
  _atom_site_fract_x
  _atom_site_fract_y
  _atom_site_fract_z
  _atom_site_occupancy
  C   C1        1.0  0.96100  0.72000  0.07710  1.0000
  C   C2        1.0  0.77900  0.64000  0.22600  1.0000
  C   C3        1.0  0.57300  0.05550  0.29000  1.0000
  C   C4        1.0  0.55900  0.22400  0.36000  1.0000
  C   C5        1.0  0.44100  0.77600  0.64000  1.0000
  C   C6        1.0  0.42700  0.94400  0.71000  1.0000
  C   C7        1.0  0.22100  0.36000  0.77400  1.0000
  C   C8        1.0  0.03920  0.28000  0.92300  1.0000
  F   F1        1.0  0.16100  0.60600  0.02530  1.0000
  F   F2        1.0  0.17600  0.21700  0.05240  1.0000
  F   F3        1.0  0.66900  0.07500  0.12700  1.0000
  F   F4        1.0  0.07470  0.84600  0.13000  1.0000
  F   F5        1.0  0.32900  0.99800  0.30100  1.0000
  F   F6        1.0  0.73600  0.93500  0.37400  1.0000
  F   F7        1.0  0.26400  0.06480  0.62600  1.0000
  F   F8        1.0  0.67100  0.00178  0.69900  1.0000
  F   F9        1.0  0.92500  0.15400  0.87000  1.0000
  F   F10       1.0  0.33100  0.92500  0.87300  1.0000
  F   F11       1.0  0.82400  0.78300  0.94800  1.0000
  F   F12       1.0  0.83900  0.39400  0.97500  1.0000
  O   O1        1.0  0.53100  0.65300  0.22300  1.0000
  O   O2        1.0  0.35800  0.32500  0.32600  1.0000
  O   O3        1.0  0.90000  0.57400  0.35200  1.0000
  O   O4        1.0  0.74200  0.24400  0.44700  1.0000
  O   O5        1.0  0.25800  0.75600  0.55300  1.0000
  O   O6        1.0  0.09980  0.42600  0.64800  1.0000
  O   O7        1.0  0.64200  0.67500  0.67400  1.0000
  O   O8        1.0  0.46900  0.34700  0.77700  1.0000
  Ru  Ru1       1.0  0.31300  0.54200  0.43500  1.0000
  Ru  Ru2       1.0  0.68700  0.45800  0.56500  1.0000
