data_image0
_chemical_formula_structural       C8K2La2N16Si2
_chemical_formula_sum              "C8 K2 La2 N16 Si2"
_cell_length_a       7.33754
_cell_length_b       6.78813
_cell_length_c       9.64855
_cell_angle_alpha    90
_cell_angle_beta     90
_cell_angle_gamma    90

_space_group_name_H-M_alt    "P 1"
_space_group_IT_number       1

loop_
  _space_group_symop_operation_xyz
  'x, y, z'

loop_
  _atom_site_type_symbol
  _atom_site_label
  _atom_site_symmetry_multiplicity
  _atom_site_fract_x
  _atom_site_fract_y
  _atom_site_fract_z
  _atom_site_occupancy
  C   C1        1.0  0.71600  0.87500  0.20100  1.0000
  C   C2        1.0  0.32900  0.63300  0.23000  1.0000
  C   C3        1.0  0.82900  0.36700  0.27000  1.0000
  C   C4        1.0  0.21600  0.12500  0.29900  1.0000
  C   C5        1.0  0.78400  0.12500  0.70100  1.0000
  C   C6        1.0  0.17100  0.36700  0.73000  1.0000
  C   C7        1.0  0.67100  0.63300  0.77000  1.0000
  C   C8        1.0  0.28400  0.87500  0.79900  1.0000
  K   K1        1.0  0.00000  0.07450  0.00000  1.0000
  K   K2        1.0  0.50000  0.92600  0.50000  1.0000
  La  La1       1.0  0.50000  0.25900  0.00000  1.0000
  La  La2       1.0  0.00000  0.74100  0.50000  1.0000
  N   N1        1.0  0.64200  0.91400  0.08470  1.0000
  N   N2        1.0  0.39600  0.59100  0.11200  1.0000
  N   N3        1.0  0.76700  0.33300  0.15800  1.0000
  N   N4        1.0  0.28800  0.15300  0.19000  1.0000
  N   N5        1.0  0.78800  0.84700  0.31000  1.0000
  N   N6        1.0  0.26700  0.66700  0.34200  1.0000
  N   N7        1.0  0.89600  0.40900  0.38800  1.0000
  N   N8        1.0  0.14200  0.08630  0.41500  1.0000
  N   N9        1.0  0.85800  0.08630  0.58500  1.0000
  N   N10       1.0  0.10400  0.40900  0.61200  1.0000
  N   N11       1.0  0.73300  0.66700  0.65800  1.0000
  N   N12       1.0  0.21200  0.84700  0.69000  1.0000
  N   N13       1.0  0.71200  0.15300  0.81000  1.0000
  N   N14       1.0  0.23300  0.33300  0.84200  1.0000
  N   N15       1.0  0.60400  0.59100  0.88800  1.0000
  N   N16       1.0  0.35800  0.91400  0.91500  1.0000
  Si  Si1       1.0  0.50000  0.75200  0.00000  1.0000
  Si  Si2       1.0  0.00000  0.24800  0.50000  1.0000
