data_image0
_chemical_formula_structural       H12O12P4V2
_chemical_formula_sum              "H12 O12 P4 V2"
_cell_length_a       7.11218
_cell_length_b       7.11218
_cell_length_c       7.34638
_cell_angle_alpha    116.06
_cell_angle_beta     63.9401
_cell_angle_gamma    114.158

_space_group_name_H-M_alt    "P 1"
_space_group_IT_number       1

loop_
  _space_group_symop_operation_xyz
  'x, y, z'

loop_
  _atom_site_type_symbol
  _atom_site_label
  _atom_site_symmetry_multiplicity
  _atom_site_fract_x
  _atom_site_fract_y
  _atom_site_fract_z
  _atom_site_occupancy
  H   H1        1.0  0.29300  0.71600  0.11100  1.0000
  H   H2        1.0  0.92200  0.84900  0.11900  1.0000
  H   H3        1.0  0.81900  0.45800  0.14800  1.0000
  H   H4        1.0  0.45800  0.81900  0.35200  1.0000
  H   H5        1.0  0.84900  0.92200  0.38100  1.0000
  H   H6        1.0  0.71600  0.29300  0.38900  1.0000
  H   H7        1.0  0.28400  0.70700  0.61100  1.0000
  H   H8        1.0  0.15100  0.07750  0.61900  1.0000
  H   H9        1.0  0.54200  0.18100  0.64800  1.0000
  H   H10       1.0  0.18100  0.54200  0.85200  1.0000
  H   H11       1.0  0.07750  0.15100  0.88100  1.0000
  H   H12       1.0  0.70700  0.28400  0.88900  1.0000
  O   O1        1.0  0.65200  0.95600  0.05220  1.0000
  O   O2        1.0  0.08400  0.33000  0.13500  1.0000
  O   O3        1.0  0.45000  0.45000  0.25000  1.0000
  O   O4        1.0  0.95700  0.95700  0.25000  1.0000
  O   O5        1.0  0.33000  0.08400  0.36500  1.0000
  O   O6        1.0  0.95600  0.65200  0.44800  1.0000
  O   O7        1.0  0.04440  0.34800  0.55200  1.0000
  O   O8        1.0  0.67000  0.91600  0.63500  1.0000
  O   O9        1.0  0.04270  0.04270  0.75000  1.0000
  O   O10       1.0  0.55000  0.55000  0.75000  1.0000
  O   O11       1.0  0.91600  0.67000  0.86500  1.0000
  O   O12       1.0  0.34800  0.04440  0.94800  1.0000
  P   P1        1.0  0.43200  0.89300  0.21700  1.0000
  P   P2        1.0  0.89300  0.43200  0.28300  1.0000
  P   P3        1.0  0.10700  0.56800  0.71700  1.0000
  P   P4        1.0  0.56800  0.10700  0.78300  1.0000
  V   V1        1.0  0.23800  0.23800  0.25000  1.0000
  V   V2        1.0  0.76200  0.76200  0.75000  1.0000
