data_image0
_chemical_formula_structural       Mo6O20Rb4
_chemical_formula_sum              "Mo6 O20 Rb4"
_cell_length_a       7.98308
_cell_length_b       8.0348
_cell_length_c       9.12448
_cell_angle_alpha    97.4989
_cell_angle_beta     90
_cell_angle_gamma    119.787

_space_group_name_H-M_alt    "P 1"
_space_group_IT_number       1

loop_
  _space_group_symop_operation_xyz
  'x, y, z'

loop_
  _atom_site_type_symbol
  _atom_site_label
  _atom_site_symmetry_multiplicity
  _atom_site_fract_x
  _atom_site_fract_y
  _atom_site_fract_z
  _atom_site_occupancy
  Mo  Mo1       1.0  0.03620  0.22100  0.02250  1.0000
  Mo  Mo2       1.0  0.70400  0.00000  0.25000  1.0000
  Mo  Mo3       1.0  0.81500  0.77900  0.47700  1.0000
  Mo  Mo4       1.0  0.18500  0.22100  0.52300  1.0000
  Mo  Mo5       1.0  0.29600  0.00000  0.75000  1.0000
  Mo  Mo6       1.0  0.96400  0.77900  0.97700  1.0000
  O   O1        1.0  0.26900  0.41200  0.08200  1.0000
  O   O2        1.0  0.89100  0.95100  0.09340  1.0000
  O   O3        1.0  0.51500  0.89500  0.11200  1.0000
  O   O4        1.0  0.04930  0.71300  0.12100  1.0000
  O   O5        1.0  0.89100  0.24700  0.18400  1.0000
  O   O6        1.0  0.64400  0.75300  0.31600  1.0000
  O   O7        1.0  0.33600  0.28700  0.37900  1.0000
  O   O8        1.0  0.62000  0.10500  0.38800  1.0000
  O   O9        1.0  0.94100  0.04910  0.40700  1.0000
  O   O10       1.0  0.85700  0.58800  0.41800  1.0000
  O   O11       1.0  0.14300  0.41200  0.58200  1.0000
  O   O12       1.0  0.05950  0.95100  0.59300  1.0000
  O   O13       1.0  0.38000  0.89500  0.61200  1.0000
  O   O14       1.0  0.66400  0.71300  0.62100  1.0000
  O   O15       1.0  0.35600  0.24700  0.68400  1.0000
  O   O16       1.0  0.10900  0.75300  0.81600  1.0000
  O   O17       1.0  0.95100  0.28700  0.87900  1.0000
  O   O18       1.0  0.48500  0.10500  0.88800  1.0000
  O   O19       1.0  0.10900  0.04910  0.90700  1.0000
  O   O20       1.0  0.73100  0.58800  0.91800  1.0000
  Rb  Rb1       1.0  0.59500  0.36400  0.15700  1.0000
  Rb  Rb2       1.0  0.23200  0.63600  0.34300  1.0000
  Rb  Rb3       1.0  0.76800  0.36400  0.65700  1.0000
  Rb  Rb4       1.0  0.40500  0.63600  0.84300  1.0000
