data_image0
_chemical_formula_structural       Ba6Ir4Li2O18
_chemical_formula_sum              "Ba6 Ir4 Li2 O18"
_cell_length_a       5.77431
_cell_length_b       5.77427
_cell_length_c       14.1879
_cell_angle_alpha    90
_cell_angle_beta     90
_cell_angle_gamma    120

_space_group_name_H-M_alt    "P 1"
_space_group_IT_number       1

loop_
  _space_group_symop_operation_xyz
  'x, y, z'

loop_
  _atom_site_type_symbol
  _atom_site_label
  _atom_site_symmetry_multiplicity
  _atom_site_fract_x
  _atom_site_fract_y
  _atom_site_fract_z
  _atom_site_occupancy
  Ba  Ba1       1.0  0.66700  0.33300  0.08450  1.0000
  Ba  Ba2       1.0  0.00000  0.00000  0.25000  1.0000
  Ba  Ba3       1.0  0.66700  0.33300  0.41500  1.0000
  Ba  Ba4       1.0  0.33300  0.66700  0.58500  1.0000
  Ba  Ba5       1.0  0.00000  0.00000  0.75000  1.0000
  Ba  Ba6       1.0  0.33300  0.66700  0.91500  1.0000
  Ir  Ir1       1.0  0.33300  0.66700  0.15800  1.0000
  Ir  Ir2       1.0  0.33300  0.66700  0.34200  1.0000
  Ir  Ir3       1.0  0.66700  0.33300  0.65800  1.0000
  Ir  Ir4       1.0  0.66700  0.33300  0.84200  1.0000
  Li  Li1       1.0  0.00000  0.00000  0.00000  1.0000
  Li  Li2       1.0  0.00000  0.00000  0.50000  1.0000
  O   O1        1.0  0.17300  0.34700  0.08340  1.0000
  O   O2        1.0  0.65300  0.82700  0.08340  1.0000
  O   O3        1.0  0.17300  0.82700  0.08340  1.0000
  O   O4        1.0  0.01970  0.51000  0.25000  1.0000
  O   O5        1.0  0.49000  0.51000  0.25000  1.0000
  O   O6        1.0  0.49000  0.98000  0.25000  1.0000
  O   O7        1.0  0.17300  0.82700  0.41700  1.0000
  O   O8        1.0  0.65300  0.82700  0.41700  1.0000
  O   O9        1.0  0.17300  0.34700  0.41700  1.0000
  O   O10       1.0  0.34700  0.17300  0.58300  1.0000
  O   O11       1.0  0.82700  0.65300  0.58300  1.0000
  O   O12       1.0  0.82700  0.17300  0.58300  1.0000
  O   O13       1.0  0.51000  0.01970  0.75000  1.0000
  O   O14       1.0  0.51000  0.49000  0.75000  1.0000
  O   O15       1.0  0.98000  0.49000  0.75000  1.0000
  O   O16       1.0  0.34700  0.17300  0.91700  1.0000
  O   O17       1.0  0.82700  0.17300  0.91700  1.0000
  O   O18       1.0  0.82700  0.65300  0.91700  1.0000
