data_image0
_chemical_formula_structural       Bi8Eu4Se16
_chemical_formula_sum              "Bi8 Eu4 Se16"
_cell_length_a       12.3721
_cell_length_b       4.19871
_cell_length_c       15.1795
_cell_angle_alpha    90
_cell_angle_beta     90
_cell_angle_gamma    90

_space_group_name_H-M_alt    "P 1"
_space_group_IT_number       1

loop_
  _space_group_symop_operation_xyz
  'x, y, z'

loop_
  _atom_site_type_symbol
  _atom_site_label
  _atom_site_symmetry_multiplicity
  _atom_site_fract_x
  _atom_site_fract_y
  _atom_site_fract_z
  _atom_site_occupancy
  Bi  Bi1       1.0  0.56800  0.25000  0.10100  1.0000
  Bi  Bi2       1.0  0.91000  0.75000  0.10700  1.0000
  Bi  Bi3       1.0  0.41000  0.75000  0.39300  1.0000
  Bi  Bi4       1.0  0.06770  0.25000  0.39900  1.0000
  Bi  Bi5       1.0  0.93200  0.75000  0.60100  1.0000
  Bi  Bi6       1.0  0.59000  0.25000  0.60700  1.0000
  Bi  Bi7       1.0  0.09040  0.25000  0.89300  1.0000
  Bi  Bi8       1.0  0.43200  0.75000  0.89900  1.0000
  Eu  Eu1       1.0  0.24800  0.75000  0.15800  1.0000
  Eu  Eu2       1.0  0.74800  0.75000  0.34200  1.0000
  Eu  Eu3       1.0  0.25200  0.25000  0.65800  1.0000
  Eu  Eu4       1.0  0.75200  0.25000  0.84200  1.0000
  Se  Se1       1.0  0.34400  0.25000  0.02310  1.0000
  Se  Se2       1.0  0.07550  0.25000  0.08860  1.0000
  Se  Se3       1.0  0.77200  0.25000  0.19300  1.0000
  Se  Se4       1.0  0.49600  0.75000  0.21400  1.0000
  Se  Se5       1.0  0.99600  0.75000  0.28600  1.0000
  Se  Se6       1.0  0.27200  0.25000  0.30700  1.0000
  Se  Se7       1.0  0.57600  0.25000  0.41100  1.0000
  Se  Se8       1.0  0.84400  0.25000  0.47700  1.0000
  Se  Se9       1.0  0.15600  0.75000  0.52300  1.0000
  Se  Se10      1.0  0.42400  0.75000  0.58900  1.0000
  Se  Se11      1.0  0.72800  0.75000  0.69300  1.0000
  Se  Se12      1.0  0.00412  0.25000  0.71400  1.0000
  Se  Se13      1.0  0.50400  0.25000  0.78600  1.0000
  Se  Se14      1.0  0.22800  0.75000  0.80700  1.0000
  Se  Se15      1.0  0.92400  0.75000  0.91100  1.0000
  Se  Se16      1.0  0.65600  0.75000  0.97700  1.0000
