data_image0
_chemical_formula_structural       O22U2W6
_chemical_formula_sum              "O22 U2 W6"
_cell_length_a       14.0286
_cell_length_b       7.48778
_cell_length_c       3.88953
_cell_angle_alpha    90
_cell_angle_beta     90
_cell_angle_gamma    90

_space_group_name_H-M_alt    "P 1"
_space_group_IT_number       1

loop_
  _space_group_symop_operation_xyz
  'x, y, z'

loop_
  _atom_site_type_symbol
  _atom_site_label
  _atom_site_symmetry_multiplicity
  _atom_site_fract_x
  _atom_site_fract_y
  _atom_site_fract_z
  _atom_site_occupancy
  O   O1        1.0  0.25300  0.00000  0.00000  1.0000
  O   O2        1.0  0.47500  0.00000  0.00000  1.0000
  O   O3        1.0  0.80500  0.00000  0.00000  1.0000
  O   O4        1.0  0.63700  0.20100  0.00000  1.0000
  O   O5        1.0  0.09150  0.21100  0.00000  1.0000
  O   O6        1.0  0.90900  0.28900  0.00000  1.0000
  O   O7        1.0  0.36300  0.29900  0.00000  1.0000
  O   O8        1.0  0.19500  0.50000  0.00000  1.0000
  O   O9        1.0  0.52500  0.50000  0.00000  1.0000
  O   O10       1.0  0.74700  0.50000  0.00000  1.0000
  O   O11       1.0  0.36300  0.70100  0.00000  1.0000
  O   O12       1.0  0.90900  0.71100  0.00000  1.0000
  O   O13       1.0  0.09150  0.78900  0.00000  1.0000
  O   O14       1.0  0.63700  0.79900  0.00000  1.0000
  O   O15       1.0  0.95700  0.00000  0.50000  1.0000
  O   O16       1.0  0.76900  0.25000  0.50000  1.0000
  O   O17       1.0  0.50000  0.25000  0.50000  1.0000
  O   O18       1.0  0.23100  0.25000  0.50000  1.0000
  O   O19       1.0  0.04330  0.50000  0.50000  1.0000
  O   O20       1.0  0.23100  0.75000  0.50000  1.0000
  O   O21       1.0  0.50000  0.75000  0.50000  1.0000
  O   O22       1.0  0.76900  0.75000  0.50000  1.0000
  U   U1        1.0  0.98100  0.00000  0.00000  1.0000
  U   U2        1.0  0.01920  0.50000  0.00000  1.0000
  W   W1        1.0  0.23500  0.25000  0.00000  1.0000
  W   W2        1.0  0.50000  0.25000  0.00000  1.0000
  W   W3        1.0  0.76500  0.25000  0.00000  1.0000
  W   W4        1.0  0.76500  0.75000  0.00000  1.0000
  W   W5        1.0  0.50000  0.75000  0.00000  1.0000
  W   W6        1.0  0.23500  0.75000  0.00000  1.0000
