data_image0
_chemical_formula_structural       Ba6Fe2O18Ru4
_chemical_formula_sum              "Ba6 Fe2 O18 Ru4"
_cell_length_a       5.74614
_cell_length_b       5.74611
_cell_length_c       13.9922
_cell_angle_alpha    90
_cell_angle_beta     90
_cell_angle_gamma    120

_space_group_name_H-M_alt    "P 1"
_space_group_IT_number       1

loop_
  _space_group_symop_operation_xyz
  'x, y, z'

loop_
  _atom_site_type_symbol
  _atom_site_label
  _atom_site_symmetry_multiplicity
  _atom_site_fract_x
  _atom_site_fract_y
  _atom_site_fract_z
  _atom_site_occupancy
  Ba  Ba1       1.0  0.33300  0.66700  0.08860  1.0000
  Ba  Ba2       1.0  0.00000  0.00000  0.25000  1.0000
  Ba  Ba3       1.0  0.33300  0.66700  0.41100  1.0000
  Ba  Ba4       1.0  0.66700  0.33300  0.58900  1.0000
  Ba  Ba5       1.0  0.00000  0.00000  0.75000  1.0000
  Ba  Ba6       1.0  0.66700  0.33300  0.91100  1.0000
  Fe  Fe1       1.0  0.00000  0.00000  0.00000  1.0000
  Fe  Fe2       1.0  0.00000  0.00000  0.50000  1.0000
  O   O1        1.0  0.83200  0.66300  0.08180  1.0000
  O   O2        1.0  0.83200  0.16800  0.08180  1.0000
  O   O3        1.0  0.33700  0.16800  0.08180  1.0000
  O   O4        1.0  0.50700  0.01370  0.25000  1.0000
  O   O5        1.0  0.98600  0.49300  0.25000  1.0000
  O   O6        1.0  0.50700  0.49300  0.25000  1.0000
  O   O7        1.0  0.83200  0.16800  0.41800  1.0000
  O   O8        1.0  0.33700  0.16800  0.41800  1.0000
  O   O9        1.0  0.83200  0.66300  0.41800  1.0000
  O   O10       1.0  0.16800  0.33700  0.58200  1.0000
  O   O11       1.0  0.66300  0.83200  0.58200  1.0000
  O   O12       1.0  0.16800  0.83200  0.58200  1.0000
  O   O13       1.0  0.49300  0.50700  0.75000  1.0000
  O   O14       1.0  0.01370  0.50700  0.75000  1.0000
  O   O15       1.0  0.49300  0.98600  0.75000  1.0000
  O   O16       1.0  0.66300  0.83200  0.91800  1.0000
  O   O17       1.0  0.16800  0.83200  0.91800  1.0000
  O   O18       1.0  0.16800  0.33700  0.91800  1.0000
  Ru  Ru1       1.0  0.66700  0.33300  0.16100  1.0000
  Ru  Ru2       1.0  0.66700  0.33300  0.33900  1.0000
  Ru  Ru3       1.0  0.33300  0.66700  0.66100  1.0000
  Ru  Ru4       1.0  0.33300  0.66700  0.83900  1.0000
