data_image0
_chemical_formula_structural       Al4Bi4Ga4O18
_chemical_formula_sum              "Al4 Bi4 Ga4 O18"
_cell_length_a       7.80061
_cell_length_b       8.21346
_cell_length_c       5.76792
_cell_angle_alpha    90
_cell_angle_beta     90
_cell_angle_gamma    90

_space_group_name_H-M_alt    "P 1"
_space_group_IT_number       1

loop_
  _space_group_symop_operation_xyz
  'x, y, z'

loop_
  _atom_site_type_symbol
  _atom_site_label
  _atom_site_symmetry_multiplicity
  _atom_site_fract_x
  _atom_site_fract_y
  _atom_site_fract_z
  _atom_site_occupancy
  Al  Al1       1.0  0.50000  0.00000  0.25700  1.0000
  Al  Al2       1.0  0.00000  0.50000  0.25700  1.0000
  Al  Al3       1.0  0.50000  0.00000  0.74300  1.0000
  Al  Al4       1.0  0.00000  0.50000  0.74300  1.0000
  Bi  Bi1       1.0  0.16200  0.16400  0.00000  1.0000
  Bi  Bi2       1.0  0.66200  0.33600  0.00000  1.0000
  Bi  Bi3       1.0  0.33800  0.66400  0.00000  1.0000
  Bi  Bi4       1.0  0.83800  0.83600  0.00000  1.0000
  Ga  Ga1       1.0  0.84800  0.16700  0.50000  1.0000
  Ga  Ga2       1.0  0.34800  0.33300  0.50000  1.0000
  Ga  Ga3       1.0  0.65200  0.66700  0.50000  1.0000
  Ga  Ga4       1.0  0.15200  0.83300  0.50000  1.0000
  O   O1        1.0  0.64400  0.07060  0.00000  1.0000
  O   O2        1.0  0.14400  0.42900  0.00000  1.0000
  O   O3        1.0  0.85600  0.57100  0.00000  1.0000
  O   O4        1.0  0.35600  0.92900  0.00000  1.0000
  O   O5        1.0  0.37200  0.20000  0.24100  1.0000
  O   O6        1.0  0.87200  0.30000  0.24100  1.0000
  O   O7        1.0  0.12800  0.70000  0.24100  1.0000
  O   O8        1.0  0.62800  0.80000  0.24100  1.0000
  O   O9        1.0  0.00000  0.00000  0.50000  1.0000
  O   O10       1.0  0.62800  0.08990  0.50000  1.0000
  O   O11       1.0  0.12800  0.41000  0.50000  1.0000
  O   O12       1.0  0.50000  0.50000  0.50000  1.0000
  O   O13       1.0  0.87200  0.59000  0.50000  1.0000
  O   O14       1.0  0.37200  0.91000  0.50000  1.0000
  O   O15       1.0  0.37200  0.20000  0.75900  1.0000
  O   O16       1.0  0.87200  0.30000  0.75900  1.0000
  O   O17       1.0  0.12800  0.70000  0.75900  1.0000
  O   O18       1.0  0.62800  0.80000  0.75900  1.0000
