data_image0
_chemical_formula_structural       Ca2H4K4O18S4
_chemical_formula_sum              "Ca2 H4 K4 O18 S4"
_cell_length_a       6.18097
_cell_length_b       7.054
_cell_length_c       9.60577
_cell_angle_alpha    90
_cell_angle_beta     104.073
_cell_angle_gamma    90

_space_group_name_H-M_alt    "P 1"
_space_group_IT_number       1

loop_
  _space_group_symop_operation_xyz
  'x, y, z'

loop_
  _atom_site_type_symbol
  _atom_site_label
  _atom_site_symmetry_multiplicity
  _atom_site_fract_x
  _atom_site_fract_y
  _atom_site_fract_z
  _atom_site_occupancy
  Ca  Ca1       1.0  0.66600  0.75000  0.03000  1.0000
  Ca  Ca2       1.0  0.33400  0.25000  0.97000  1.0000
  H   H1        1.0  0.59400  0.13600  0.25300  1.0000
  H   H2        1.0  0.59400  0.36400  0.25300  1.0000
  H   H3        1.0  0.40600  0.63600  0.74700  1.0000
  H   H4        1.0  0.40600  0.86400  0.74700  1.0000
  K   K1        1.0  0.19600  0.00692  0.33900  1.0000
  K   K2        1.0  0.19600  0.49300  0.33900  1.0000
  K   K3        1.0  0.80400  0.50700  0.66100  1.0000
  K   K4        1.0  0.80400  0.99300  0.66100  1.0000
  O   O1        1.0  0.30800  0.58100  0.02100  1.0000
  O   O2        1.0  0.30800  0.91900  0.02100  1.0000
  O   O3        1.0  0.01940  0.25000  0.12100  1.0000
  O   O4        1.0  0.05600  0.75000  0.13600  1.0000
  O   O5        1.0  0.49700  0.25000  0.22800  1.0000
  O   O6        1.0  0.71700  0.58000  0.26900  1.0000
  O   O7        1.0  0.71700  0.92000  0.26900  1.0000
  O   O8        1.0  0.54700  0.75000  0.43900  1.0000
  O   O9        1.0  0.95000  0.75000  0.47200  1.0000
  O   O10       1.0  0.04990  0.25000  0.52800  1.0000
  O   O11       1.0  0.45300  0.25000  0.56100  1.0000
  O   O12       1.0  0.28300  0.08020  0.73100  1.0000
  O   O13       1.0  0.28300  0.42000  0.73100  1.0000
  O   O14       1.0  0.50300  0.75000  0.77200  1.0000
  O   O15       1.0  0.94400  0.25000  0.86400  1.0000
  O   O16       1.0  0.98100  0.75000  0.87900  1.0000
  O   O17       1.0  0.69200  0.08120  0.97900  1.0000
  O   O18       1.0  0.69200  0.41900  0.97900  1.0000
  S   S1        1.0  0.16100  0.75000  0.01150  1.0000
  S   S2        1.0  0.73100  0.75000  0.36400  1.0000
  S   S3        1.0  0.26900  0.25000  0.63600  1.0000
  S   S4        1.0  0.83900  0.25000  0.98900  1.0000
