data_image0
_chemical_formula_structural       H8NiO16P4Tl2
_chemical_formula_sum              "H8 Ni1 O16 P4 Tl2"
_cell_length_a       6.83679
_cell_length_b       7.1496
_cell_length_c       7.50421
_cell_angle_alpha    80.9797
_cell_angle_beta     71.1427
_cell_angle_gamma    85.7394

_space_group_name_H-M_alt    "P 1"
_space_group_IT_number       1

loop_
  _space_group_symop_operation_xyz
  'x, y, z'

loop_
  _atom_site_type_symbol
  _atom_site_label
  _atom_site_symmetry_multiplicity
  _atom_site_fract_x
  _atom_site_fract_y
  _atom_site_fract_z
  _atom_site_occupancy
  H   H1        1.0  0.74200  0.97200  0.03900  1.0000
  H   H2        1.0  0.38700  0.17100  0.19900  1.0000
  H   H3        1.0  0.38600  0.31300  0.34500  1.0000
  H   H4        1.0  0.91200  0.73100  0.43400  1.0000
  H   H5        1.0  0.08770  0.26900  0.56600  1.0000
  H   H6        1.0  0.61400  0.68700  0.65500  1.0000
  H   H7        1.0  0.61300  0.82900  0.80100  1.0000
  H   H8        1.0  0.25800  0.02830  0.96100  1.0000
  Ni  Ni1       1.0  0.50000  0.50000  0.00000  1.0000
  O   O1        1.0  0.68900  0.61100  0.11400  1.0000
  O   O2        1.0  0.26900  0.99600  0.14700  1.0000
  O   O3        1.0  0.23900  0.64000  0.15200  1.0000
  O   O4        1.0  0.75400  0.93200  0.17900  1.0000
  O   O5        1.0  0.45900  0.28100  0.21500  1.0000
  O   O6        1.0  0.41200  0.76900  0.36800  1.0000
  O   O7        1.0  0.73600  0.65000  0.43100  1.0000
  O   O8        1.0  0.04140  0.79800  0.44300  1.0000
  O   O9        1.0  0.95900  0.20200  0.55700  1.0000
  O   O10       1.0  0.26400  0.35000  0.56900  1.0000
  O   O11       1.0  0.58800  0.23100  0.63200  1.0000
  O   O12       1.0  0.54100  0.71900  0.78500  1.0000
  O   O13       1.0  0.24600  0.06840  0.82100  1.0000
  O   O14       1.0  0.76100  0.36000  0.84800  1.0000
  O   O15       1.0  0.73100  0.00359  0.85300  1.0000
  O   O16       1.0  0.31100  0.38900  0.88600  1.0000
  P   P1        1.0  0.23600  0.80000  0.26300  1.0000
  P   P2        1.0  0.65600  0.73400  0.26800  1.0000
  P   P3        1.0  0.34400  0.26600  0.73200  1.0000
  P   P4        1.0  0.76400  0.20000  0.73700  1.0000
  Tl  Tl1       1.0  0.90800  0.28500  0.20000  1.0000
  Tl  Tl2       1.0  0.09230  0.71500  0.80000  1.0000
