data_image0
_chemical_formula_structural       O11Tc4Yb4
_chemical_formula_sum              "O11 Tc4 Yb4"
_cell_length_a       5.30393
_cell_length_b       5.56399
_cell_length_c       7.49502
_cell_angle_alpha    90
_cell_angle_beta     90
_cell_angle_gamma    90.2162

_space_group_name_H-M_alt    "P 1"
_space_group_IT_number       1

loop_
  _space_group_symop_operation_xyz
  'x, y, z'

loop_
  _atom_site_type_symbol
  _atom_site_label
  _atom_site_symmetry_multiplicity
  _atom_site_fract_x
  _atom_site_fract_y
  _atom_site_fract_z
  _atom_site_occupancy
  O   O1        1.0  0.80100  0.79600  0.05360  1.0000
  O   O2        1.0  0.69800  0.29600  0.05740  1.0000
  O   O3        1.0  0.38200  0.96200  0.25000  1.0000
  O   O4        1.0  0.69800  0.29600  0.44300  1.0000
  O   O5        1.0  0.80100  0.79600  0.44600  1.0000
  O   O6        1.0  0.19600  0.20300  0.53900  1.0000
  O   O7        1.0  0.30600  0.69900  0.54100  1.0000
  O   O8        1.0  0.61500  0.04480  0.75000  1.0000
  O   O9        1.0  0.89600  0.53600  0.75000  1.0000
  O   O10       1.0  0.30600  0.69900  0.95900  1.0000
  O   O11       1.0  0.19600  0.20300  0.96100  1.0000
  Tc  Tc1       1.0  0.50100  0.00109  0.00216  1.0000
  Tc  Tc2       1.0  0.00122  0.50100  0.01620  1.0000
  Tc  Tc3       1.0  0.00122  0.50100  0.48400  1.0000
  Tc  Tc4       1.0  0.50100  0.00109  0.49800  1.0000
  Yb  Yb1       1.0  0.97800  0.05960  0.25000  1.0000
  Yb  Yb2       1.0  0.51400  0.56600  0.25000  1.0000
  Yb  Yb3       1.0  0.48600  0.43900  0.75000  1.0000
  Yb  Yb4       1.0  0.01760  0.93200  0.75000  1.0000
