data_image0
_chemical_formula_structural       Ba2Nb6O21Te2
_chemical_formula_sum              "Ba2 Nb6 O21 Te2"
_cell_length_a       5.70703
_cell_length_b       8.90437
_cell_length_c       9.6909
_cell_angle_alpha    96.4327
_cell_angle_beta     90
_cell_angle_gamma    108.691

_space_group_name_H-M_alt    "P 1"
_space_group_IT_number       1

loop_
  _space_group_symop_operation_xyz
  'x, y, z'

loop_
  _atom_site_type_symbol
  _atom_site_label
  _atom_site_symmetry_multiplicity
  _atom_site_fract_x
  _atom_site_fract_y
  _atom_site_fract_z
  _atom_site_occupancy
  Ba  Ba1       1.0  0.86000  0.72000  0.47400  1.0000
  Ba  Ba2       1.0  0.14000  0.28000  0.52600  1.0000
  Nb  Nb1       1.0  0.90100  0.80300  0.08380  1.0000
  Nb  Nb2       1.0  0.67700  0.35400  0.17200  1.0000
  Nb  Nb3       1.0  0.48100  0.96200  0.33800  1.0000
  Nb  Nb4       1.0  0.51900  0.03800  0.66200  1.0000
  Nb  Nb5       1.0  0.32300  0.64600  0.82800  1.0000
  Nb  Nb6       1.0  0.09860  0.19700  0.91600  1.0000
  O   O1        1.0  0.00000  0.00000  0.00000  1.0000
  O   O2        1.0  0.39300  0.29100  0.05510  1.0000
  O   O3        1.0  0.89800  0.29100  0.05510  1.0000
  O   O4        1.0  0.79100  0.58200  0.15100  1.0000
  O   O5        1.0  0.17600  0.86700  0.22100  1.0000
  O   O6        1.0  0.69100  0.86700  0.22100  1.0000
  O   O7        1.0  0.58300  0.16600  0.28300  1.0000
  O   O8        1.0  0.46000  0.43800  0.33400  1.0000
  O   O9        1.0  0.97800  0.43800  0.33400  1.0000
  O   O10       1.0  0.35800  0.71700  0.40200  1.0000
  O   O11       1.0  0.27200  0.00000  0.50000  1.0000
  O   O12       1.0  0.72800  0.00000  0.50000  1.0000
  O   O13       1.0  0.64200  0.28300  0.59800  1.0000
  O   O14       1.0  0.02160  0.56200  0.66600  1.0000
  O   O15       1.0  0.54000  0.56200  0.66600  1.0000
  O   O16       1.0  0.41700  0.83400  0.71700  1.0000
  O   O17       1.0  0.30900  0.13300  0.77900  1.0000
  O   O18       1.0  0.82400  0.13300  0.77900  1.0000
  O   O19       1.0  0.20900  0.41800  0.84900  1.0000
  O   O20       1.0  0.10200  0.70900  0.94500  1.0000
  O   O21       1.0  0.60700  0.70900  0.94500  1.0000
  Te  Te1       1.0  0.27600  0.55200  0.25100  1.0000
  Te  Te2       1.0  0.72400  0.44800  0.74900  1.0000
