data_image0
_chemical_formula_structural       H8NiO16P4Rb2
_chemical_formula_sum              "H8 Ni1 O16 P4 Rb2"
_cell_length_a       6.82103
_cell_length_b       7.13018
_cell_length_c       7.54892
_cell_angle_alpha    81.2504
_cell_angle_beta     70.3934
_cell_angle_gamma    85.6649

_space_group_name_H-M_alt    "P 1"
_space_group_IT_number       1

loop_
  _space_group_symop_operation_xyz
  'x, y, z'

loop_
  _atom_site_type_symbol
  _atom_site_label
  _atom_site_symmetry_multiplicity
  _atom_site_fract_x
  _atom_site_fract_y
  _atom_site_fract_z
  _atom_site_occupancy
  H   H1        1.0  0.24200  0.97400  0.03960  1.0000
  H   H2        1.0  0.88100  0.17400  0.20100  1.0000
  H   H3        1.0  0.88400  0.31500  0.34800  1.0000
  H   H4        1.0  0.40500  0.73000  0.43000  1.0000
  H   H5        1.0  0.59500  0.27000  0.57000  1.0000
  H   H6        1.0  0.11600  0.68500  0.65200  1.0000
  H   H7        1.0  0.11900  0.82600  0.79900  1.0000
  H   H8        1.0  0.75800  0.02640  0.96000  1.0000
  Ni  Ni1       1.0  0.00000  0.50000  0.00000  1.0000
  O   O1        1.0  0.18900  0.61700  0.10700  1.0000
  O   O2        1.0  0.76200  0.00000  0.14800  1.0000
  O   O3        1.0  0.73500  0.64300  0.14800  1.0000
  O   O4        1.0  0.25000  0.93500  0.18000  1.0000
  O   O5        1.0  0.95400  0.28300  0.21700  1.0000
  O   O6        1.0  0.90500  0.77000  0.36500  1.0000
  O   O7        1.0  0.22900  0.64900  0.42700  1.0000
  O   O8        1.0  0.53300  0.79700  0.44200  1.0000
  O   O9        1.0  0.46700  0.20300  0.55800  1.0000
  O   O10       1.0  0.77100  0.35100  0.57300  1.0000
  O   O11       1.0  0.09460  0.23000  0.63500  1.0000
  O   O12       1.0  0.04610  0.71700  0.78300  1.0000
  O   O13       1.0  0.75000  0.06470  0.82000  1.0000
  O   O14       1.0  0.26500  0.35700  0.85200  1.0000
  O   O15       1.0  0.23800  0.00031  0.85200  1.0000
  O   O16       1.0  0.81100  0.38300  0.89300  1.0000
  P   P1        1.0  0.72900  0.80100  0.26200  1.0000
  P   P2        1.0  0.15200  0.73600  0.26500  1.0000
  P   P3        1.0  0.84800  0.26400  0.73500  1.0000
  P   P4        1.0  0.27100  0.19900  0.73800  1.0000
  Rb  Rb1       1.0  0.40800  0.28600  0.20700  1.0000
  Rb  Rb2       1.0  0.59200  0.71400  0.79300  1.0000
