data_image0
_chemical_formula_structural       C4FeH12N10S4
_chemical_formula_sum              "C4 Fe1 H12 N10 S4"
_cell_length_a       5.11114
_cell_length_b       7.90939
_cell_length_c       8.66766
_cell_angle_alpha    77.4146
_cell_angle_beta     84.2157
_cell_angle_gamma    88.984

_space_group_name_H-M_alt    "P 1"
_space_group_IT_number       1

loop_
  _space_group_symop_operation_xyz
  'x, y, z'

loop_
  _atom_site_type_symbol
  _atom_site_label
  _atom_site_symmetry_multiplicity
  _atom_site_fract_x
  _atom_site_fract_y
  _atom_site_fract_z
  _atom_site_occupancy
  C   C1        1.0  0.35700  0.17600  0.15800  1.0000
  C   C2        1.0  0.87700  0.63800  0.32300  1.0000
  C   C3        1.0  0.12300  0.36200  0.67700  1.0000
  C   C4        1.0  0.64300  0.82400  0.84200  1.0000
  Fe  Fe1       1.0  0.00000  0.50000  0.00000  1.0000
  H   H1        1.0  0.22500  0.79800  0.01450  1.0000
  H   H2        1.0  0.39500  0.63900  0.11900  1.0000
  H   H3        1.0  0.17300  0.81600  0.28600  1.0000
  H   H4        1.0  0.99700  0.23100  0.39400  1.0000
  H   H5        1.0  0.37100  0.37600  0.47200  1.0000
  H   H6        1.0  0.21300  0.08720  0.47800  1.0000
  H   H7        1.0  0.78700  0.91300  0.52200  1.0000
  H   H8        1.0  0.62900  0.62400  0.52800  1.0000
  H   H9        1.0  0.00297  0.76900  0.60600  1.0000
  H   H10       1.0  0.82700  0.18400  0.71400  1.0000
  H   H11       1.0  0.60500  0.36100  0.88100  1.0000
  H   H12       1.0  0.77500  0.20200  0.98600  1.0000
  N   N1        1.0  0.20700  0.68400  0.09920  1.0000
  N   N2        1.0  0.22600  0.29500  0.10300  1.0000
  N   N3        1.0  0.08900  0.72200  0.24100  1.0000
  N   N4        1.0  0.79000  0.68600  0.45800  1.0000
  N   N5        1.0  0.07880  0.18000  0.49800  1.0000
  N   N6        1.0  0.92100  0.82000  0.50200  1.0000
  N   N7        1.0  0.21000  0.31400  0.54200  1.0000
  N   N8        1.0  0.91100  0.27800  0.75900  1.0000
  N   N9        1.0  0.77400  0.70500  0.89700  1.0000
  N   N10       1.0  0.79300  0.31600  0.90100  1.0000
  S   S1        1.0  0.54500  0.01780  0.23000  1.0000
  S   S2        1.0  0.72100  0.47700  0.26300  1.0000
  S   S3        1.0  0.27900  0.52300  0.73700  1.0000
  S   S4        1.0  0.45500  0.98200  0.77000  1.0000
