data_image0
_chemical_formula_structural       Al4Cl16N4S8
_chemical_formula_sum              "Al4 Cl16 N4 S8"
_cell_length_a       11.1469
_cell_length_b       7.37405
_cell_length_c       10.8483
_cell_angle_alpha    90
_cell_angle_beta     90
_cell_angle_gamma    90

_space_group_name_H-M_alt    "P 1"
_space_group_IT_number       1

loop_
  _space_group_symop_operation_xyz
  'x, y, z'

loop_
  _atom_site_type_symbol
  _atom_site_label
  _atom_site_symmetry_multiplicity
  _atom_site_fract_x
  _atom_site_fract_y
  _atom_site_fract_z
  _atom_site_occupancy
  Al  Al1       1.0  0.60700  0.25000  0.20100  1.0000
  Al  Al2       1.0  0.10700  0.25000  0.29900  1.0000
  Al  Al3       1.0  0.89300  0.75000  0.70100  1.0000
  Al  Al4       1.0  0.39300  0.75000  0.79900  1.0000
  Cl  Cl1       1.0  0.45200  0.25000  0.08000  1.0000
  Cl  Cl2       1.0  0.76700  0.25000  0.08870  1.0000
  Cl  Cl3       1.0  0.10800  0.01450  0.18200  1.0000
  Cl  Cl4       1.0  0.10800  0.48600  0.18200  1.0000
  Cl  Cl5       1.0  0.60800  0.01450  0.31800  1.0000
  Cl  Cl6       1.0  0.60800  0.48600  0.31800  1.0000
  Cl  Cl7       1.0  0.26700  0.25000  0.41100  1.0000
  Cl  Cl8       1.0  0.95200  0.25000  0.42000  1.0000
  Cl  Cl9       1.0  0.04750  0.75000  0.58000  1.0000
  Cl  Cl10      1.0  0.73300  0.75000  0.58900  1.0000
  Cl  Cl11      1.0  0.39200  0.51400  0.68200  1.0000
  Cl  Cl12      1.0  0.39200  0.98600  0.68200  1.0000
  Cl  Cl13      1.0  0.89200  0.51400  0.81800  1.0000
  Cl  Cl14      1.0  0.89200  0.98600  0.81800  1.0000
  Cl  Cl15      1.0  0.23300  0.75000  0.91100  1.0000
  Cl  Cl16      1.0  0.54800  0.75000  0.92000  1.0000
  N   N1        1.0  0.85300  0.75000  0.20300  1.0000
  N   N2        1.0  0.35300  0.75000  0.29700  1.0000
  N   N3        1.0  0.64700  0.25000  0.70300  1.0000
  N   N4        1.0  0.14700  0.25000  0.79700  1.0000
  S   S1        1.0  0.83600  0.75000  0.06600  1.0000
  S   S2        1.0  0.37300  0.75000  0.16000  1.0000
  S   S3        1.0  0.87300  0.75000  0.34000  1.0000
  S   S4        1.0  0.33600  0.75000  0.43400  1.0000
  S   S5        1.0  0.66400  0.25000  0.56600  1.0000
  S   S6        1.0  0.12700  0.25000  0.66000  1.0000
  S   S7        1.0  0.62700  0.25000  0.84000  1.0000
  S   S8        1.0  0.16400  0.25000  0.93400  1.0000
