data_image0
_chemical_formula_structural       Na4O11Pu4
_chemical_formula_sum              "Na4 O11 Pu4"
_cell_length_a       5.76039
_cell_length_b       5.86485
_cell_length_c       8.28401
_cell_angle_alpha    90
_cell_angle_beta     90
_cell_angle_gamma    90.7442

_space_group_name_H-M_alt    "P 1"
_space_group_IT_number       1

loop_
  _space_group_symop_operation_xyz
  'x, y, z'

loop_
  _atom_site_type_symbol
  _atom_site_label
  _atom_site_symmetry_multiplicity
  _atom_site_fract_x
  _atom_site_fract_y
  _atom_site_fract_z
  _atom_site_occupancy
  Na  Na1       1.0  0.98700  0.02830  0.25000  1.0000
  Na  Na2       1.0  0.54200  0.56100  0.25000  1.0000
  Na  Na3       1.0  0.48500  0.46000  0.75000  1.0000
  Na  Na4       1.0  0.00775  0.97700  0.75000  1.0000
  O   O1        1.0  0.80800  0.79000  0.06740  1.0000
  O   O2        1.0  0.69200  0.28700  0.07250  1.0000
  O   O3        1.0  0.38300  0.94400  0.25000  1.0000
  O   O4        1.0  0.69200  0.28700  0.42700  1.0000
  O   O5        1.0  0.80800  0.79000  0.43300  1.0000
  O   O6        1.0  0.18500  0.20200  0.54500  1.0000
  O   O7        1.0  0.32400  0.70100  0.55400  1.0000
  O   O8        1.0  0.60400  0.05900  0.75000  1.0000
  O   O9        1.0  0.87800  0.55700  0.75000  1.0000
  O   O10       1.0  0.32400  0.70100  0.94600  1.0000
  O   O11       1.0  0.18500  0.20200  0.95500  1.0000
  Pu  Pu1       1.0  0.50100  0.00011  0.00175  1.0000
  Pu  Pu2       1.0  0.50100  0.00011  0.49800  1.0000
  Pu  Pu3       1.0  0.99300  0.50400  0.51000  1.0000
  Pu  Pu4       1.0  0.99300  0.50400  0.99000  1.0000
