data_image0
_chemical_formula_structural       H8MnO16P4Tl2
_chemical_formula_sum              "H8 Mn1 O16 P4 Tl2"
_cell_length_a       6.84492
_cell_length_b       7.36713
_cell_length_c       7.68837
_cell_angle_alpha    79.952
_cell_angle_beta     71.8605
_cell_angle_gamma    85.3603

_space_group_name_H-M_alt    "P 1"
_space_group_IT_number       1

loop_
  _space_group_symop_operation_xyz
  'x, y, z'

loop_
  _atom_site_type_symbol
  _atom_site_label
  _atom_site_symmetry_multiplicity
  _atom_site_fract_x
  _atom_site_fract_y
  _atom_site_fract_z
  _atom_site_occupancy
  H   H1        1.0  0.74700  0.96400  0.03310  1.0000
  H   H2        1.0  0.38400  0.16600  0.21500  1.0000
  H   H3        1.0  0.37900  0.30100  0.36100  1.0000
  H   H4        1.0  0.92400  0.73400  0.43000  1.0000
  H   H5        1.0  0.07610  0.26600  0.57000  1.0000
  H   H6        1.0  0.62100  0.69900  0.63900  1.0000
  H   H7        1.0  0.61600  0.83400  0.78500  1.0000
  H   H8        1.0  0.25300  0.03580  0.96700  1.0000
  Mn  Mn1       1.0  0.50000  0.50000  0.00000  1.0000
  O   O1        1.0  0.70200  0.61000  0.11700  1.0000
  O   O2        1.0  0.23900  0.66000  0.14700  1.0000
  O   O3        1.0  0.26900  0.00274  0.15200  1.0000
  O   O4        1.0  0.76200  0.92800  0.16800  1.0000
  O   O5        1.0  0.45100  0.27400  0.23300  1.0000
  O   O6        1.0  0.42400  0.76800  0.35700  1.0000
  O   O7        1.0  0.74600  0.65800  0.42600  1.0000
  O   O8        1.0  0.05290  0.79900  0.43900  1.0000
  O   O9        1.0  0.94700  0.20100  0.56100  1.0000
  O   O10       1.0  0.25400  0.34200  0.57400  1.0000
  O   O11       1.0  0.57600  0.23200  0.64300  1.0000
  O   O12       1.0  0.54900  0.72600  0.76700  1.0000
  O   O13       1.0  0.23800  0.07250  0.83200  1.0000
  O   O14       1.0  0.73100  0.99700  0.84800  1.0000
  O   O15       1.0  0.76100  0.34000  0.85300  1.0000
  O   O16       1.0  0.29800  0.39000  0.88300  1.0000
  P   P1        1.0  0.24100  0.80700  0.26000  1.0000
  P   P2        1.0  0.66800  0.73400  0.26300  1.0000
  P   P3        1.0  0.33200  0.26600  0.73700  1.0000
  P   P4        1.0  0.75900  0.19300  0.74000  1.0000
  Tl  Tl1       1.0  0.90100  0.27500  0.20500  1.0000
  Tl  Tl2       1.0  0.09930  0.72500  0.79500  1.0000
