data_image0
_chemical_formula_structural       F24Sb4Xe2
_chemical_formula_sum              "F24 Sb4 Xe2"
_cell_length_a       6.7676
_cell_length_b       8.57767
_cell_length_c       7.36228
_cell_angle_alpha    90.0341
_cell_angle_beta     111.724
_cell_angle_gamma    89.9927

_space_group_name_H-M_alt    "P 1"
_space_group_IT_number       1

loop_
  _space_group_symop_operation_xyz
  'x, y, z'

loop_
  _atom_site_type_symbol
  _atom_site_label
  _atom_site_symmetry_multiplicity
  _atom_site_fract_x
  _atom_site_fract_y
  _atom_site_fract_z
  _atom_site_occupancy
  F   F1        1.0  0.88900  0.82100  0.06170  1.0000
  F   F2        1.0  0.52600  0.07850  0.08540  1.0000
  F   F3        1.0  0.79600  0.30800  0.09640  1.0000
  F   F4        1.0  0.16100  0.05340  0.12500  1.0000
  F   F5        1.0  0.23400  0.60900  0.14900  1.0000
  F   F6        1.0  0.50000  0.37800  0.21100  1.0000
  F   F7        1.0  0.91600  0.57000  0.27100  1.0000
  F   F8        1.0  0.18500  0.34300  0.32700  1.0000
  F   F9        1.0  0.43200  0.85500  0.32800  1.0000
  F   F10       1.0  0.90900  0.06280  0.34400  1.0000
  F   F11       1.0  0.55700  0.11300  0.46000  1.0000
  F   F12       1.0  0.13200  0.83100  0.49600  1.0000
  F   F13       1.0  0.86800  0.33100  0.50400  1.0000
  F   F14       1.0  0.44300  0.61300  0.54000  1.0000
  F   F15       1.0  0.09100  0.56300  0.65600  1.0000
  F   F16       1.0  0.56700  0.35500  0.67200  1.0000
  F   F17       1.0  0.81500  0.84300  0.67300  1.0000
  F   F18       1.0  0.08410  0.06990  0.72900  1.0000
  F   F19       1.0  0.50000  0.87800  0.78900  1.0000
  F   F20       1.0  0.76600  0.10900  0.85100  1.0000
  F   F21       1.0  0.83900  0.55300  0.87500  1.0000
  F   F22       1.0  0.20500  0.80800  0.90400  1.0000
  F   F23       1.0  0.47400  0.57900  0.91500  1.0000
  F   F24       1.0  0.11100  0.32100  0.93800  1.0000
  Sb  Sb1       1.0  0.02710  0.45500  0.09840  1.0000
  Sb  Sb2       1.0  0.68400  0.20600  0.30100  1.0000
  Sb  Sb3       1.0  0.31600  0.70600  0.69900  1.0000
  Sb  Sb4       1.0  0.97300  0.95400  0.90200  1.0000
  Xe  Xe1       1.0  0.66000  0.72900  0.29600  1.0000
  Xe  Xe2       1.0  0.34000  0.22800  0.70400  1.0000
