data_image0
_chemical_formula_structural       K2O19Si8Zn2
_chemical_formula_sum              "K2 O19 Si8 Zn2"
_cell_length_a       5.04854
_cell_length_b       7.30271
_cell_length_c       12.4516
_cell_angle_alpha    106.308
_cell_angle_beta     90
_cell_angle_gamma    110.222

_space_group_name_H-M_alt    "P 1"
_space_group_IT_number       1

loop_
  _space_group_symop_operation_xyz
  'x, y, z'

loop_
  _atom_site_type_symbol
  _atom_site_label
  _atom_site_symmetry_multiplicity
  _atom_site_fract_x
  _atom_site_fract_y
  _atom_site_fract_z
  _atom_site_occupancy
  K   K1        1.0  0.35000  0.75200  0.35200  1.0000
  K   K2        1.0  0.59800  0.24800  0.64800  1.0000
  O   O1        1.0  0.82700  0.36000  0.06330  1.0000
  O   O2        1.0  0.82700  0.93900  0.10200  1.0000
  O   O3        1.0  0.27300  0.83100  0.11500  1.0000
  O   O4        1.0  0.52400  0.59200  0.14100  1.0000
  O   O5        1.0  0.33600  0.22000  0.14800  1.0000
  O   O6        1.0  0.80000  0.50000  0.28500  1.0000
  O   O7        1.0  0.11700  0.01860  0.29700  1.0000
  O   O8        1.0  0.75400  0.15600  0.42700  1.0000
  O   O9        1.0  0.32000  0.36700  0.46100  1.0000
  O   O10       1.0  0.10200  0.00000  0.50000  1.0000
  O   O11       1.0  0.95400  0.63300  0.53900  1.0000
  O   O12       1.0  0.59800  0.84400  0.57300  1.0000
  O   O13       1.0  0.09890  0.98100  0.70300  1.0000
  O   O14       1.0  0.30000  0.50000  0.71500  1.0000
  O   O15       1.0  0.11600  0.78000  0.85200  1.0000
  O   O16       1.0  0.93200  0.40800  0.85900  1.0000
  O   O17       1.0  0.44200  0.16900  0.88500  1.0000
  O   O18       1.0  0.88800  0.06070  0.89800  1.0000
  O   O19       1.0  0.46700  0.64000  0.93700  1.0000
  Si  Si1       1.0  0.52600  0.75000  0.07130  1.0000
  Si  Si2       1.0  0.63000  0.41600  0.16300  1.0000
  Si  Si3       1.0  0.14100  0.00671  0.16600  1.0000
  Si  Si4       1.0  0.06440  0.14300  0.42300  1.0000
  Si  Si5       1.0  0.92200  0.85700  0.57700  1.0000
  Si  Si6       1.0  0.13400  0.99300  0.83400  1.0000
  Si  Si7       1.0  0.21400  0.58400  0.83700  1.0000
  Si  Si8       1.0  0.77600  0.25000  0.92900  1.0000
  Zn  Zn1       1.0  0.70300  0.39700  0.41100  1.0000
  Zn  Zn2       1.0  0.30600  0.60300  0.58900  1.0000
