data_image0
_chemical_formula_structural       Ga6Li6N12Sr6
_chemical_formula_sum              "Ga6 Li6 N12 Sr6"
_cell_length_a       5.92408
_cell_length_b       5.92408
_cell_length_c       12.6362
_cell_angle_alpha    90.6707
_cell_angle_beta     90.6707
_cell_angle_gamma    118.158

_space_group_name_H-M_alt    "P 1"
_space_group_IT_number       1

loop_
  _space_group_symop_operation_xyz
  'x, y, z'

loop_
  _atom_site_type_symbol
  _atom_site_label
  _atom_site_symmetry_multiplicity
  _atom_site_fract_x
  _atom_site_fract_y
  _atom_site_fract_z
  _atom_site_occupancy
  Ga  Ga1       1.0  0.81300  0.48800  0.18700  1.0000
  Ga  Ga2       1.0  0.48800  0.81300  0.18700  1.0000
  Ga  Ga3       1.0  0.61000  0.61000  0.41200  1.0000
  Ga  Ga4       1.0  0.39000  0.39000  0.58800  1.0000
  Ga  Ga5       1.0  0.51200  0.18700  0.81300  1.0000
  Ga  Ga6       1.0  0.18700  0.51200  0.81300  1.0000
  Li  Li1       1.0  0.40200  0.40200  0.07880  1.0000
  Li  Li2       1.0  0.55000  0.18900  0.31900  1.0000
  Li  Li3       1.0  0.18900  0.55000  0.31900  1.0000
  Li  Li4       1.0  0.81100  0.45000  0.68100  1.0000
  Li  Li5       1.0  0.45000  0.81100  0.68100  1.0000
  Li  Li6       1.0  0.59800  0.59800  0.92100  1.0000
  N   N1        1.0  0.74800  0.74800  0.10700  1.0000
  N   N2        1.0  0.50100  0.14700  0.14900  1.0000
  N   N3        1.0  0.14700  0.50100  0.14900  1.0000
  N   N4        1.0  0.86400  0.54500  0.34300  1.0000
  N   N5        1.0  0.54500  0.86400  0.34300  1.0000
  N   N6        1.0  0.28000  0.28000  0.43200  1.0000
  N   N7        1.0  0.72000  0.72000  0.56800  1.0000
  N   N8        1.0  0.45500  0.13600  0.65700  1.0000
  N   N9        1.0  0.13600  0.45500  0.65700  1.0000
  N   N10       1.0  0.85300  0.49900  0.85100  1.0000
  N   N11       1.0  0.49900  0.85300  0.85100  1.0000
  N   N12       1.0  0.25200  0.25200  0.89300  1.0000
  Sr  Sr1       1.0  0.83300  0.16700  0.00000  1.0000
  Sr  Sr2       1.0  0.16700  0.83300  0.00000  1.0000
  Sr  Sr3       1.0  0.05300  0.05300  0.25500  1.0000
  Sr  Sr4       1.0  0.82000  0.18000  0.50000  1.0000
  Sr  Sr5       1.0  0.18000  0.82000  0.50000  1.0000
  Sr  Sr6       1.0  0.94700  0.94700  0.74500  1.0000
