data_image0
_chemical_formula_structural       Li4O18W4Zn4
_chemical_formula_sum              "Li4 O18 W4 Zn4"
_cell_length_a       5.13769
_cell_length_b       5.13767
_cell_length_c       14.0607
_cell_angle_alpha    90
_cell_angle_beta     90.0005
_cell_angle_gamma    120

_space_group_name_H-M_alt    "P 1"
_space_group_IT_number       1

loop_
  _space_group_symop_operation_xyz
  'x, y, z'

loop_
  _atom_site_type_symbol
  _atom_site_label
  _atom_site_symmetry_multiplicity
  _atom_site_fract_x
  _atom_site_fract_y
  _atom_site_fract_z
  _atom_site_occupancy
  Li  Li1       1.0  0.33300  0.66700  0.01570  1.0000
  Li  Li2       1.0  0.66700  0.33300  0.48400  1.0000
  Li  Li3       1.0  0.33300  0.66700  0.51600  1.0000
  Li  Li4       1.0  0.66700  0.33300  0.98400  1.0000
  O   O1        1.0  0.97600  0.66800  0.08600  1.0000
  O   O2        1.0  0.33200  0.30800  0.08600  1.0000
  O   O3        1.0  0.69200  0.02400  0.08600  1.0000
  O   O4        1.0  0.28200  0.00000  0.25000  1.0000
  O   O5        1.0  0.00000  0.28200  0.25000  1.0000
  O   O6        1.0  0.71800  0.71800  0.25000  1.0000
  O   O7        1.0  0.30800  0.33200  0.41400  1.0000
  O   O8        1.0  0.02400  0.69200  0.41400  1.0000
  O   O9        1.0  0.66800  0.97600  0.41400  1.0000
  O   O10       1.0  0.97600  0.30800  0.58600  1.0000
  O   O11       1.0  0.33200  0.02400  0.58600  1.0000
  O   O12       1.0  0.69200  0.66800  0.58600  1.0000
  O   O13       1.0  0.28200  0.28200  0.75000  1.0000
  O   O14       1.0  0.00000  0.71800  0.75000  1.0000
  O   O15       1.0  0.71800  0.00000  0.75000  1.0000
  O   O16       1.0  0.30800  0.97600  0.91400  1.0000
  O   O17       1.0  0.66800  0.69200  0.91400  1.0000
  O   O18       1.0  0.02400  0.33200  0.91400  1.0000
  W   W1        1.0  0.00000  0.00000  0.13900  1.0000
  W   W2        1.0  0.00000  0.00000  0.36100  1.0000
  W   W3        1.0  0.00000  0.00000  0.63900  1.0000
  W   W4        1.0  0.00000  0.00000  0.86100  1.0000
  Zn  Zn1       1.0  0.66700  0.33300  0.19500  1.0000
  Zn  Zn2       1.0  0.33300  0.66700  0.30500  1.0000
  Zn  Zn3       1.0  0.66700  0.33300  0.69500  1.0000
  Zn  Zn4       1.0  0.33300  0.66700  0.80500  1.0000
