data_image0
_chemical_formula_structural       Ca2P6
_chemical_formula_sum              "Ca2 P6"
_cell_length_a       5.5969
_cell_length_b       5.60914
_cell_length_c       5.67335
_cell_angle_alpha    70.3604
_cell_angle_beta     79.6831
_cell_angle_gamma    74.6078

_space_group_name_H-M_alt    "P 1"
_space_group_IT_number       1

loop_
  _space_group_symop_operation_xyz
  'x, y, z'

loop_
  _atom_site_type_symbol
  _atom_site_label
  _atom_site_symmetry_multiplicity
  _atom_site_fract_x
  _atom_site_fract_y
  _atom_site_fract_z
  _atom_site_occupancy
  Ca  Ca1       1.0  0.32400  0.35800  0.35300  1.0000
  Ca  Ca2       1.0  0.67600  0.64200  0.64700  1.0000
  P   P1        1.0  0.99700  0.79900  0.00076  1.0000
  P   P2        1.0  0.59900  0.79900  0.10200  1.0000
  P   P3        1.0  0.87200  0.17900  0.39600  1.0000
  P   P4        1.0  0.12800  0.82100  0.60400  1.0000
  P   P5        1.0  0.40100  0.20100  0.89800  1.0000
  P   P6        1.0  0.00330  0.20100  0.99900  1.0000
