data_image0
_chemical_formula_structural       Ca2H8O16P4
_chemical_formula_sum              "Ca2 H8 O16 P4"
_cell_length_a       7.45395
_cell_length_b       8.0987
_cell_length_c       5.49189
_cell_angle_alpha    109.411
_cell_angle_beta     93.5745
_cell_angle_gamma    109.136

_space_group_name_H-M_alt    "P 1"
_space_group_IT_number       1

loop_
  _space_group_symop_operation_xyz
  'x, y, z'

loop_
  _atom_site_type_symbol
  _atom_site_label
  _atom_site_symmetry_multiplicity
  _atom_site_fract_x
  _atom_site_fract_y
  _atom_site_fract_z
  _atom_site_occupancy
  Ca  Ca1       1.0  0.31100  0.41800  0.18500  1.0000
  Ca  Ca2       1.0  0.68900  0.58200  0.81500  1.0000
  H   H1        1.0  0.50000  0.00000  0.00000  1.0000
  H   H2        1.0  0.12400  0.77200  0.15500  1.0000
  H   H3        1.0  0.97600  0.00325  0.23300  1.0000
  H   H4        1.0  0.67800  0.06990  0.41000  1.0000
  H   H5        1.0  0.00000  0.50000  0.50000  1.0000
  H   H6        1.0  0.32200  0.93000  0.59000  1.0000
  H   H7        1.0  0.02370  0.99700  0.76700  1.0000
  H   H8        1.0  0.87600  0.22800  0.84500  1.0000
  O   O1        1.0  0.91900  0.32200  0.02900  1.0000
  O   O2        1.0  0.59800  0.36900  0.03700  1.0000
  O   O3        1.0  0.64300  0.10500  0.15900  1.0000
  O   O4        1.0  0.82100  0.81600  0.23400  1.0000
  O   O5        1.0  0.09830  0.12100  0.27100  1.0000
  O   O6        1.0  0.28800  0.95900  0.42800  1.0000
  O   O7        1.0  0.82800  0.44100  0.45900  1.0000
  O   O8        1.0  0.57300  0.68400  0.49400  1.0000
  O   O9        1.0  0.42700  0.31600  0.50600  1.0000
  O   O10       1.0  0.17200  0.55900  0.54100  1.0000
  O   O11       1.0  0.71200  0.04050  0.57200  1.0000
  O   O12       1.0  0.90200  0.87900  0.72900  1.0000
  O   O13       1.0  0.17900  0.18400  0.76600  1.0000
  O   O14       1.0  0.35700  0.89500  0.84100  1.0000
  O   O15       1.0  0.40200  0.63100  0.96300  1.0000
  O   O16       1.0  0.08080  0.67800  0.97100  1.0000
  P   P1        1.0  0.73600  0.30900  0.17000  1.0000
  P   P2        1.0  0.74500  0.84600  0.49000  1.0000
  P   P3        1.0  0.25500  0.15400  0.51000  1.0000
  P   P4        1.0  0.26400  0.69100  0.83000  1.0000
