data_image0
_chemical_formula_structural       BaBi6O20P4
_chemical_formula_sum              "Ba1 Bi6 O20 P4"
_cell_length_a       7.0129
_cell_length_b       7.62915
_cell_length_c       9.13798
_cell_angle_alpha    107.274
_cell_angle_beta     93.091
_cell_angle_gamma    111.774

_space_group_name_H-M_alt    "P 1"
_space_group_IT_number       1

loop_
  _space_group_symop_operation_xyz
  'x, y, z'

loop_
  _atom_site_type_symbol
  _atom_site_label
  _atom_site_symmetry_multiplicity
  _atom_site_fract_x
  _atom_site_fract_y
  _atom_site_fract_z
  _atom_site_occupancy
  Ba  Ba1       1.0  0.00000  0.50000  0.00000  1.0000
  Bi  Bi1       1.0  0.43800  0.28600  0.08530  1.0000
  Bi  Bi2       1.0  0.80700  0.80500  0.33300  1.0000
  Bi  Bi3       1.0  0.67400  0.37700  0.49700  1.0000
  Bi  Bi4       1.0  0.32600  0.62300  0.50300  1.0000
  Bi  Bi5       1.0  0.19300  0.19500  0.66700  1.0000
  Bi  Bi6       1.0  0.56200  0.71400  0.91500  1.0000
  O   O1        1.0  0.36000  0.84800  0.09000  1.0000
  O   O2        1.0  0.67400  0.59600  0.09920  1.0000
  O   O3        1.0  0.85700  0.99600  0.16400  1.0000
  O   O4        1.0  0.13800  0.33000  0.17200  1.0000
  O   O5        1.0  0.79200  0.32000  0.23900  1.0000
  O   O6        1.0  0.14000  0.77400  0.29300  1.0000
  O   O7        1.0  0.37700  0.13300  0.32600  1.0000
  O   O8        1.0  0.52600  0.88600  0.36000  1.0000
  O   O9        1.0  0.55800  0.53000  0.36500  1.0000
  O   O10       1.0  0.03500  0.28100  0.42400  1.0000
  O   O11       1.0  0.96500  0.71900  0.57600  1.0000
  O   O12       1.0  0.44200  0.47000  0.63500  1.0000
  O   O13       1.0  0.47400  0.11400  0.64000  1.0000
  O   O14       1.0  0.62300  0.86700  0.67400  1.0000
  O   O15       1.0  0.86000  0.22600  0.70700  1.0000
  O   O16       1.0  0.20800  0.68000  0.76100  1.0000
  O   O17       1.0  0.86200  0.67000  0.82800  1.0000
  O   O18       1.0  0.14300  0.00382  0.83600  1.0000
  O   O19       1.0  0.32600  0.40400  0.90100  1.0000
  O   O20       1.0  0.64000  0.15200  0.91000  1.0000
  P   P1        1.0  0.95400  0.22700  0.24700  1.0000
  P   P2        1.0  0.35200  0.91100  0.26600  1.0000
  P   P3        1.0  0.64800  0.08930  0.73400  1.0000
  P   P4        1.0  0.04570  0.77300  0.75300  1.0000
