data_image0
_chemical_formula_structural       Cl18K6Ti6
_chemical_formula_sum              "Cl18 K6 Ti6"
_cell_length_a       12.47
_cell_length_b       12.4699
_cell_length_c       5.57342
_cell_angle_alpha    89.9995
_cell_angle_beta     89.999
_cell_angle_gamma    119.946

_space_group_name_H-M_alt    "P 1"
_space_group_IT_number       1

loop_
  _space_group_symop_operation_xyz
  'x, y, z'

loop_
  _atom_site_type_symbol
  _atom_site_label
  _atom_site_symmetry_multiplicity
  _atom_site_fract_x
  _atom_site_fract_y
  _atom_site_fract_z
  _atom_site_occupancy
  Cl  Cl1       1.0  0.84300  0.47800  0.14200  1.0000
  Cl  Cl2       1.0  0.63600  0.15700  0.14200  1.0000
  Cl  Cl3       1.0  0.52200  0.36500  0.14200  1.0000
  Cl  Cl4       1.0  0.52000  0.82000  0.14400  1.0000
  Cl  Cl5       1.0  0.29900  0.48000  0.14400  1.0000
  Cl  Cl6       1.0  0.18000  0.70000  0.14400  1.0000
  Cl  Cl7       1.0  0.85400  0.04390  0.24400  1.0000
  Cl  Cl8       1.0  0.95600  0.81000  0.24400  1.0000
  Cl  Cl9       1.0  0.19000  0.14600  0.24400  1.0000
  Cl  Cl10      1.0  0.36300  0.84300  0.64300  1.0000
  Cl  Cl11      1.0  0.15700  0.52000  0.64300  1.0000
  Cl  Cl12      1.0  0.48000  0.63600  0.64300  1.0000
  Cl  Cl13      1.0  0.48000  0.18000  0.64400  1.0000
  Cl  Cl14      1.0  0.70100  0.52100  0.64400  1.0000
  Cl  Cl15      1.0  0.82000  0.29900  0.64400  1.0000
  Cl  Cl16      1.0  0.13900  0.95900  0.74400  1.0000
  Cl  Cl17      1.0  0.04110  0.18000  0.74400  1.0000
  Cl  Cl18      1.0  0.82100  0.86200  0.74400  1.0000
  K   K1        1.0  0.99900  0.33900  0.16600  1.0000
  K   K2        1.0  0.34000  0.00091  0.16700  1.0000
  K   K3        1.0  0.66100  0.66000  0.16700  1.0000
  K   K4        1.0  0.00208  0.66300  0.67400  1.0000
  K   K5        1.0  0.66100  0.99800  0.67500  1.0000
  K   K6        1.0  0.33700  0.33900  0.67500  1.0000
  Ti  Ti1       1.0  0.00000  0.00000  0.01750  1.0000
  Ti  Ti2       1.0  0.33300  0.66700  0.36900  1.0000
  Ti  Ti3       1.0  0.66700  0.33300  0.41800  1.0000
  Ti  Ti4       1.0  0.00000  0.00000  0.46900  1.0000
  Ti  Ti5       1.0  0.66700  0.33300  0.86800  1.0000
  Ti  Ti6       1.0  0.33300  0.66700  0.91700  1.0000
