data_image0
_chemical_formula_structural       As2Cl26P2Sb2
_chemical_formula_sum              "As2 Cl26 P2 Sb2"
_cell_length_a       9.47121
_cell_length_b       9.47121
_cell_length_c       11.6558
_cell_angle_alpha    90
_cell_angle_beta     90
_cell_angle_gamma    115.49

_space_group_name_H-M_alt    "P 1"
_space_group_IT_number       1

loop_
  _space_group_symop_operation_xyz
  'x, y, z'

loop_
  _atom_site_type_symbol
  _atom_site_label
  _atom_site_symmetry_multiplicity
  _atom_site_fract_x
  _atom_site_fract_y
  _atom_site_fract_z
  _atom_site_occupancy
  As  As1       1.0  0.55200  0.44800  0.15100  1.0000
  As  As2       1.0  0.44800  0.55200  0.65100  1.0000
  Cl  Cl1       1.0  0.91500  0.08470  0.12000  1.0000
  Cl  Cl2       1.0  0.56400  0.09880  0.12400  1.0000
  Cl  Cl3       1.0  0.90100  0.43600  0.12400  1.0000
  Cl  Cl4       1.0  0.29700  0.37000  0.12800  1.0000
  Cl  Cl5       1.0  0.63000  0.70300  0.12800  1.0000
  Cl  Cl6       1.0  0.13600  0.86400  0.13200  1.0000
  Cl  Cl7       1.0  0.55400  0.44600  0.34200  1.0000
  Cl  Cl8       1.0  0.31600  0.02160  0.38200  1.0000
  Cl  Cl9       1.0  0.97800  0.68400  0.38200  1.0000
  Cl  Cl10      1.0  0.33200  0.66800  0.38600  1.0000
  Cl  Cl11      1.0  0.07340  0.24200  0.40500  1.0000
  Cl  Cl12      1.0  0.75800  0.92700  0.40500  1.0000
  Cl  Cl13      1.0  0.74300  0.25700  0.41600  1.0000
  Cl  Cl14      1.0  0.08470  0.91500  0.62000  1.0000
  Cl  Cl15      1.0  0.09880  0.56400  0.62400  1.0000
  Cl  Cl16      1.0  0.43600  0.90100  0.62400  1.0000
  Cl  Cl17      1.0  0.37000  0.29700  0.62800  1.0000
  Cl  Cl18      1.0  0.70300  0.63000  0.62800  1.0000
  Cl  Cl19      1.0  0.86400  0.13600  0.63200  1.0000
  Cl  Cl20      1.0  0.44600  0.55400  0.84200  1.0000
  Cl  Cl21      1.0  0.02160  0.31600  0.88200  1.0000
  Cl  Cl22      1.0  0.68400  0.97800  0.88200  1.0000
  Cl  Cl23      1.0  0.66800  0.33200  0.88600  1.0000
  Cl  Cl24      1.0  0.24200  0.07340  0.90500  1.0000
  Cl  Cl25      1.0  0.92700  0.75800  0.90500  1.0000
  Cl  Cl26      1.0  0.25700  0.74300  0.91600  1.0000
  P   P1        1.0  0.86000  0.14000  0.46400  1.0000
  P   P2        1.0  0.14000  0.86000  0.96400  1.0000
  Sb  Sb1       1.0  0.79200  0.20800  0.00052  1.0000
  Sb  Sb2       1.0  0.20800  0.79200  0.50100  1.0000
