data_image0
_chemical_formula_structural       S16Zn15
_chemical_formula_sum              "S16 Zn15"
_cell_length_a       3.81729
_cell_length_b       3.81737
_cell_length_c       50.2254
_cell_angle_alpha    87.8251
_cell_angle_beta     92.1779
_cell_angle_gamma    119.999

_space_group_name_H-M_alt    "P 1"
_space_group_IT_number       1

loop_
  _space_group_symop_operation_xyz
  'x, y, z'

loop_
  _atom_site_type_symbol
  _atom_site_label
  _atom_site_symmetry_multiplicity
  _atom_site_fract_x
  _atom_site_fract_y
  _atom_site_fract_z
  _atom_site_occupancy
  S   S1        1.0  0.33900  0.66100  0.01580  1.0000
  S   S2        1.0  0.69300  0.30700  0.07820  1.0000
  S   S3        1.0  0.38000  0.62000  0.14100  1.0000
  S   S4        1.0  0.06770  0.93200  0.20300  1.0000
  S   S5        1.0  0.42200  0.57800  0.26600  1.0000
  S   S6        1.0  0.77600  0.22400  0.32800  1.0000
  S   S7        1.0  0.13000  0.87000  0.39000  1.0000
  S   S8        1.0  0.48500  0.51600  0.45400  1.0000
  S   S9        1.0  0.17200  0.82800  0.51600  1.0000
  S   S10       1.0  0.85900  0.14100  0.57800  1.0000
  S   S11       1.0  0.54700  0.45300  0.64100  1.0000
  S   S12       1.0  0.23400  0.76600  0.70300  1.0000
  S   S13       1.0  0.92200  0.07810  0.76600  1.0000
  S   S14       1.0  0.60900  0.39100  0.82800  1.0000
  S   S15       1.0  0.29700  0.70300  0.89100  1.0000
  S   S16       1.0  0.98400  0.01560  0.95300  1.0000
  Zn  Zn1       1.0  0.00000  0.00000  0.00000  1.0000
  Zn  Zn2       1.0  0.35400  0.64600  0.06240  1.0000
  Zn  Zn3       1.0  0.70800  0.29200  0.12500  1.0000
  Zn  Zn4       1.0  0.39600  0.60400  0.18700  1.0000
  Zn  Zn5       1.0  0.08330  0.91700  0.25000  1.0000
  Zn  Zn6       1.0  0.43800  0.56200  0.31300  1.0000
  Zn  Zn7       1.0  0.79200  0.20800  0.37600  1.0000
  Zn  Zn8       1.0  0.49900  0.50000  0.49900  1.0000
  Zn  Zn9       1.0  0.18700  0.81300  0.56200  1.0000
  Zn  Zn10      1.0  0.87500  0.12500  0.62500  1.0000
  Zn  Zn11      1.0  0.56200  0.43800  0.68700  1.0000
  Zn  Zn12      1.0  0.25000  0.75000  0.75000  1.0000
  Zn  Zn13      1.0  0.93700  0.06260  0.81200  1.0000
  Zn  Zn14      1.0  0.62500  0.37500  0.87500  1.0000
  Zn  Zn15      1.0  0.31200  0.68800  0.93700  1.0000
