data_image0
_chemical_formula_structural       B29Na2
_chemical_formula_sum              "B29 Na2"
_cell_length_a       5.80566
_cell_length_b       7.22717
_cell_length_c       7.22717
_cell_angle_alpha    91.035
_cell_angle_beta     113.677
_cell_angle_gamma    113.677

_space_group_name_H-M_alt    "P 1"
_space_group_IT_number       1

loop_
  _space_group_symop_operation_xyz
  'x, y, z'

loop_
  _atom_site_type_symbol
  _atom_site_label
  _atom_site_symmetry_multiplicity
  _atom_site_fract_x
  _atom_site_fract_y
  _atom_site_fract_z
  _atom_site_occupancy
  B   B1        1.0  0.16000  0.31600  0.01010  1.0000
  B   B2        1.0  0.60900  0.21200  0.01300  1.0000
  B   B3        1.0  0.67100  0.63900  0.03080  1.0000
  B   B4        1.0  0.99200  0.63900  0.03080  1.0000
  B   B5        1.0  0.95900  0.87800  0.04610  1.0000
  B   B6        1.0  0.83700  0.49500  0.18500  1.0000
  B   B7        1.0  0.28400  0.87000  0.21000  1.0000
  B   B8        1.0  0.78900  0.87000  0.21000  1.0000
  B   B9        1.0  0.60900  0.01300  0.21200  1.0000
  B   B10       1.0  0.36300  0.49400  0.23800  1.0000
  B   B11       1.0  0.75600  0.25900  0.25900  1.0000
  B   B12       1.0  0.70800  0.62800  0.29000  1.0000
  B   B13       1.0  0.20300  0.62800  0.29000  1.0000
  B   B14       1.0  0.16000  0.01010  0.31600  1.0000
  B   B15       1.0  0.03540  0.62300  0.45500  1.0000
  B   B16       1.0  0.32100  0.86000  0.46700  1.0000
  B   B17       1.0  0.99900  0.86000  0.46700  1.0000
  B   B18       1.0  0.36300  0.23800  0.49400  1.0000
  B   B19       1.0  0.83700  0.18500  0.49500  1.0000
  B   B20       1.0  0.03540  0.45500  0.62300  1.0000
  B   B21       1.0  0.20300  0.29000  0.62800  1.0000
  B   B22       1.0  0.70800  0.29000  0.62800  1.0000
  B   B23       1.0  0.67100  0.03080  0.63900  1.0000
  B   B24       1.0  0.99200  0.03080  0.63900  1.0000
  B   B25       1.0  0.32100  0.46700  0.86000  1.0000
  B   B26       1.0  0.99900  0.46700  0.86000  1.0000
  B   B27       1.0  0.78900  0.21000  0.87000  1.0000
  B   B28       1.0  0.28400  0.21000  0.87000  1.0000
  B   B29       1.0  0.95900  0.04610  0.87800  1.0000
  Na  Na1       1.0  0.64000  0.64300  0.64300  1.0000
  Na  Na2       1.0  0.33700  0.83900  0.83900  1.0000
