data_image0
_chemical_formula_structural       Ca2O20Si8Th
_chemical_formula_sum              "Ca2 O20 Si8 Th1"
_cell_length_a       7.47165
_cell_length_b       7.47165
_cell_length_c       9.15981
_cell_angle_alpha    114.07
_cell_angle_beta     114.07
_cell_angle_gamma    90

_space_group_name_H-M_alt    "P 1"
_space_group_IT_number       1

loop_
  _space_group_symop_operation_xyz
  'x, y, z'

loop_
  _atom_site_type_symbol
  _atom_site_label
  _atom_site_symmetry_multiplicity
  _atom_site_fract_x
  _atom_site_fract_y
  _atom_site_fract_z
  _atom_site_occupancy
  Ca  Ca1       1.0  0.50000  0.00000  0.00000  1.0000
  Ca  Ca2       1.0  0.00000  0.50000  0.00000  1.0000
  O   O1        1.0  0.33800  0.18200  0.16200  1.0000
  O   O2        1.0  0.97900  0.33800  0.16200  1.0000
  O   O3        1.0  0.18200  0.82300  0.16200  1.0000
  O   O4        1.0  0.82300  0.97900  0.16200  1.0000
  O   O5        1.0  0.67400  0.37700  0.24900  1.0000
  O   O6        1.0  0.37700  0.57500  0.24900  1.0000
  O   O7        1.0  0.87200  0.67400  0.24900  1.0000
  O   O8        1.0  0.57500  0.87200  0.24900  1.0000
  O   O9        1.0  0.95400  0.04590  0.50000  1.0000
  O   O10       1.0  0.54600  0.45400  0.50000  1.0000
  O   O11       1.0  0.04590  0.54600  0.50000  1.0000
  O   O12       1.0  0.45400  0.95400  0.50000  1.0000
  O   O13       1.0  0.32600  0.12800  0.75100  1.0000
  O   O14       1.0  0.62300  0.32600  0.75100  1.0000
  O   O15       1.0  0.12800  0.42500  0.75100  1.0000
  O   O16       1.0  0.42500  0.62300  0.75100  1.0000
  O   O17       1.0  0.66200  0.02050  0.83800  1.0000
  O   O18       1.0  0.02050  0.17700  0.83800  1.0000
  O   O19       1.0  0.81800  0.66200  0.83800  1.0000
  O   O20       1.0  0.17700  0.81800  0.83800  1.0000
  Si  Si1       1.0  0.47900  0.39800  0.29300  1.0000
  Si  Si2       1.0  0.89500  0.47900  0.29300  1.0000
  Si  Si3       1.0  0.39800  0.81400  0.29300  1.0000
  Si  Si4       1.0  0.81400  0.89500  0.29300  1.0000
  Si  Si5       1.0  0.52100  0.10500  0.70700  1.0000
  Si  Si6       1.0  0.10500  0.18600  0.70700  1.0000
  Si  Si7       1.0  0.60200  0.52100  0.70700  1.0000
  Si  Si8       1.0  0.18600  0.60200  0.70700  1.0000
  Th  Th1       1.0  0.00000  0.00000  0.00000  1.0000
