data_image0
_chemical_formula_structural       C10Cu6K4N10
_chemical_formula_sum              "C10 Cu6 K4 N10"
_cell_length_a       7.71045
_cell_length_b       7.87977
_cell_length_c       9.4642
_cell_angle_alpha    114.601
_cell_angle_beta     90.3755
_cell_angle_gamma    90

_space_group_name_H-M_alt    "P 1"
_space_group_IT_number       1

loop_
  _space_group_symop_operation_xyz
  'x, y, z'

loop_
  _atom_site_type_symbol
  _atom_site_label
  _atom_site_symmetry_multiplicity
  _atom_site_fract_x
  _atom_site_fract_y
  _atom_site_fract_z
  _atom_site_occupancy
  C   C1        1.0  0.75000  0.36000  0.00000  1.0000
  C   C2        1.0  0.25000  0.64000  0.00000  1.0000
  C   C3        1.0  0.04180  0.19600  0.24400  1.0000
  C   C4        1.0  0.54200  0.04720  0.24400  1.0000
  C   C5        1.0  0.75600  0.56200  0.43400  1.0000
  C   C6        1.0  0.25600  0.87200  0.43400  1.0000
  C   C7        1.0  0.24400  0.43800  0.56600  1.0000
  C   C8        1.0  0.74400  0.12800  0.56600  1.0000
  C   C9        1.0  0.95800  0.80400  0.75600  1.0000
  C   C10       1.0  0.45800  0.95300  0.75600  1.0000
  Cu  Cu1       1.0  0.75000  0.12400  0.00000  1.0000
  Cu  Cu2       1.0  0.25000  0.87600  0.00000  1.0000
  Cu  Cu3       1.0  0.39200  0.04590  0.39800  1.0000
  Cu  Cu4       1.0  0.89200  0.35200  0.39800  1.0000
  Cu  Cu5       1.0  0.10800  0.64800  0.60200  1.0000
  Cu  Cu6       1.0  0.60800  0.95400  0.60200  1.0000
  K   K1        1.0  0.89900  0.80900  0.23400  1.0000
  K   K2        1.0  0.39900  0.42600  0.23400  1.0000
  K   K3        1.0  0.10100  0.19100  0.76600  1.0000
  K   K4        1.0  0.60100  0.57400  0.76600  1.0000
  N   N1        1.0  0.25000  0.49000  0.00000  1.0000
  N   N2        1.0  0.75000  0.51000  0.00000  1.0000
  N   N3        1.0  0.13000  0.08480  0.14900  1.0000
  N   N4        1.0  0.63000  0.06440  0.14900  1.0000
  N   N5        1.0  0.16800  0.76700  0.46100  1.0000
  N   N6        1.0  0.66800  0.69400  0.46100  1.0000
  N   N7        1.0  0.83200  0.23300  0.53900  1.0000
  N   N8        1.0  0.33200  0.30600  0.53900  1.0000
  N   N9        1.0  0.87000  0.91500  0.85100  1.0000
  N   N10       1.0  0.37000  0.93600  0.85100  1.0000
