data_image0
_chemical_formula_structural       Ca4Na8O16Si4
_chemical_formula_sum              "Ca4 Na8 O16 Si4"
_cell_length_a       7.41554
_cell_length_b       7.41554
_cell_length_c       7.41554
_cell_angle_alpha    90
_cell_angle_beta     90
_cell_angle_gamma    90

_space_group_name_H-M_alt    "P 1"
_space_group_IT_number       1

loop_
  _space_group_symop_operation_xyz
  'x, y, z'

loop_
  _atom_site_type_symbol
  _atom_site_label
  _atom_site_symmetry_multiplicity
  _atom_site_fract_x
  _atom_site_fract_y
  _atom_site_fract_z
  _atom_site_occupancy
  Ca  Ca1       1.0  0.46200  0.53800  0.03800  1.0000
  Ca  Ca2       1.0  0.53800  0.03800  0.46200  1.0000
  Ca  Ca3       1.0  0.03800  0.46200  0.53800  1.0000
  Ca  Ca4       1.0  0.96200  0.96200  0.96200  1.0000
  Na  Na1       1.0  0.51200  0.98800  0.01190  1.0000
  Na  Na2       1.0  0.78200  0.28200  0.21800  1.0000
  Na  Na3       1.0  0.21800  0.78200  0.28200  1.0000
  Na  Na4       1.0  0.48800  0.48800  0.48800  1.0000
  Na  Na5       1.0  0.98800  0.01190  0.51200  1.0000
  Na  Na6       1.0  0.71800  0.71800  0.71800  1.0000
  Na  Na7       1.0  0.28200  0.21800  0.78200  1.0000
  Na  Na8       1.0  0.01190  0.51200  0.98800  1.0000
  O   O1        1.0  0.75900  0.70500  0.02590  1.0000
  O   O2        1.0  0.13400  0.13400  0.13400  1.0000
  O   O3        1.0  0.47400  0.24100  0.20500  1.0000
  O   O4        1.0  0.20500  0.47400  0.24100  1.0000
  O   O5        1.0  0.79500  0.97400  0.25900  1.0000
  O   O6        1.0  0.52600  0.74100  0.29500  1.0000
  O   O7        1.0  0.86600  0.63400  0.36600  1.0000
  O   O8        1.0  0.24100  0.20500  0.47400  1.0000
  O   O9        1.0  0.74100  0.29500  0.52600  1.0000
  O   O10       1.0  0.36600  0.86600  0.63400  1.0000
  O   O11       1.0  0.02590  0.75900  0.70500  1.0000
  O   O12       1.0  0.29500  0.52600  0.74100  1.0000
  O   O13       1.0  0.70500  0.02590  0.75900  1.0000
  O   O14       1.0  0.97400  0.25900  0.79500  1.0000
  O   O15       1.0  0.63400  0.36600  0.86600  1.0000
  O   O16       1.0  0.25900  0.79500  0.97400  1.0000
  Si  Si1       1.0  0.74100  0.75900  0.24100  1.0000
  Si  Si2       1.0  0.25900  0.25900  0.25900  1.0000
  Si  Si3       1.0  0.75900  0.24100  0.74100  1.0000
  Si  Si4       1.0  0.24100  0.74100  0.75900  1.0000
