data_image0
_chemical_formula_structural       Ce10Cs2I17Os2
_chemical_formula_sum              "Ce10 Cs2 I17 Os2"
_cell_length_a       10.1804
_cell_length_b       11.9051
_cell_length_c       11.9051
_cell_angle_alpha    107.977
_cell_angle_beta     93.3786
_cell_angle_gamma    93.3786

_space_group_name_H-M_alt    "P 1"
_space_group_IT_number       1

loop_
  _space_group_symop_operation_xyz
  'x, y, z'

loop_
  _atom_site_type_symbol
  _atom_site_label
  _atom_site_symmetry_multiplicity
  _atom_site_fract_x
  _atom_site_fract_y
  _atom_site_fract_z
  _atom_site_occupancy
  Ce  Ce1       1.0  0.44400  0.17100  0.17100  1.0000
  Ce  Ce2       1.0  0.57300  0.50800  0.20600  1.0000
  Ce  Ce3       1.0  0.81900  0.29300  0.29300  1.0000
  Ce  Ce4       1.0  0.31800  0.43700  0.43700  1.0000
  Ce  Ce5       1.0  0.42700  0.79400  0.49200  1.0000
  Ce  Ce6       1.0  0.57300  0.20600  0.50800  1.0000
  Ce  Ce7       1.0  0.68200  0.56300  0.56300  1.0000
  Ce  Ce8       1.0  0.18100  0.70700  0.70700  1.0000
  Ce  Ce9       1.0  0.42700  0.49200  0.79400  1.0000
  Ce  Ce10      1.0  0.55600  0.82900  0.82900  1.0000
  Cs  Cs1       1.0  0.00000  0.82600  0.17400  1.0000
  Cs  Cs2       1.0  0.00000  0.17400  0.82600  1.0000
  I   I1        1.0  0.57900  0.69000  0.02680  1.0000
  I   I2        1.0  0.71800  0.06370  0.06370  1.0000
  I   I3        1.0  0.86000  0.45000  0.11600  1.0000
  I   I4        1.0  0.13200  0.20900  0.20900  1.0000
  I   I5        1.0  0.27500  0.60000  0.25200  1.0000
  I   I6        1.0  0.42100  0.97300  0.31000  1.0000
  I   I7        1.0  0.72500  0.74800  0.40000  1.0000
  I   I8        1.0  0.86000  0.11600  0.45000  1.0000
  I   I9        1.0  0.00000  0.50000  0.50000  1.0000
  I   I10       1.0  0.14000  0.88400  0.55000  1.0000
  I   I11       1.0  0.27500  0.25200  0.60000  1.0000
  I   I12       1.0  0.57900  0.02680  0.69000  1.0000
  I   I13       1.0  0.72500  0.40000  0.74800  1.0000
  I   I14       1.0  0.86800  0.79100  0.79100  1.0000
  I   I15       1.0  0.14000  0.55000  0.88400  1.0000
  I   I16       1.0  0.28200  0.93600  0.93600  1.0000
  I   I17       1.0  0.42100  0.31000  0.97300  1.0000
  Os  Os1       1.0  0.57000  0.35900  0.35900  1.0000
  Os  Os2       1.0  0.43000  0.64100  0.64100  1.0000
