data_image0
_chemical_formula_structural       H12N10O8Pd
_chemical_formula_sum              "H12 N10 O8 Pd1"
_cell_length_a       6.55584
_cell_length_b       7.14775
_cell_length_c       7.00121
_cell_angle_alpha    97.315
_cell_angle_beta     114.333
_cell_angle_gamma    110.907

_space_group_name_H-M_alt    "P 1"
_space_group_IT_number       1

loop_
  _space_group_symop_operation_xyz
  'x, y, z'

loop_
  _atom_site_type_symbol
  _atom_site_label
  _atom_site_symmetry_multiplicity
  _atom_site_fract_x
  _atom_site_fract_y
  _atom_site_fract_z
  _atom_site_occupancy
  H   H1        1.0  0.77600  0.22400  0.04760  1.0000
  H   H2        1.0  0.76600  0.06870  0.20300  1.0000
  H   H3        1.0  0.16000  0.77300  0.22500  1.0000
  H   H4        1.0  0.91200  0.76500  0.23800  1.0000
  H   H5        1.0  0.02720  0.28900  0.29000  1.0000
  H   H6        1.0  0.19200  0.97100  0.40200  1.0000
  H   H7        1.0  0.80800  0.02880  0.59800  1.0000
  H   H8        1.0  0.97300  0.71100  0.71000  1.0000
  H   H9        1.0  0.08780  0.23500  0.76200  1.0000
  H   H10       1.0  0.84000  0.22700  0.77500  1.0000
  H   H11       1.0  0.23400  0.93100  0.79700  1.0000
  H   H12       1.0  0.22400  0.77600  0.95200  1.0000
  N   N1        1.0  0.87900  0.16500  0.15300  1.0000
  N   N2        1.0  0.07470  0.86300  0.24400  1.0000
  N   N3        1.0  0.49200  0.67200  0.25600  1.0000
  N   N4        1.0  0.61900  0.41100  0.31500  1.0000
  N   N5        1.0  0.67500  0.62400  0.37800  1.0000
  N   N6        1.0  0.32500  0.37600  0.62200  1.0000
  N   N7        1.0  0.38100  0.58900  0.68500  1.0000
  N   N8        1.0  0.50800  0.32800  0.74400  1.0000
  N   N9        1.0  0.92500  0.13700  0.75600  1.0000
  N   N10       1.0  0.12100  0.83500  0.84700  1.0000
  O   O1        1.0  0.27000  0.54300  0.12000  1.0000
  O   O2        1.0  0.47300  0.28900  0.12300  1.0000
  O   O3        1.0  0.56300  0.87100  0.30000  1.0000
  O   O4        1.0  0.74600  0.36200  0.47100  1.0000
  O   O5        1.0  0.25400  0.63800  0.52900  1.0000
  O   O6        1.0  0.43700  0.12900  0.70000  1.0000
  O   O7        1.0  0.52700  0.71100  0.87700  1.0000
  O   O8        1.0  0.73000  0.45700  0.88000  1.0000
  Pd  Pd1       1.0  0.00000  0.00000  0.00000  1.0000
