data_image0
_chemical_formula_structural       Cl20Cs8Dy4
_chemical_formula_sum              "Cl20 Cs8 Dy4"
_cell_length_a       15.295
_cell_length_b       9.59735
_cell_length_c       7.50591
_cell_angle_alpha    90
_cell_angle_beta     90
_cell_angle_gamma    90

_space_group_name_H-M_alt    "P 1"
_space_group_IT_number       1

loop_
  _space_group_symop_operation_xyz
  'x, y, z'

loop_
  _atom_site_type_symbol
  _atom_site_label
  _atom_site_symmetry_multiplicity
  _atom_site_fract_x
  _atom_site_fract_y
  _atom_site_fract_z
  _atom_site_occupancy
  Cl  Cl1       1.0  0.00000  0.00000  0.00000  1.0000
  Cl  Cl2       1.0  0.50000  0.50000  0.00000  1.0000
  Cl  Cl3       1.0  0.62000  0.16400  0.00603  1.0000
  Cl  Cl4       1.0  0.88000  0.66400  0.00603  1.0000
  Cl  Cl5       1.0  0.20200  0.01640  0.25000  1.0000
  Cl  Cl6       1.0  0.90800  0.29000  0.25000  1.0000
  Cl  Cl7       1.0  0.29800  0.51600  0.25000  1.0000
  Cl  Cl8       1.0  0.59200  0.79000  0.25000  1.0000
  Cl  Cl9       1.0  0.62000  0.16400  0.49400  1.0000
  Cl  Cl10      1.0  0.88000  0.66400  0.49400  1.0000
  Cl  Cl11      1.0  0.00000  0.00000  0.50000  1.0000
  Cl  Cl12      1.0  0.50000  0.50000  0.50000  1.0000
  Cl  Cl13      1.0  0.12000  0.33600  0.50600  1.0000
  Cl  Cl14      1.0  0.38000  0.83600  0.50600  1.0000
  Cl  Cl15      1.0  0.40800  0.21000  0.75000  1.0000
  Cl  Cl16      1.0  0.70200  0.48400  0.75000  1.0000
  Cl  Cl17      1.0  0.09210  0.71000  0.75000  1.0000
  Cl  Cl18      1.0  0.79800  0.98400  0.75000  1.0000
  Cl  Cl19      1.0  0.12000  0.33600  0.99400  1.0000
  Cl  Cl20      1.0  0.38000  0.83600  0.99400  1.0000
  Cs  Cs1       1.0  0.41600  0.16600  0.25000  1.0000
  Cs  Cs2       1.0  0.71200  0.47500  0.25000  1.0000
  Cs  Cs3       1.0  0.08420  0.66600  0.25000  1.0000
  Cs  Cs4       1.0  0.78800  0.97500  0.25000  1.0000
  Cs  Cs5       1.0  0.21200  0.02510  0.75000  1.0000
  Cs  Cs6       1.0  0.91600  0.33400  0.75000  1.0000
  Cs  Cs7       1.0  0.28800  0.52500  0.75000  1.0000
  Cs  Cs8       1.0  0.58400  0.83400  0.75000  1.0000
  Dy  Dy1       1.0  0.06600  0.18000  0.25000  1.0000
  Dy  Dy2       1.0  0.43400  0.68000  0.25000  1.0000
  Dy  Dy3       1.0  0.56600  0.32000  0.75000  1.0000
  Dy  Dy4       1.0  0.93400  0.82000  0.75000  1.0000
