data_image0
_chemical_formula_structural       CuH8O16P4Rb2
_chemical_formula_sum              "Cu1 H8 O16 P4 Rb2"
_cell_length_a       6.78382
_cell_length_b       7.26768
_cell_length_c       7.65828
_cell_angle_alpha    82.872
_cell_angle_beta     71.5452
_cell_angle_gamma    84.7138

_space_group_name_H-M_alt    "P 1"
_space_group_IT_number       1

loop_
  _space_group_symop_operation_xyz
  'x, y, z'

loop_
  _atom_site_type_symbol
  _atom_site_label
  _atom_site_symmetry_multiplicity
  _atom_site_fract_x
  _atom_site_fract_y
  _atom_site_fract_z
  _atom_site_occupancy
  Cu  Cu1       1.0  0.00000  0.50000  0.00000  1.0000
  H   H1        1.0  0.25000  0.96500  0.02590  1.0000
  H   H2        1.0  0.88600  0.17500  0.22900  1.0000
  H   H3        1.0  0.87400  0.31200  0.37900  1.0000
  H   H4        1.0  0.42700  0.72900  0.41000  1.0000
  H   H5        1.0  0.57300  0.27100  0.59000  1.0000
  H   H6        1.0  0.12600  0.68800  0.62100  1.0000
  H   H7        1.0  0.11400  0.82500  0.77100  1.0000
  H   H8        1.0  0.75000  0.03550  0.97400  1.0000
  O   O1        1.0  0.19900  0.61600  0.08520  1.0000
  O   O2        1.0  0.75200  0.65900  0.12800  1.0000
  O   O3        1.0  0.76400  0.00548  0.15400  1.0000
  O   O4        1.0  0.26700  0.92500  0.16100  1.0000
  O   O5        1.0  0.95500  0.27900  0.25400  1.0000
  O   O6        1.0  0.92700  0.77200  0.34800  1.0000
  O   O7        1.0  0.25900  0.64500  0.39400  1.0000
  O   O8        1.0  0.55100  0.79600  0.42800  1.0000
  O   O9        1.0  0.44900  0.20400  0.57200  1.0000
  O   O10       1.0  0.74100  0.35500  0.60600  1.0000
  O   O11       1.0  0.07320  0.22800  0.65200  1.0000
  O   O12       1.0  0.04520  0.72100  0.74600  1.0000
  O   O13       1.0  0.73300  0.07450  0.83900  1.0000
  O   O14       1.0  0.23600  0.99500  0.84600  1.0000
  O   O15       1.0  0.24800  0.34100  0.87200  1.0000
  O   O16       1.0  0.80100  0.38400  0.91500  1.0000
  P   P1        1.0  0.17100  0.73400  0.24200  1.0000
  P   P2        1.0  0.74400  0.80900  0.25100  1.0000
  P   P3        1.0  0.25600  0.19100  0.74900  1.0000
  P   P4        1.0  0.82900  0.26600  0.75800  1.0000
  Rb  Rb1       1.0  0.39700  0.27800  0.21800  1.0000
  Rb  Rb2       1.0  0.60300  0.72200  0.78200  1.0000
