data_image0
_chemical_formula_structural       H8O16P4Tl2Zn
_chemical_formula_sum              "H8 O16 P4 Tl2 Zn1"
_cell_length_a       6.85325
_cell_length_b       7.26175
_cell_length_c       7.61397
_cell_angle_alpha    80.7242
_cell_angle_beta     71.2551
_cell_angle_gamma    85.6585

_space_group_name_H-M_alt    "P 1"
_space_group_IT_number       1

loop_
  _space_group_symop_operation_xyz
  'x, y, z'

loop_
  _atom_site_type_symbol
  _atom_site_label
  _atom_site_symmetry_multiplicity
  _atom_site_fract_x
  _atom_site_fract_y
  _atom_site_fract_z
  _atom_site_occupancy
  H   H1        1.0  0.74400  0.96800  0.03430  1.0000
  H   H2        1.0  0.38600  0.17000  0.20600  1.0000
  H   H3        1.0  0.38400  0.30900  0.35200  1.0000
  H   H4        1.0  0.91500  0.73100  0.43200  1.0000
  H   H5        1.0  0.08480  0.26900  0.56800  1.0000
  H   H6        1.0  0.61600  0.69100  0.64800  1.0000
  H   H7        1.0  0.61400  0.83000  0.79400  1.0000
  H   H8        1.0  0.25600  0.03240  0.96600  1.0000
  O   O1        1.0  0.69400  0.61100  0.11300  1.0000
  O   O2        1.0  0.23700  0.65000  0.14900  1.0000
  O   O3        1.0  0.26700  0.99900  0.15100  1.0000
  O   O4        1.0  0.75600  0.92900  0.17200  1.0000
  O   O5        1.0  0.45700  0.27800  0.22300  1.0000
  O   O6        1.0  0.41600  0.76700  0.36200  1.0000
  O   O7        1.0  0.73800  0.65300  0.42600  1.0000
  O   O8        1.0  0.04360  0.79700  0.44100  1.0000
  O   O9        1.0  0.95600  0.20300  0.55900  1.0000
  O   O10       1.0  0.26200  0.34700  0.57400  1.0000
  O   O11       1.0  0.58400  0.23300  0.63800  1.0000
  O   O12       1.0  0.54300  0.72200  0.77700  1.0000
  O   O13       1.0  0.24400  0.07090  0.82800  1.0000
  O   O14       1.0  0.73300  0.00057  0.84900  1.0000
  O   O15       1.0  0.76300  0.35000  0.85100  1.0000
  O   O16       1.0  0.30600  0.38900  0.88700  1.0000
  P   P1        1.0  0.23500  0.80300  0.26200  1.0000
  P   P2        1.0  0.66000  0.73400  0.26400  1.0000
  P   P3        1.0  0.34000  0.26600  0.73600  1.0000
  P   P4        1.0  0.76500  0.19700  0.73800  1.0000
  Tl  Tl1       1.0  0.90100  0.28200  0.20200  1.0000
  Tl  Tl2       1.0  0.09880  0.71800  0.79800  1.0000
  Zn  Zn1       1.0  0.50000  0.50000  0.00000  1.0000
