data_image0
_chemical_formula_structural       Ba2Na16Sn12
_chemical_formula_sum              "Ba2 Na16 Sn12"
_cell_length_a       12.4854
_cell_length_b       5.27947
_cell_length_c       15.9257
_cell_angle_alpha    90
_cell_angle_beta     113.563
_cell_angle_gamma    90

_space_group_name_H-M_alt    "P 1"
_space_group_IT_number       1

loop_
  _space_group_symop_operation_xyz
  'x, y, z'

loop_
  _atom_site_type_symbol
  _atom_site_label
  _atom_site_symmetry_multiplicity
  _atom_site_fract_x
  _atom_site_fract_y
  _atom_site_fract_z
  _atom_site_occupancy
  Ba  Ba1       1.0  0.63500  0.25000  0.29200  1.0000
  Ba  Ba2       1.0  0.36500  0.75000  0.70800  1.0000
  Na  Na1       1.0  0.62500  0.25000  0.06090  1.0000
  Na  Na2       1.0  0.32400  0.25000  0.06690  1.0000
  Na  Na3       1.0  0.92600  0.75000  0.11900  1.0000
  Na  Na4       1.0  0.20900  0.75000  0.12900  1.0000
  Na  Na5       1.0  0.92900  0.25000  0.26700  1.0000
  Na  Na6       1.0  0.29200  0.25000  0.31600  1.0000
  Na  Na7       1.0  0.11600  0.75000  0.48700  1.0000
  Na  Na8       1.0  0.58600  0.25000  0.49900  1.0000
  Na  Na9       1.0  0.41400  0.75000  0.50100  1.0000
  Na  Na10      1.0  0.88400  0.25000  0.51300  1.0000
  Na  Na11      1.0  0.70800  0.75000  0.68400  1.0000
  Na  Na12      1.0  0.07110  0.75000  0.73300  1.0000
  Na  Na13      1.0  0.79100  0.25000  0.87100  1.0000
  Na  Na14      1.0  0.07430  0.25000  0.88100  1.0000
  Na  Na15      1.0  0.67600  0.75000  0.93300  1.0000
  Na  Na16      1.0  0.37500  0.75000  0.93900  1.0000
  Sn  Sn1       1.0  0.03720  0.25000  0.06350  1.0000
  Sn  Sn2       1.0  0.47400  0.75000  0.14700  1.0000
  Sn  Sn3       1.0  0.71700  0.75000  0.17200  1.0000
  Sn  Sn4       1.0  0.46100  0.75000  0.32500  1.0000
  Sn  Sn5       1.0  0.85700  0.75000  0.36500  1.0000
  Sn  Sn6       1.0  0.70700  0.75000  0.46700  1.0000
  Sn  Sn7       1.0  0.29300  0.25000  0.53300  1.0000
  Sn  Sn8       1.0  0.14300  0.25000  0.63500  1.0000
  Sn  Sn9       1.0  0.53900  0.25000  0.67500  1.0000
  Sn  Sn10      1.0  0.28300  0.25000  0.82800  1.0000
  Sn  Sn11      1.0  0.52600  0.25000  0.85300  1.0000
  Sn  Sn12      1.0  0.96300  0.75000  0.93700  1.0000
