data_image0
_chemical_formula_structural       Cl14Ir2Te14
_chemical_formula_sum              "Cl14 Ir2 Te14"
_cell_length_a       9.3776
_cell_length_b       10.2733
_cell_length_c       11.5689
_cell_angle_alpha    69.1214
_cell_angle_beta     66.8561
_cell_angle_gamma    66.9641

_space_group_name_H-M_alt    "P 1"
_space_group_IT_number       1

loop_
  _space_group_symop_operation_xyz
  'x, y, z'

loop_
  _atom_site_type_symbol
  _atom_site_label
  _atom_site_symmetry_multiplicity
  _atom_site_fract_x
  _atom_site_fract_y
  _atom_site_fract_z
  _atom_site_occupancy
  Cl  Cl1       1.0  0.67100  0.73900  0.03860  1.0000
  Cl  Cl2       1.0  0.21200  0.46000  0.20800  1.0000
  Cl  Cl3       1.0  0.46600  0.03370  0.26800  1.0000
  Cl  Cl4       1.0  0.32200  0.67700  0.28500  1.0000
  Cl  Cl5       1.0  0.80300  0.49200  0.31100  1.0000
  Cl  Cl6       1.0  0.98100  0.84400  0.47300  1.0000
  Cl  Cl7       1.0  0.64800  0.74100  0.49700  1.0000
  Cl  Cl8       1.0  0.35200  0.25900  0.50300  1.0000
  Cl  Cl9       1.0  0.01940  0.15600  0.52700  1.0000
  Cl  Cl10      1.0  0.19700  0.50800  0.68900  1.0000
  Cl  Cl11      1.0  0.67800  0.32300  0.71500  1.0000
  Cl  Cl12      1.0  0.53400  0.96600  0.73200  1.0000
  Cl  Cl13      1.0  0.78800  0.54000  0.79200  1.0000
  Cl  Cl14      1.0  0.32900  0.26100  0.96100  1.0000
  Ir  Ir1       1.0  0.92700  0.85000  0.15900  1.0000
  Ir  Ir2       1.0  0.07350  0.15000  0.84100  1.0000
  Te  Te1       1.0  0.04550  0.65800  0.01510  1.0000
  Te  Te2       1.0  0.19400  0.94600  0.03170  1.0000
  Te  Te3       1.0  0.65000  0.28900  0.12100  1.0000
  Te  Te4       1.0  0.06880  0.15500  0.19800  1.0000
  Te  Te5       1.0  0.65800  0.76300  0.27300  1.0000
  Te  Te6       1.0  0.79100  0.05110  0.30100  1.0000
  Te  Te7       1.0  0.05580  0.65700  0.34100  1.0000
  Te  Te8       1.0  0.94400  0.34300  0.65900  1.0000
  Te  Te9       1.0  0.20900  0.94900  0.69900  1.0000
  Te  Te10      1.0  0.34200  0.23700  0.72700  1.0000
  Te  Te11      1.0  0.93100  0.84500  0.80200  1.0000
  Te  Te12      1.0  0.35000  0.71100  0.87900  1.0000
  Te  Te13      1.0  0.80600  0.05440  0.96800  1.0000
  Te  Te14      1.0  0.95400  0.34200  0.98500  1.0000
