data_image0
_chemical_formula_structural       O20Sr2V8
_chemical_formula_sum              "O20 Sr2 V8"
_cell_length_a       6.20862
_cell_length_b       7.44296
_cell_length_c       8.67983
_cell_angle_alpha    89.9192
_cell_angle_beta     91.7126
_cell_angle_gamma    107.525

_space_group_name_H-M_alt    "P 1"
_space_group_IT_number       1

loop_
  _space_group_symop_operation_xyz
  'x, y, z'

loop_
  _atom_site_type_symbol
  _atom_site_label
  _atom_site_symmetry_multiplicity
  _atom_site_fract_x
  _atom_site_fract_y
  _atom_site_fract_z
  _atom_site_occupancy
  O   O1        1.0  0.55800  0.41900  0.14500  1.0000
  O   O2        1.0  0.08950  0.54500  0.14900  1.0000
  O   O3        1.0  0.08120  0.99800  0.15000  1.0000
  O   O4        1.0  0.56600  0.86500  0.15400  1.0000
  O   O5        1.0  0.19500  0.30600  0.34400  1.0000
  O   O6        1.0  0.47700  0.11400  0.36600  1.0000
  O   O7        1.0  0.20900  0.79500  0.37400  1.0000
  O   O8        1.0  0.84500  0.46900  0.39800  1.0000
  O   O9        1.0  0.47200  0.62300  0.39900  1.0000
  O   O10       1.0  0.82500  0.95000  0.41100  1.0000
  O   O11       1.0  0.17500  0.04990  0.58900  1.0000
  O   O12       1.0  0.52800  0.37700  0.60100  1.0000
  O   O13       1.0  0.15500  0.53100  0.60200  1.0000
  O   O14       1.0  0.79100  0.20500  0.62600  1.0000
  O   O15       1.0  0.52300  0.88600  0.63400  1.0000
  O   O16       1.0  0.80500  0.69400  0.65600  1.0000
  O   O17       1.0  0.43400  0.13500  0.84600  1.0000
  O   O18       1.0  0.91900  0.00183  0.85000  1.0000
  O   O19       1.0  0.91100  0.45500  0.85100  1.0000
  O   O20       1.0  0.44200  0.58100  0.85500  1.0000
  Sr  Sr1       1.0  0.82100  0.70800  0.01100  1.0000
  Sr  Sr2       1.0  0.17900  0.29200  0.98900  1.0000
  V   V1        1.0  0.52800  0.38600  0.33600  1.0000
  V   V2        1.0  0.54000  0.88200  0.33900  1.0000
  V   V3        1.0  0.12400  0.53600  0.34100  1.0000
  V   V4        1.0  0.13800  0.02900  0.34100  1.0000
  V   V5        1.0  0.86200  0.97100  0.65900  1.0000
  V   V6        1.0  0.87600  0.46400  0.65900  1.0000
  V   V7        1.0  0.46000  0.11800  0.66100  1.0000
  V   V8        1.0  0.47200  0.61400  0.66400  1.0000
