data_image0
_chemical_formula_structural       As4CuH10O16
_chemical_formula_sum              "As4 Cu1 H10 O16"
_cell_length_a       5.31909
_cell_length_b       7.44392
_cell_length_c       8.07181
_cell_angle_alpha    106.035
_cell_angle_beta     98.025
_cell_angle_gamma    93.67

_space_group_name_H-M_alt    "P 1"
_space_group_IT_number       1

loop_
  _space_group_symop_operation_xyz
  'x, y, z'

loop_
  _atom_site_type_symbol
  _atom_site_label
  _atom_site_symmetry_multiplicity
  _atom_site_fract_x
  _atom_site_fract_y
  _atom_site_fract_z
  _atom_site_occupancy
  As  As1       1.0  0.58600  0.18800  0.21000  1.0000
  As  As2       1.0  0.96200  0.71400  0.30200  1.0000
  As  As3       1.0  0.03770  0.28600  0.69800  1.0000
  As  As4       1.0  0.41400  0.81200  0.79000  1.0000
  Cu  Cu1       1.0  0.00000  0.00000  0.00000  1.0000
  H   H1        1.0  0.67200  0.70900  0.06630  1.0000
  H   H2        1.0  0.02460  0.40100  0.21700  1.0000
  H   H3        1.0  0.41000  0.95400  0.30400  1.0000
  H   H4        1.0  0.42800  0.46000  0.34600  1.0000
  H   H5        1.0  0.10600  0.10400  0.42900  1.0000
  H   H6        1.0  0.89400  0.89600  0.57100  1.0000
  H   H7        1.0  0.57200  0.54000  0.65400  1.0000
  H   H8        1.0  0.59000  0.04630  0.69600  1.0000
  H   H9        1.0  0.97500  0.59900  0.78300  1.0000
  H   H10       1.0  0.32800  0.29100  0.93400  1.0000
  O   O1        1.0  0.32800  0.15300  0.04820  1.0000
  O   O2        1.0  0.86400  0.21300  0.13200  1.0000
  O   O3        1.0  0.69000  0.62600  0.14800  1.0000
  O   O4        1.0  0.14400  0.52500  0.27100  1.0000
  O   O5        1.0  0.12500  0.90600  0.28000  1.0000
  O   O6        1.0  0.59400  0.01680  0.31800  1.0000
  O   O7        1.0  0.59000  0.40100  0.36700  1.0000
  O   O8        1.0  0.11600  0.24400  0.49100  1.0000
  O   O9        1.0  0.88400  0.75600  0.50900  1.0000
  O   O10       1.0  0.41000  0.59900  0.63300  1.0000
  O   O11       1.0  0.40600  0.98300  0.68200  1.0000
  O   O12       1.0  0.87500  0.09390  0.72000  1.0000
  O   O13       1.0  0.85600  0.47500  0.72900  1.0000
  O   O14       1.0  0.31000  0.37400  0.85200  1.0000
  O   O15       1.0  0.13600  0.78700  0.86800  1.0000
  O   O16       1.0  0.67200  0.84700  0.95200  1.0000
