data_image0
_chemical_formula_structural       Co16Gd6Sn8
_chemical_formula_sum              "Co16 Gd6 Sn8"
_cell_length_a       7.46432
_cell_length_b       8.91541
_cell_length_c       8.91537
_cell_angle_alpha    120
_cell_angle_beta     90
_cell_angle_gamma    90

_space_group_name_H-M_alt    "P 1"
_space_group_IT_number       1

loop_
  _space_group_symop_operation_xyz
  'x, y, z'

loop_
  _atom_site_type_symbol
  _atom_site_label
  _atom_site_symmetry_multiplicity
  _atom_site_fract_x
  _atom_site_fract_y
  _atom_site_fract_z
  _atom_site_occupancy
  Co  Co1       1.0  0.27900  0.00000  0.00000  1.0000
  Co  Co2       1.0  0.77900  0.00000  0.00000  1.0000
  Co  Co3       1.0  0.52400  0.19400  0.09720  1.0000
  Co  Co4       1.0  0.52400  0.90300  0.09720  1.0000
  Co  Co5       1.0  0.83000  0.31700  0.15800  1.0000
  Co  Co6       1.0  0.83000  0.84200  0.15800  1.0000
  Co  Co7       1.0  0.02380  0.09720  0.19400  1.0000
  Co  Co8       1.0  0.33000  0.15800  0.31700  1.0000
  Co  Co9       1.0  0.20300  0.66700  0.33300  1.0000
  Co  Co10      1.0  0.70300  0.33300  0.66700  1.0000
  Co  Co11      1.0  0.83000  0.84200  0.68300  1.0000
  Co  Co12      1.0  0.52400  0.90300  0.80600  1.0000
  Co  Co13      1.0  0.33000  0.15800  0.84200  1.0000
  Co  Co14      1.0  0.33000  0.68300  0.84200  1.0000
  Co  Co15      1.0  0.02380  0.09720  0.90300  1.0000
  Co  Co16      1.0  0.02380  0.80600  0.90300  1.0000
  Gd  Gd1       1.0  0.49900  0.52900  0.05730  1.0000
  Gd  Gd2       1.0  0.49900  0.52900  0.47100  1.0000
  Gd  Gd3       1.0  0.49900  0.94300  0.47100  1.0000
  Gd  Gd4       1.0  0.99900  0.05730  0.52900  1.0000
  Gd  Gd5       1.0  0.99900  0.47100  0.52900  1.0000
  Gd  Gd6       1.0  0.99900  0.47100  0.94300  1.0000
  Sn  Sn1       1.0  0.20400  0.34200  0.17100  1.0000
  Sn  Sn2       1.0  0.20400  0.82900  0.17100  1.0000
  Sn  Sn3       1.0  0.83000  0.66700  0.33300  1.0000
  Sn  Sn4       1.0  0.70400  0.17100  0.34200  1.0000
  Sn  Sn5       1.0  0.20400  0.82900  0.65800  1.0000
  Sn  Sn6       1.0  0.33000  0.33300  0.66700  1.0000
  Sn  Sn7       1.0  0.70400  0.17100  0.82900  1.0000
  Sn  Sn8       1.0  0.70400  0.65800  0.82900  1.0000
