data_image0
_chemical_formula_structural       Ag4Bi8Pb2Se16
_chemical_formula_sum              "Ag4 Bi8 Pb2 Se16"
_cell_length_a       13.2694
_cell_length_b       4.24437
_cell_length_c       15.5188
_cell_angle_alpha    90
_cell_angle_beta     109.019
_cell_angle_gamma    90

_space_group_name_H-M_alt    "P 1"
_space_group_IT_number       1

loop_
  _space_group_symop_operation_xyz
  'x, y, z'

loop_
  _atom_site_type_symbol
  _atom_site_label
  _atom_site_symmetry_multiplicity
  _atom_site_fract_x
  _atom_site_fract_y
  _atom_site_fract_z
  _atom_site_occupancy
  Ag  Ag1       1.0  0.62000  0.75000  0.09630  1.0000
  Ag  Ag2       1.0  0.53400  0.75000  0.45900  1.0000
  Ag  Ag3       1.0  0.46600  0.25000  0.54100  1.0000
  Ag  Ag4       1.0  0.38000  0.25000  0.90400  1.0000
  Bi  Bi1       1.0  0.29000  0.75000  0.08960  1.0000
  Bi  Bi2       1.0  0.95800  0.75000  0.11300  1.0000
  Bi  Bi3       1.0  0.56600  0.25000  0.29500  1.0000
  Bi  Bi4       1.0  0.92900  0.25000  0.38000  1.0000
  Bi  Bi5       1.0  0.07150  0.75000  0.62000  1.0000
  Bi  Bi6       1.0  0.43400  0.75000  0.70500  1.0000
  Bi  Bi7       1.0  0.04180  0.25000  0.88700  1.0000
  Bi  Bi8       1.0  0.71000  0.25000  0.91000  1.0000
  Pb  Pb1       1.0  0.23300  0.25000  0.32400  1.0000
  Pb  Pb2       1.0  0.76700  0.75000  0.67600  1.0000
  Se  Se1       1.0  0.43500  0.25000  0.07810  1.0000
  Se  Se2       1.0  0.13200  0.25000  0.11300  1.0000
  Se  Se3       1.0  0.81200  0.25000  0.11300  1.0000
  Se  Se4       1.0  0.69600  0.75000  0.26900  1.0000
  Se  Se5       1.0  0.37800  0.75000  0.28700  1.0000
  Se  Se6       1.0  0.04570  0.75000  0.30300  1.0000
  Se  Se7       1.0  0.65800  0.25000  0.48300  1.0000
  Se  Se8       1.0  0.87600  0.75000  0.48600  1.0000
  Se  Se9       1.0  0.12400  0.25000  0.51400  1.0000
  Se  Se10      1.0  0.34200  0.75000  0.51700  1.0000
  Se  Se11      1.0  0.95400  0.25000  0.69700  1.0000
  Se  Se12      1.0  0.62200  0.25000  0.71300  1.0000
  Se  Se13      1.0  0.30400  0.25000  0.73100  1.0000
  Se  Se14      1.0  0.18800  0.75000  0.88700  1.0000
  Se  Se15      1.0  0.86800  0.75000  0.88700  1.0000
  Se  Se16      1.0  0.56500  0.75000  0.92200  1.0000
