data_image0
_chemical_formula_structural       C10Cs4Cu6N10
_chemical_formula_sum              "C10 Cs4 Cu6 N10"
_cell_length_a       8.01085
_cell_length_b       8.3144
_cell_length_c       9.65207
_cell_angle_alpha    91.3876
_cell_angle_beta     114.518
_cell_angle_gamma    90

_space_group_name_H-M_alt    "P 1"
_space_group_IT_number       1

loop_
  _space_group_symop_operation_xyz
  'x, y, z'

loop_
  _atom_site_type_symbol
  _atom_site_label
  _atom_site_symmetry_multiplicity
  _atom_site_fract_x
  _atom_site_fract_y
  _atom_site_fract_z
  _atom_site_occupancy
  C   C1        1.0  0.18900  0.25000  0.00000  1.0000
  C   C2        1.0  0.81100  0.75000  0.00000  1.0000
  C   C3        1.0  0.51100  0.97000  0.23300  1.0000
  C   C4        1.0  0.72200  0.47000  0.23300  1.0000
  C   C5        1.0  0.36700  0.23400  0.44800  1.0000
  C   C6        1.0  0.08130  0.73400  0.44800  1.0000
  C   C7        1.0  0.63300  0.76600  0.55200  1.0000
  C   C8        1.0  0.91900  0.26600  0.55200  1.0000
  C   C9        1.0  0.48900  0.03030  0.76700  1.0000
  C   C10       1.0  0.27800  0.53000  0.76700  1.0000
  Cs  Cs1       1.0  0.29800  0.58100  0.22600  1.0000
  Cs  Cs2       1.0  0.92800  0.08140  0.22600  1.0000
  Cs  Cs3       1.0  0.70200  0.41900  0.77400  1.0000
  Cs  Cs4       1.0  0.07180  0.91900  0.77400  1.0000
  Cu  Cu1       1.0  0.42100  0.25000  0.00000  1.0000
  Cu  Cu2       1.0  0.57900  0.75000  0.00000  1.0000
  Cu  Cu3       1.0  0.86200  0.61500  0.39100  1.0000
  Cu  Cu4       1.0  0.52900  0.11500  0.39100  1.0000
  Cu  Cu5       1.0  0.13800  0.38500  0.60900  1.0000
  Cu  Cu6       1.0  0.47100  0.88500  0.60900  1.0000
  N   N1        1.0  0.04170  0.25000  0.00000  1.0000
  N   N2        1.0  0.95800  0.75000  0.00000  1.0000
  N   N3        1.0  0.51700  0.87900  0.13900  1.0000
  N   N4        1.0  0.62300  0.37900  0.13900  1.0000
  N   N5        1.0  0.27100  0.31200  0.48800  1.0000
  N   N6        1.0  0.21700  0.81200  0.48800  1.0000
  N   N7        1.0  0.72900  0.68800  0.51200  1.0000
  N   N8        1.0  0.78300  0.18800  0.51200  1.0000
  N   N9        1.0  0.48300  0.12100  0.86100  1.0000
  N   N10       1.0  0.37700  0.62100  0.86100  1.0000
