data_image0
_chemical_formula_structural       C8CdH10O12
_chemical_formula_sum              "C8 Cd1 H10 O12"
_cell_length_a       5.03935
_cell_length_b       7.29723
_cell_length_c       8.87836
_cell_angle_alpha    64.8702
_cell_angle_beta     77.8717
_cell_angle_gamma    76.3375

_space_group_name_H-M_alt    "P 1"
_space_group_IT_number       1

loop_
  _space_group_symop_operation_xyz
  'x, y, z'

loop_
  _atom_site_type_symbol
  _atom_site_label
  _atom_site_symmetry_multiplicity
  _atom_site_fract_x
  _atom_site_fract_y
  _atom_site_fract_z
  _atom_site_occupancy
  C   C1        1.0  0.82300  0.82000  0.28500  1.0000
  C   C2        1.0  0.08900  0.68100  0.28800  1.0000
  C   C3        1.0  0.13100  0.70300  0.43700  1.0000
  C   C4        1.0  0.86700  0.83400  0.43800  1.0000
  C   C5        1.0  0.13300  0.16600  0.56200  1.0000
  C   C6        1.0  0.86900  0.29700  0.56300  1.0000
  C   C7        1.0  0.91100  0.31900  0.71200  1.0000
  C   C8        1.0  0.17700  0.18000  0.71500  1.0000
  Cd  Cd1       1.0  0.50000  0.50000  0.00000  1.0000
  H   H1        1.0  0.69400  0.80800  0.03810  1.0000
  H   H2        1.0  0.40900  0.10000  0.14100  1.0000
  H   H3        1.0  0.97800  0.26500  0.15000  1.0000
  H   H4        1.0  0.75100  0.32300  0.28900  1.0000
  H   H5        1.0  0.50000  0.50000  0.50000  1.0000
  H   H6        1.0  0.50000  0.00000  0.50000  1.0000
  H   H7        1.0  0.24900  0.67700  0.71100  1.0000
  H   H8        1.0  0.02200  0.73500  0.85000  1.0000
  H   H9        1.0  0.59100  0.90000  0.85900  1.0000
  H   H10       1.0  0.30600  0.19200  0.96200  1.0000
  O   O1        1.0  0.29100  0.22100  0.06480  1.0000
  O   O2        1.0  0.77600  0.28400  0.19200  1.0000
  O   O3        1.0  0.63500  0.88200  0.19400  1.0000
  O   O4        1.0  0.21000  0.57500  0.20800  1.0000
  O   O5        1.0  0.27300  0.08620  0.46100  1.0000
  O   O6        1.0  0.68200  0.37800  0.46400  1.0000
  O   O7        1.0  0.31800  0.62200  0.53600  1.0000
  O   O8        1.0  0.72700  0.91400  0.53900  1.0000
  O   O9        1.0  0.79000  0.42500  0.79200  1.0000
  O   O10       1.0  0.36500  0.11800  0.80600  1.0000
  O   O11       1.0  0.22400  0.71600  0.80800  1.0000
  O   O12       1.0  0.70900  0.77900  0.93500  1.0000
