data_image0
_chemical_formula_structural       Cs4O20P4U2
_chemical_formula_sum              "Cs4 O20 P4 U2"
_cell_length_a       5.81361
_cell_length_b       9.19242
_cell_length_c       9.73693
_cell_angle_alpha    90
_cell_angle_beta     96.9296
_cell_angle_gamma    90

_space_group_name_H-M_alt    "P 1"
_space_group_IT_number       1

loop_
  _space_group_symop_operation_xyz
  'x, y, z'

loop_
  _atom_site_type_symbol
  _atom_site_label
  _atom_site_symmetry_multiplicity
  _atom_site_fract_x
  _atom_site_fract_y
  _atom_site_fract_z
  _atom_site_occupancy
  Cs  Cs1       1.0  0.48300  0.30400  0.15000  1.0000
  Cs  Cs2       1.0  0.51700  0.80400  0.35000  1.0000
  Cs  Cs3       1.0  0.48300  0.19600  0.65000  1.0000
  Cs  Cs4       1.0  0.51700  0.69600  0.85000  1.0000
  O   O1        1.0  0.29500  0.95500  0.06380  1.0000
  O   O2        1.0  0.20500  0.61800  0.09380  1.0000
  O   O3        1.0  0.78900  0.53400  0.10200  1.0000
  O   O4        1.0  0.87300  0.80000  0.10800  1.0000
  O   O5        1.0  0.97900  0.14700  0.18900  1.0000
  O   O6        1.0  0.02080  0.64700  0.31100  1.0000
  O   O7        1.0  0.12700  0.30000  0.39200  1.0000
  O   O8        1.0  0.21100  0.03410  0.39800  1.0000
  O   O9        1.0  0.79500  0.11800  0.40600  1.0000
  O   O10       1.0  0.70500  0.45500  0.43600  1.0000
  O   O11       1.0  0.29500  0.54500  0.56400  1.0000
  O   O12       1.0  0.20500  0.88200  0.59400  1.0000
  O   O13       1.0  0.78900  0.96600  0.60200  1.0000
  O   O14       1.0  0.87300  0.70000  0.60800  1.0000
  O   O15       1.0  0.97900  0.35300  0.68900  1.0000
  O   O16       1.0  0.02080  0.85300  0.81100  1.0000
  O   O17       1.0  0.12700  0.20000  0.89200  1.0000
  O   O18       1.0  0.21100  0.46600  0.89800  1.0000
  O   O19       1.0  0.79500  0.38200  0.90600  1.0000
  O   O20       1.0  0.70500  0.04470  0.93600  1.0000
  P   P1        1.0  0.97400  0.64700  0.15000  1.0000
  P   P2        1.0  0.02580  0.14700  0.35000  1.0000
  P   P3        1.0  0.97400  0.85300  0.65000  1.0000
  P   P4        1.0  0.02580  0.35300  0.85000  1.0000
  U   U1        1.0  0.00000  0.00000  0.00000  1.0000
  U   U2        1.0  0.00000  0.50000  0.50000  1.0000
