data_image0
_chemical_formula_structural       H8La2N2O16S4
_chemical_formula_sum              "H8 La2 N2 O16 S4"
_cell_length_a       7.02765
_cell_length_b       5.37248
_cell_length_c       9.13849
_cell_angle_alpha    90
_cell_angle_beta     98.0615
_cell_angle_gamma    90

_space_group_name_H-M_alt    "P 1"
_space_group_IT_number       1

loop_
  _space_group_symop_operation_xyz
  'x, y, z'

loop_
  _atom_site_type_symbol
  _atom_site_label
  _atom_site_symmetry_multiplicity
  _atom_site_fract_x
  _atom_site_fract_y
  _atom_site_fract_z
  _atom_site_occupancy
  H   H1        1.0  0.62600  0.59500  0.15000  1.0000
  H   H2        1.0  0.62600  0.90500  0.15000  1.0000
  H   H3        1.0  0.83700  0.75000  0.19400  1.0000
  H   H4        1.0  0.67100  0.75000  0.31200  1.0000
  H   H5        1.0  0.32900  0.25000  0.68800  1.0000
  H   H6        1.0  0.16300  0.25000  0.80600  1.0000
  H   H7        1.0  0.37400  0.09520  0.85000  1.0000
  H   H8        1.0  0.37400  0.40500  0.85000  1.0000
  La  La1       1.0  0.20700  0.25000  0.27300  1.0000
  La  La2       1.0  0.79300  0.75000  0.72700  1.0000
  N   N1        1.0  0.69100  0.75000  0.20300  1.0000
  N   N2        1.0  0.30900  0.25000  0.79700  1.0000
  O   O1        1.0  0.93700  0.25000  0.07110  1.0000
  O   O2        1.0  0.32000  0.52300  0.07610  1.0000
  O   O3        1.0  0.32000  0.97700  0.07610  1.0000
  O   O4        1.0  0.09310  0.75000  0.20000  1.0000
  O   O5        1.0  0.57000  0.25000  0.30000  1.0000
  O   O6        1.0  0.91400  0.25000  0.37800  1.0000
  O   O7        1.0  0.29500  0.52300  0.48200  1.0000
  O   O8        1.0  0.29500  0.97700  0.48200  1.0000
  O   O9        1.0  0.70500  0.02270  0.51800  1.0000
  O   O10       1.0  0.70500  0.47700  0.51800  1.0000
  O   O11       1.0  0.08640  0.75000  0.62200  1.0000
  O   O12       1.0  0.43000  0.75000  0.70000  1.0000
  O   O13       1.0  0.90700  0.25000  0.80000  1.0000
  O   O14       1.0  0.68000  0.02330  0.92400  1.0000
  O   O15       1.0  0.68000  0.47700  0.92400  1.0000
  O   O16       1.0  0.06280  0.75000  0.92900  1.0000
  S   S1        1.0  0.19700  0.75000  0.06690  1.0000
  S   S2        1.0  0.72300  0.25000  0.43000  1.0000
  S   S3        1.0  0.27700  0.75000  0.57000  1.0000
  S   S4        1.0  0.80300  0.25000  0.93300  1.0000
