data_image0
_chemical_formula_structural       Mn2O10Se4
_chemical_formula_sum              "Mn2 O10 Se4"
_cell_length_a       5.74192
_cell_length_b       6.76708
_cell_length_c       6.76708
_cell_angle_alpha    107.859
_cell_angle_beta     106.21
_cell_angle_gamma    106.21

_space_group_name_H-M_alt    "P 1"
_space_group_IT_number       1

loop_
  _space_group_symop_operation_xyz
  'x, y, z'

loop_
  _atom_site_type_symbol
  _atom_site_label
  _atom_site_symmetry_multiplicity
  _atom_site_fract_x
  _atom_site_fract_y
  _atom_site_fract_z
  _atom_site_occupancy
  Mn  Mn1       1.0  0.25000  0.91600  0.08440  1.0000
  Mn  Mn2       1.0  0.75000  0.08440  0.91600  1.0000
  O   O1        1.0  0.27700  0.59300  0.01870  1.0000
  O   O2        1.0  0.17800  0.21700  0.08750  1.0000
  O   O3        1.0  0.67800  0.08750  0.21700  1.0000
  O   O4        1.0  0.22300  0.98100  0.40700  1.0000
  O   O5        1.0  0.25000  0.57800  0.42200  1.0000
  O   O6        1.0  0.75000  0.42200  0.57800  1.0000
  O   O7        1.0  0.77700  0.01870  0.59300  1.0000
  O   O8        1.0  0.32200  0.91300  0.78300  1.0000
  O   O9        1.0  0.82200  0.78300  0.91300  1.0000
  O   O10       1.0  0.72300  0.40700  0.98100  1.0000
  Se  Se1       1.0  0.39200  0.49400  0.21100  1.0000
  Se  Se2       1.0  0.89200  0.21100  0.49400  1.0000
  Se  Se3       1.0  0.10800  0.78900  0.50600  1.0000
  Se  Se4       1.0  0.60800  0.50600  0.78900  1.0000
