data_image0
_chemical_formula_structural       Sb6Yb10
_chemical_formula_sum              "Sb6 Yb10"
_cell_length_a       9.05882
_cell_length_b       9.05882
_cell_length_c       6.87591
_cell_angle_alpha    90
_cell_angle_beta     90
_cell_angle_gamma    120

_space_group_name_H-M_alt    "P 1"
_space_group_IT_number       1

loop_
  _space_group_symop_operation_xyz
  'x, y, z'

loop_
  _atom_site_type_symbol
  _atom_site_label
  _atom_site_symmetry_multiplicity
  _atom_site_fract_x
  _atom_site_fract_y
  _atom_site_fract_z
  _atom_site_occupancy
  Sb  Sb1       1.0  0.61000  0.00000  0.25000  1.0000
  Sb  Sb2       1.0  0.00000  0.61000  0.25000  1.0000
  Sb  Sb3       1.0  0.39000  0.39000  0.25000  1.0000
  Sb  Sb4       1.0  0.39000  1.00000  0.75000  1.0000
  Sb  Sb5       1.0  0.00000  0.39000  0.75000  1.0000
  Sb  Sb6       1.0  0.61000  0.61000  0.75000  1.0000
  Yb  Yb1       1.0  0.66700  0.33300  0.00000  1.0000
  Yb  Yb2       1.0  0.33300  0.66700  0.00000  1.0000
  Yb  Yb3       1.0  0.74700  0.74700  0.25000  1.0000
  Yb  Yb4       1.0  0.25300  1.00000  0.25000  1.0000
  Yb  Yb5       1.0  0.00000  0.25300  0.25000  1.0000
  Yb  Yb6       1.0  0.66700  0.33300  0.50000  1.0000
  Yb  Yb7       1.0  0.33300  0.66700  0.50000  1.0000
  Yb  Yb8       1.0  0.25300  0.25300  0.75000  1.0000
  Yb  Yb9       1.0  0.74700  0.00000  0.75000  1.0000
  Yb  Yb10      1.0  0.00000  0.74700  0.75000  1.0000
