data_image0
_chemical_formula_structural       Ce8Ge12Mg10
_chemical_formula_sum              "Ce8 Ge12 Mg10"
_cell_length_a       4.50731
_cell_length_b       10.3168
_cell_length_c       16.1453
_cell_angle_alpha    90
_cell_angle_beta     90
_cell_angle_gamma    77.3823

_space_group_name_H-M_alt    "P 1"
_space_group_IT_number       1

loop_
  _space_group_symop_operation_xyz
  'x, y, z'

loop_
  _atom_site_type_symbol
  _atom_site_label
  _atom_site_symmetry_multiplicity
  _atom_site_fract_x
  _atom_site_fract_y
  _atom_site_fract_z
  _atom_site_occupancy
  Ce  Ce1       1.0  0.16500  0.67000  0.03770  1.0000
  Ce  Ce2       1.0  0.82500  0.35100  0.17800  1.0000
  Ce  Ce3       1.0  0.01380  0.97200  0.23600  1.0000
  Ce  Ce4       1.0  0.03280  0.93400  0.49800  1.0000
  Ce  Ce5       1.0  0.83500  0.33000  0.53800  1.0000
  Ce  Ce6       1.0  0.17500  0.64900  0.67800  1.0000
  Ce  Ce7       1.0  0.98600  0.02770  0.73600  1.0000
  Ce  Ce8       1.0  0.96700  0.06570  0.99800  1.0000
  Ge  Ge1       1.0  0.55500  0.88900  0.08610  1.0000
  Ge  Ge2       1.0  0.43300  0.13300  0.13600  1.0000
  Ge  Ge3       1.0  0.22500  0.55000  0.21500  1.0000
  Ge  Ge4       1.0  0.88700  0.22700  0.35400  1.0000
  Ge  Ge5       1.0  0.57200  0.85600  0.36200  1.0000
  Ge  Ge6       1.0  0.23100  0.53800  0.50000  1.0000
  Ge  Ge7       1.0  0.44500  0.11100  0.58600  1.0000
  Ge  Ge8       1.0  0.56700  0.86700  0.63600  1.0000
  Ge  Ge9       1.0  0.77500  0.45000  0.71500  1.0000
  Ge  Ge10      1.0  0.11300  0.77300  0.85400  1.0000
  Ge  Ge11      1.0  0.42800  0.14400  0.86200  1.0000
  Ge  Ge12      1.0  0.76900  0.46200  0.00000  1.0000
  Mg  Mg1       1.0  0.34000  0.32000  0.00194  1.0000
  Mg  Mg2       1.0  0.65000  0.70000  0.21500  1.0000
  Mg  Mg3       1.0  0.30200  0.39600  0.35500  1.0000
  Mg  Mg4       1.0  0.15500  0.69000  0.35800  1.0000
  Mg  Mg5       1.0  0.44200  0.11700  0.40400  1.0000
  Mg  Mg6       1.0  0.66000  0.68000  0.50200  1.0000
  Mg  Mg7       1.0  0.35000  0.30000  0.71500  1.0000
  Mg  Mg8       1.0  0.69800  0.60400  0.85500  1.0000
  Mg  Mg9       1.0  0.84500  0.31000  0.85800  1.0000
  Mg  Mg10      1.0  0.55800  0.88300  0.90400  1.0000
