data_image0
_chemical_formula_structural       Ag6K4S14Sb6
_chemical_formula_sum              "Ag6 K4 S14 Sb6"
_cell_length_a       6.87454
_cell_length_b       9.15252
_cell_length_c       13.4206
_cell_angle_alpha    109.937
_cell_angle_beta     90
_cell_angle_gamma    90

_space_group_name_H-M_alt    "P 1"
_space_group_IT_number       1

loop_
  _space_group_symop_operation_xyz
  'x, y, z'

loop_
  _atom_site_type_symbol
  _atom_site_label
  _atom_site_symmetry_multiplicity
  _atom_site_fract_x
  _atom_site_fract_y
  _atom_site_fract_z
  _atom_site_occupancy
  Ag  Ag1       1.0  0.12800  0.32000  0.00000  1.0000
  Ag  Ag2       1.0  0.62800  0.68000  0.00000  1.0000
  Ag  Ag3       1.0  0.37100  0.58300  0.18100  1.0000
  Ag  Ag4       1.0  0.87100  0.59800  0.18100  1.0000
  Ag  Ag5       1.0  0.37100  0.40200  0.81900  1.0000
  Ag  Ag6       1.0  0.87100  0.41700  0.81900  1.0000
  K   K1        1.0  0.81500  0.51300  0.41200  1.0000
  K   K2        1.0  0.31500  0.89900  0.41200  1.0000
  K   K3        1.0  0.81500  0.10100  0.58800  1.0000
  K   K4        1.0  0.31500  0.48700  0.58800  1.0000
  S   S1        1.0  0.47500  0.38300  0.00000  1.0000
  S   S2        1.0  0.97500  0.61700  0.00000  1.0000
  S   S3        1.0  0.88300  0.30600  0.14900  1.0000
  S   S4        1.0  0.38300  0.84200  0.14900  1.0000
  S   S5        1.0  0.30900  0.51800  0.34200  1.0000
  S   S6        1.0  0.80900  0.82400  0.34200  1.0000
  S   S7        1.0  0.07150  0.18200  0.37700  1.0000
  S   S8        1.0  0.57200  0.19500  0.37700  1.0000
  S   S9        1.0  0.07150  0.80500  0.62300  1.0000
  S   S10       1.0  0.57200  0.81800  0.62300  1.0000
  S   S11       1.0  0.30900  0.17600  0.65800  1.0000
  S   S12       1.0  0.80900  0.48200  0.65800  1.0000
  S   S13       1.0  0.88300  0.15800  0.85100  1.0000
  S   S14       1.0  0.38300  0.69400  0.85100  1.0000
  Sb  Sb1       1.0  0.67100  0.15800  0.00000  1.0000
  Sb  Sb2       1.0  0.17100  0.84200  0.00000  1.0000
  Sb  Sb3       1.0  0.81300  0.01820  0.25600  1.0000
  Sb  Sb4       1.0  0.31300  0.23700  0.25600  1.0000
  Sb  Sb5       1.0  0.81300  0.76300  0.74400  1.0000
  Sb  Sb6       1.0  0.31300  0.98200  0.74400  1.0000
