data_image0
_chemical_formula_structural       Ba4H12O12Zn2
_chemical_formula_sum              "Ba4 H12 O12 Zn2"
_cell_length_a       6.04825
_cell_length_b       6.86731
_cell_length_c       8.50661
_cell_angle_alpha    90.0002
_cell_angle_beta     101.849
_cell_angle_gamma    90.0002

_space_group_name_H-M_alt    "P 1"
_space_group_IT_number       1

loop_
  _space_group_symop_operation_xyz
  'x, y, z'

loop_
  _atom_site_type_symbol
  _atom_site_label
  _atom_site_symmetry_multiplicity
  _atom_site_fract_x
  _atom_site_fract_y
  _atom_site_fract_z
  _atom_site_occupancy
  Ba  Ba1       1.0  0.06360  0.65300  0.20200  1.0000
  Ba  Ba2       1.0  0.43600  0.15300  0.29800  1.0000
  Ba  Ba3       1.0  0.56400  0.84700  0.70200  1.0000
  Ba  Ba4       1.0  0.93600  0.34700  0.79800  1.0000
  H   H1        1.0  0.76900  0.10600  0.05710  1.0000
  H   H2        1.0  0.55000  0.83200  0.06670  1.0000
  H   H3        1.0  0.94100  0.17700  0.22200  1.0000
  H   H4        1.0  0.55900  0.67700  0.27800  1.0000
  H   H5        1.0  0.95000  0.33200  0.43300  1.0000
  H   H6        1.0  0.73100  0.60600  0.44300  1.0000
  H   H7        1.0  0.26900  0.39400  0.55700  1.0000
  H   H8        1.0  0.05020  0.66800  0.56700  1.0000
  H   H9        1.0  0.44100  0.32300  0.72200  1.0000
  H   H10       1.0  0.05880  0.82300  0.77800  1.0000
  H   H11       1.0  0.45000  0.16800  0.93300  1.0000
  H   H12       1.0  0.23100  0.89400  0.94300  1.0000
  O   O1        1.0  0.26000  0.37500  0.04940  1.0000
  O   O2        1.0  0.41100  0.83100  0.11000  1.0000
  O   O3        1.0  0.86500  0.06180  0.16400  1.0000
  O   O4        1.0  0.63500  0.56200  0.33600  1.0000
  O   O5        1.0  0.08880  0.33100  0.39000  1.0000
  O   O6        1.0  0.24000  0.87500  0.45100  1.0000
  O   O7        1.0  0.76000  0.12500  0.54900  1.0000
  O   O8        1.0  0.91100  0.66900  0.61000  1.0000
  O   O9        1.0  0.36500  0.43800  0.66400  1.0000
  O   O10       1.0  0.13500  0.93800  0.83600  1.0000
  O   O11       1.0  0.58900  0.16900  0.89000  1.0000
  O   O12       1.0  0.74000  0.62500  0.95100  1.0000
  Zn  Zn1       1.0  0.50000  0.50000  0.00000  1.0000
  Zn  Zn2       1.0  0.00000  0.00000  0.50000  1.0000
