data_image0
_chemical_formula_structural       Co16Sn8Y6
_chemical_formula_sum              "Co16 Sn8 Y6"
_cell_length_a       7.42702
_cell_length_b       8.88502
_cell_length_c       8.88616
_cell_angle_alpha    119.996
_cell_angle_beta     90
_cell_angle_gamma    90

_space_group_name_H-M_alt    "P 1"
_space_group_IT_number       1

loop_
  _space_group_symop_operation_xyz
  'x, y, z'

loop_
  _atom_site_type_symbol
  _atom_site_label
  _atom_site_symmetry_multiplicity
  _atom_site_fract_x
  _atom_site_fract_y
  _atom_site_fract_z
  _atom_site_occupancy
  Co  Co1       1.0  0.22200  0.00000  0.00000  1.0000
  Co  Co2       1.0  0.72200  0.00000  0.00000  1.0000
  Co  Co3       1.0  0.97700  0.19600  0.09770  1.0000
  Co  Co4       1.0  0.97700  0.90200  0.09770  1.0000
  Co  Co5       1.0  0.67000  0.31800  0.15900  1.0000
  Co  Co6       1.0  0.67000  0.84100  0.15900  1.0000
  Co  Co7       1.0  0.47700  0.09770  0.19500  1.0000
  Co  Co8       1.0  0.17000  0.15900  0.31800  1.0000
  Co  Co9       1.0  0.29700  0.66700  0.33400  1.0000
  Co  Co10      1.0  0.79700  0.33300  0.66600  1.0000
  Co  Co11      1.0  0.67000  0.84100  0.68200  1.0000
  Co  Co12      1.0  0.97700  0.90200  0.80500  1.0000
  Co  Co13      1.0  0.17000  0.15900  0.84100  1.0000
  Co  Co14      1.0  0.17000  0.68200  0.84100  1.0000
  Co  Co15      1.0  0.47700  0.09780  0.90200  1.0000
  Co  Co16      1.0  0.47700  0.80400  0.90200  1.0000
  Sn  Sn1       1.0  0.29700  0.34300  0.17200  1.0000
  Sn  Sn2       1.0  0.29700  0.82800  0.17200  1.0000
  Sn  Sn3       1.0  0.67000  0.66700  0.33300  1.0000
  Sn  Sn4       1.0  0.79700  0.17100  0.34300  1.0000
  Sn  Sn5       1.0  0.29700  0.82900  0.65700  1.0000
  Sn  Sn6       1.0  0.17000  0.33300  0.66700  1.0000
  Sn  Sn7       1.0  0.79700  0.17200  0.82800  1.0000
  Sn  Sn8       1.0  0.79700  0.65700  0.82800  1.0000
  Y   Y1        1.0  0.00092  0.52900  0.05770  1.0000
  Y   Y2        1.0  0.00097  0.52900  0.47100  1.0000
  Y   Y3        1.0  0.00097  0.94200  0.47100  1.0000
  Y   Y4        1.0  0.50100  0.05760  0.52900  1.0000
  Y   Y5        1.0  0.50100  0.47100  0.52900  1.0000
  Y   Y6        1.0  0.50100  0.47100  0.94200  1.0000
