data_image0
_chemical_formula_structural       C8N12P4S8
_chemical_formula_sum              "C8 N12 P4 S8"
_cell_length_a       7.9669
_cell_length_b       8.00441
_cell_length_c       9.65204
_cell_angle_alpha    103.479
_cell_angle_beta     99.9417
_cell_angle_gamma    94.5862

_space_group_name_H-M_alt    "P 1"
_space_group_IT_number       1

loop_
  _space_group_symop_operation_xyz
  'x, y, z'

loop_
  _atom_site_type_symbol
  _atom_site_label
  _atom_site_symmetry_multiplicity
  _atom_site_fract_x
  _atom_site_fract_y
  _atom_site_fract_z
  _atom_site_occupancy
  C   C1        1.0  0.72300  0.06410  0.12000  1.0000
  C   C2        1.0  0.43600  0.57400  0.19000  1.0000
  C   C3        1.0  0.01090  0.79200  0.26900  1.0000
  C   C4        1.0  0.21600  0.40900  0.47200  1.0000
  C   C5        1.0  0.78400  0.59100  0.52800  1.0000
  C   C6        1.0  0.98900  0.20800  0.73100  1.0000
  C   C7        1.0  0.56400  0.42600  0.81000  1.0000
  C   C8        1.0  0.27700  0.93600  0.88000  1.0000
  N   N1        1.0  0.60400  0.98800  0.15400  1.0000
  N   N2        1.0  0.45500  0.73100  0.22000  1.0000
  N   N3        1.0  0.38500  0.04750  0.31900  1.0000
  N   N4        1.0  0.07620  0.93100  0.34900  1.0000
  N   N5        1.0  0.69600  0.95500  0.41600  1.0000
  N   N6        1.0  0.18000  0.25300  0.42700  1.0000
  N   N7        1.0  0.82000  0.74700  0.57300  1.0000
  N   N8        1.0  0.30400  0.04510  0.58400  1.0000
  N   N9        1.0  0.92400  0.06920  0.65100  1.0000
  N   N10       1.0  0.61500  0.95300  0.68100  1.0000
  N   N11       1.0  0.54500  0.26900  0.78000  1.0000
  N   N12       1.0  0.39600  0.01240  0.84600  1.0000
  P   P1        1.0  0.53500  0.93500  0.29100  1.0000
  P   P2        1.0  0.25400  0.06550  0.42400  1.0000
  P   P3        1.0  0.74600  0.93500  0.57600  1.0000
  P   P4        1.0  0.46500  0.06520  0.70900  1.0000
  S   S1        1.0  0.86800  0.15800  0.06720  1.0000
  S   S2        1.0  0.40400  0.37300  0.14900  1.0000
  S   S3        1.0  0.91600  0.61600  0.16900  1.0000
  S   S4        1.0  0.74800  0.39000  0.47400  1.0000
  S   S5        1.0  0.25200  0.61000  0.52600  1.0000
  S   S6        1.0  0.08370  0.38400  0.83100  1.0000
  S   S7        1.0  0.59600  0.62700  0.85100  1.0000
  S   S8        1.0  0.13200  0.84200  0.93300  1.0000
