data_image0
_chemical_formula_structural       Cs8Sb8Se16
_chemical_formula_sum              "Cs8 Sb8 Se16"
_cell_length_a       7.57094
_cell_length_b       10.2677
_cell_length_c       15.8697
_cell_angle_alpha    90
_cell_angle_beta     102.38
_cell_angle_gamma    90

_space_group_name_H-M_alt    "P 1"
_space_group_IT_number       1

loop_
  _space_group_symop_operation_xyz
  'x, y, z'

loop_
  _atom_site_type_symbol
  _atom_site_label
  _atom_site_symmetry_multiplicity
  _atom_site_fract_x
  _atom_site_fract_y
  _atom_site_fract_z
  _atom_site_occupancy
  Cs  Cs1       1.0  0.21300  0.56200  0.17200  1.0000
  Cs  Cs2       1.0  0.71300  0.93800  0.17200  1.0000
  Cs  Cs3       1.0  0.28400  0.06180  0.32700  1.0000
  Cs  Cs4       1.0  0.78400  0.43800  0.32700  1.0000
  Cs  Cs5       1.0  0.21600  0.56200  0.67300  1.0000
  Cs  Cs6       1.0  0.71600  0.93800  0.67300  1.0000
  Cs  Cs7       1.0  0.78700  0.43800  0.82800  1.0000
  Cs  Cs8       1.0  0.28700  0.06200  0.82800  1.0000
  Sb  Sb1       1.0  0.13300  0.16700  0.04360  1.0000
  Sb  Sb2       1.0  0.63300  0.33300  0.04360  1.0000
  Sb  Sb3       1.0  0.36500  0.66500  0.45600  1.0000
  Sb  Sb4       1.0  0.86500  0.83500  0.45600  1.0000
  Sb  Sb5       1.0  0.13500  0.16500  0.54400  1.0000
  Sb  Sb6       1.0  0.63500  0.33500  0.54400  1.0000
  Sb  Sb7       1.0  0.36700  0.66700  0.95600  1.0000
  Sb  Sb8       1.0  0.86700  0.83300  0.95600  1.0000
  Se  Se1       1.0  0.70100  0.57400  0.08570  1.0000
  Se  Se2       1.0  0.20100  0.92600  0.08570  1.0000
  Se  Se3       1.0  0.45400  0.25200  0.15800  1.0000
  Se  Se4       1.0  0.95400  0.24800  0.15800  1.0000
  Se  Se5       1.0  0.54300  0.74900  0.34200  1.0000
  Se  Se6       1.0  0.04310  0.75100  0.34200  1.0000
  Se  Se7       1.0  0.30200  0.42500  0.41200  1.0000
  Se  Se8       1.0  0.80200  0.07520  0.41200  1.0000
  Se  Se9       1.0  0.19800  0.92500  0.58800  1.0000
  Se  Se10      1.0  0.69800  0.57500  0.58800  1.0000
  Se  Se11      1.0  0.45700  0.25100  0.65800  1.0000
  Se  Se12      1.0  0.95700  0.24900  0.65800  1.0000
  Se  Se13      1.0  0.04590  0.75200  0.84200  1.0000
  Se  Se14      1.0  0.54600  0.74800  0.84200  1.0000
  Se  Se15      1.0  0.29900  0.42600  0.91400  1.0000
  Se  Se16      1.0  0.79900  0.07380  0.91400  1.0000
