data_image0
_chemical_formula_structural       N3O18Ta9
_chemical_formula_sum              "N3 O18 Ta9"
_cell_length_a       3.86433
_cell_length_b       10.5416
_cell_length_c       11.3924
_cell_angle_alpha    110.393
_cell_angle_beta     99.759
_cell_angle_gamma    100.56

_space_group_name_H-M_alt    "P 1"
_space_group_IT_number       1

loop_
  _space_group_symop_operation_xyz
  'x, y, z'

loop_
  _atom_site_type_symbol
  _atom_site_label
  _atom_site_symmetry_multiplicity
  _atom_site_fract_x
  _atom_site_fract_y
  _atom_site_fract_z
  _atom_site_occupancy
  N   N1        1.0  0.58200  0.75400  0.41000  1.0000
  N   N2        1.0  0.39400  0.37000  0.41800  1.0000
  N   N3        1.0  0.42300  0.25000  0.59500  1.0000
  O   O1        1.0  0.29200  0.58300  0.00096  1.0000
  O   O2        1.0  0.91500  0.81600  0.01480  1.0000
  O   O3        1.0  0.31400  0.44300  0.18600  1.0000
  O   O4        1.0  0.94300  0.69600  0.19000  1.0000
  O   O5        1.0  0.14500  0.09690  0.19300  1.0000
  O   O6        1.0  0.97300  0.57000  0.37600  1.0000
  O   O7        1.0  0.17900  0.97200  0.38600  1.0000
  O   O8        1.0  0.79000  0.16200  0.41700  1.0000
  O   O9        1.0  0.60900  0.63400  0.58500  1.0000
  O   O10       1.0  0.21200  0.83700  0.58700  1.0000
  O   O11       1.0  0.82800  0.03150  0.62400  1.0000
  O   O12       1.0  0.03080  0.43300  0.62800  1.0000
  O   O13       1.0  0.85100  0.89700  0.80500  1.0000
  O   O14       1.0  0.05690  0.30600  0.80800  1.0000
  O   O15       1.0  0.68500  0.55900  0.81100  1.0000
  O   O16       1.0  0.08300  0.18400  0.98200  1.0000
  O   O17       1.0  0.70600  0.41500  0.99600  1.0000
  O   O18       1.0  0.50000  0.00153  0.99900  1.0000
  Ta  Ta1       1.0  0.44700  0.52700  0.36600  1.0000
  Ta  Ta2       1.0  0.07850  0.78800  0.36900  1.0000
  Ta  Ta3       1.0  0.26800  0.16400  0.37200  1.0000
  Ta  Ta4       1.0  0.54600  0.46600  0.62600  1.0000
  Ta  Ta5       1.0  0.73500  0.84300  0.62700  1.0000
  Ta  Ta6       1.0  0.92100  0.21300  0.62900  1.0000
  Ta  Ta7       1.0  0.18100  0.36600  0.99700  1.0000
  Ta  Ta8       1.0  0.81600  0.63200  0.99900  1.0000
  Ta  Ta9       1.0  0.00000  0.99900  0.99900  1.0000
