data_image0
_chemical_formula_structural       CuH12N10O8
_chemical_formula_sum              "Cu1 H12 N10 O8"
_cell_length_a       6.14909
_cell_length_b       7.05722
_cell_length_c       7.23176
_cell_angle_alpha    97.4313
_cell_angle_beta     111.661
_cell_angle_gamma    112.785

_space_group_name_H-M_alt    "P 1"
_space_group_IT_number       1

loop_
  _space_group_symop_operation_xyz
  'x, y, z'

loop_
  _atom_site_type_symbol
  _atom_site_label
  _atom_site_symmetry_multiplicity
  _atom_site_fract_x
  _atom_site_fract_y
  _atom_site_fract_z
  _atom_site_occupancy
  Cu  Cu1       1.0  0.00000  0.50000  0.00000  1.0000
  H   H1        1.0  0.84800  0.10300  0.01740  1.0000
  H   H2        1.0  0.74300  0.67200  0.07640  1.0000
  H   H3        1.0  0.71200  0.22500  0.10900  1.0000
  H   H4        1.0  0.02680  0.28900  0.25200  1.0000
  H   H5        1.0  0.04820  0.81000  0.26900  1.0000
  H   H6        1.0  0.84200  0.57500  0.27200  1.0000
  H   H7        1.0  0.15800  0.42500  0.72800  1.0000
  H   H8        1.0  0.95200  0.19000  0.73100  1.0000
  H   H9        1.0  0.97300  0.71100  0.74800  1.0000
  H   H10       1.0  0.28800  0.77500  0.89100  1.0000
  H   H11       1.0  0.25700  0.32800  0.92400  1.0000
  H   H12       1.0  0.15200  0.89700  0.98300  1.0000
  N   N1        1.0  0.88500  0.25000  0.10300  1.0000
  N   N2        1.0  0.89900  0.65600  0.17700  1.0000
  N   N3        1.0  0.50000  0.25800  0.33700  1.0000
  N   N4        1.0  0.60200  0.81700  0.39300  1.0000
  N   N5        1.0  0.32900  0.12600  0.39600  1.0000
  N   N6        1.0  0.67100  0.87400  0.60400  1.0000
  N   N7        1.0  0.39800  0.18300  0.60700  1.0000
  N   N8        1.0  0.50000  0.74200  0.66300  1.0000
  N   N9        1.0  0.10100  0.34400  0.82300  1.0000
  N   N10       1.0  0.11500  0.75000  0.89700  1.0000
  O   O1        1.0  0.40900  0.20500  0.13900  1.0000
  O   O2        1.0  0.45100  0.62800  0.27100  1.0000
  O   O3        1.0  0.72400  0.97000  0.34100  1.0000
  O   O4        1.0  0.72900  0.40600  0.45700  1.0000
  O   O5        1.0  0.27100  0.59400  0.54300  1.0000
  O   O6        1.0  0.27600  0.02980  0.65900  1.0000
  O   O7        1.0  0.54900  0.37200  0.72900  1.0000
  O   O8        1.0  0.59100  0.79500  0.86100  1.0000
