data_image0
_chemical_formula_structural       H8K2NiO16P4
_chemical_formula_sum              "H8 K2 Ni1 O16 P4"
_cell_length_a       6.71338
_cell_length_b       7.15731
_cell_length_c       7.3681
_cell_angle_alpha    80.3508
_cell_angle_beta     72.045
_cell_angle_gamma    83.1744

_space_group_name_H-M_alt    "P 1"
_space_group_IT_number       1

loop_
  _space_group_symop_operation_xyz
  'x, y, z'

loop_
  _atom_site_type_symbol
  _atom_site_label
  _atom_site_symmetry_multiplicity
  _atom_site_fract_x
  _atom_site_fract_y
  _atom_site_fract_z
  _atom_site_occupancy
  H   H1        1.0  0.06640  0.27700  0.06170  1.0000
  H   H2        1.0  0.62600  0.67200  0.14400  1.0000
  H   H3        1.0  0.61300  0.81800  0.29000  1.0000
  H   H4        1.0  0.24400  0.03980  0.47200  1.0000
  H   H5        1.0  0.75600  0.96000  0.52800  1.0000
  H   H6        1.0  0.38700  0.18200  0.71000  1.0000
  H   H7        1.0  0.37400  0.32800  0.85600  1.0000
  H   H8        1.0  0.93400  0.72300  0.93800  1.0000
  K   K1        1.0  0.10300  0.73200  0.30300  1.0000
  K   K2        1.0  0.89700  0.26800  0.69700  1.0000
  Ni  Ni1       1.0  0.50000  0.50000  0.50000  1.0000
  O   O1        1.0  0.94600  0.20200  0.04770  1.0000
  O   O2        1.0  0.23300  0.36600  0.07760  1.0000
  O   O3        1.0  0.56700  0.23100  0.13600  1.0000
  O   O4        1.0  0.54200  0.71100  0.27100  1.0000
  O   O5        1.0  0.22500  0.07750  0.33100  1.0000
  O   O6        1.0  0.73900  0.98600  0.33900  1.0000
  O   O7        1.0  0.75200  0.33600  0.35900  1.0000
  O   O8        1.0  0.29100  0.39300  0.40000  1.0000
  O   O9        1.0  0.70900  0.60700  0.60000  1.0000
  O   O10       1.0  0.24800  0.66400  0.64100  1.0000
  O   O11       1.0  0.26100  0.01450  0.66100  1.0000
  O   O12       1.0  0.77500  0.92200  0.66900  1.0000
  O   O13       1.0  0.45800  0.28900  0.72900  1.0000
  O   O14       1.0  0.43300  0.76900  0.86400  1.0000
  O   O15       1.0  0.76700  0.63400  0.92200  1.0000
  O   O16       1.0  0.05370  0.79800  0.95200  1.0000
  P   P1        1.0  0.75600  0.18900  0.23400  1.0000
  P   P2        1.0  0.32000  0.27400  0.24100  1.0000
  P   P3        1.0  0.68000  0.72600  0.75900  1.0000
  P   P4        1.0  0.24400  0.81100  0.76600  1.0000
