data_image0
_chemical_formula_structural       B2H2Mn4O18Si4Sn
_chemical_formula_sum              "B2 H2 Mn4 O18 Si4 Sn1"
_cell_length_a       6.97712
_cell_length_b       7.34576
_cell_length_c       7.64824
_cell_angle_alpha    89.6747
_cell_angle_beta     62.862
_cell_angle_gamma    76.8807

_space_group_name_H-M_alt    "P 1"
_space_group_IT_number       1

loop_
  _space_group_symop_operation_xyz
  'x, y, z'

loop_
  _atom_site_type_symbol
  _atom_site_label
  _atom_site_symmetry_multiplicity
  _atom_site_fract_x
  _atom_site_fract_y
  _atom_site_fract_z
  _atom_site_occupancy
  B   B1        1.0  0.74800  0.12100  0.43500  1.0000
  B   B2        1.0  0.25200  0.87900  0.56500  1.0000
  H   H1        1.0  0.33000  0.05240  0.33200  1.0000
  H   H2        1.0  0.67000  0.94800  0.66800  1.0000
  Mn  Mn1       1.0  0.19000  0.72600  0.26400  1.0000
  Mn  Mn2       1.0  0.69300  0.71400  0.26500  1.0000
  Mn  Mn3       1.0  0.30700  0.28600  0.73500  1.0000
  Mn  Mn4       1.0  0.81000  0.27400  0.73600  1.0000
  O   O1        1.0  0.72400  0.19200  0.02200  1.0000
  O   O2        1.0  0.12100  0.22300  0.03480  1.0000
  O   O3        1.0  0.51200  0.54600  0.20400  1.0000
  O   O4        1.0  0.29900  0.27200  0.26700  1.0000
  O   O5        1.0  0.98200  0.55200  0.26800  1.0000
  O   O6        1.0  0.85500  0.95300  0.29400  1.0000
  O   O7        1.0  0.35800  0.91800  0.35500  1.0000
  O   O8        1.0  0.56500  0.25100  0.41400  1.0000
  O   O9        1.0  0.91000  0.22700  0.42500  1.0000
  O   O10       1.0  0.09010  0.77300  0.57500  1.0000
  O   O11       1.0  0.43500  0.74900  0.58600  1.0000
  O   O12       1.0  0.64200  0.08220  0.64500  1.0000
  O   O13       1.0  0.14500  0.04740  0.70600  1.0000
  O   O14       1.0  0.01810  0.44800  0.73200  1.0000
  O   O15       1.0  0.70100  0.72800  0.73300  1.0000
  O   O16       1.0  0.48800  0.45400  0.79600  1.0000
  O   O17       1.0  0.87900  0.77700  0.96500  1.0000
  O   O18       1.0  0.27600  0.80800  0.97800  1.0000
  Si  Si1       1.0  0.53100  0.32600  0.22400  1.0000
  Si  Si2       1.0  0.07250  0.32800  0.24400  1.0000
  Si  Si3       1.0  0.92700  0.67200  0.75600  1.0000
  Si  Si4       1.0  0.46900  0.67400  0.77600  1.0000
  Sn  Sn1       1.0  0.00000  0.00000  0.00000  1.0000
