data_image0
_chemical_formula_structural       Cu5H2Mn2O18P4
_chemical_formula_sum              "Cu5 H2 Mn2 O18 P4"
_cell_length_a       8.80697
_cell_length_b       7.51859
_cell_length_c       5.32293
_cell_angle_alpha    101.259
_cell_angle_beta     95.9227
_cell_angle_gamma    108.559

_space_group_name_H-M_alt    "P 1"
_space_group_IT_number       1

loop_
  _space_group_symop_operation_xyz
  'x, y, z'

loop_
  _atom_site_type_symbol
  _atom_site_label
  _atom_site_symmetry_multiplicity
  _atom_site_fract_x
  _atom_site_fract_y
  _atom_site_fract_z
  _atom_site_occupancy
  Cu  Cu1       1.0  0.00000  0.00000  0.00000  1.0000
  Cu  Cu2       1.0  0.38700  0.47100  0.24500  1.0000
  Cu  Cu3       1.0  0.50200  0.10400  0.27000  1.0000
  Cu  Cu4       1.0  0.49800  0.89600  0.73000  1.0000
  Cu  Cu5       1.0  0.61300  0.52900  0.75500  1.0000
  H   H1        1.0  0.66300  0.43900  0.33500  1.0000
  H   H2        1.0  0.33700  0.56100  0.66500  1.0000
  Mn  Mn1       1.0  0.02260  0.71300  0.45400  1.0000
  Mn  Mn2       1.0  0.97700  0.28700  0.54600  1.0000
  O   O1        1.0  0.63900  0.13100  0.00153  1.0000
  O   O2        1.0  0.63200  0.68600  0.09850  1.0000
  O   O3        1.0  0.07520  0.80400  0.11200  1.0000
  O   O4        1.0  0.21900  0.58400  0.18900  1.0000
  O   O5        1.0  0.87500  0.00160  0.27600  1.0000
  O   O6        1.0  0.87100  0.40900  0.27900  1.0000
  O   O7        1.0  0.55800  0.37800  0.38900  1.0000
  O   O8        1.0  0.19700  0.25100  0.45700  1.0000
  O   O9        1.0  0.63000  0.95300  0.47200  1.0000
  O   O10       1.0  0.37000  0.04690  0.52800  1.0000
  O   O11       1.0  0.80300  0.74900  0.54300  1.0000
  O   O12       1.0  0.44200  0.62200  0.61100  1.0000
  O   O13       1.0  0.12900  0.59100  0.72100  1.0000
  O   O14       1.0  0.12500  0.99800  0.72400  1.0000
  O   O15       1.0  0.78100  0.41600  0.81100  1.0000
  O   O16       1.0  0.92500  0.19600  0.88800  1.0000
  O   O17       1.0  0.36800  0.31400  0.90100  1.0000
  O   O18       1.0  0.36100  0.86900  0.99800  1.0000
  P   P1        1.0  0.19800  0.71100  0.00502  1.0000
  P   P2        1.0  0.73300  0.84100  0.34400  1.0000
  P   P3        1.0  0.26700  0.15900  0.65600  1.0000
  P   P4        1.0  0.80200  0.28900  0.99500  1.0000
