data_image0
_chemical_formula_structural       B6Ir12Zn12
_chemical_formula_sum              "B6 Ir12 Zn12"
_cell_length_a       2.83492
_cell_length_b       10.2845
_cell_length_c       13.4503
_cell_angle_alpha    90
_cell_angle_beta     83.9506
_cell_angle_gamma    90

_space_group_name_H-M_alt    "P 1"
_space_group_IT_number       1

loop_
  _space_group_symop_operation_xyz
  'x, y, z'

loop_
  _atom_site_type_symbol
  _atom_site_label
  _atom_site_symmetry_multiplicity
  _atom_site_fract_x
  _atom_site_fract_y
  _atom_site_fract_z
  _atom_site_occupancy
  B   B1        1.0  0.95900  0.25000  0.08200  1.0000
  B   B2        1.0  0.86200  0.10600  0.27700  1.0000
  B   B3        1.0  0.86200  0.39400  0.27700  1.0000
  B   B4        1.0  0.13800  0.60600  0.72300  1.0000
  B   B5        1.0  0.13800  0.89400  0.72300  1.0000
  B   B6        1.0  0.04100  0.75000  0.91800  1.0000
  Ir  Ir1       1.0  0.48100  0.75000  0.03850  1.0000
  Ir  Ir2       1.0  0.42500  0.10900  0.14900  1.0000
  Ir  Ir3       1.0  0.42500  0.39100  0.14900  1.0000
  Ir  Ir4       1.0  0.33100  0.53100  0.33700  1.0000
  Ir  Ir5       1.0  0.33100  0.96900  0.33700  1.0000
  Ir  Ir6       1.0  0.32900  0.25000  0.34200  1.0000
  Ir  Ir7       1.0  0.67100  0.75000  0.65800  1.0000
  Ir  Ir8       1.0  0.66900  0.03070  0.66300  1.0000
  Ir  Ir9       1.0  0.66900  0.46900  0.66300  1.0000
  Ir  Ir10      1.0  0.57500  0.60900  0.85100  1.0000
  Ir  Ir11      1.0  0.57500  0.89100  0.85100  1.0000
  Ir  Ir12      1.0  0.51900  0.25000  0.96200  1.0000
  Zn  Zn1       1.0  0.00000  0.00000  0.00000  1.0000
  Zn  Zn2       1.0  0.00000  0.50000  0.00000  1.0000
  Zn  Zn3       1.0  0.91100  0.62000  0.17700  1.0000
  Zn  Zn4       1.0  0.91100  0.88000  0.17700  1.0000
  Zn  Zn5       1.0  0.81900  0.75000  0.36100  1.0000
  Zn  Zn6       1.0  0.76100  0.11100  0.47800  1.0000
  Zn  Zn7       1.0  0.76100  0.38900  0.47800  1.0000
  Zn  Zn8       1.0  0.23900  0.61100  0.52200  1.0000
  Zn  Zn9       1.0  0.23900  0.88900  0.52200  1.0000
  Zn  Zn10      1.0  0.18100  0.25000  0.63900  1.0000
  Zn  Zn11      1.0  0.08870  0.12000  0.82300  1.0000
  Zn  Zn12      1.0  0.08870  0.38000  0.82300  1.0000
