data_image0
_chemical_formula_structural       Ca4H2Na2O18Si6
_chemical_formula_sum              "Ca4 H2 Na2 O18 Si6"
_cell_length_a       7.93906
_cell_length_b       7.01375
_cell_length_c       6.98786
_cell_angle_alpha    90.485
_cell_angle_beta     95.0896
_cell_angle_gamma    102.544

_space_group_name_H-M_alt    "P 1"
_space_group_IT_number       1

loop_
  _space_group_symop_operation_xyz
  'x, y, z'

loop_
  _atom_site_type_symbol
  _atom_site_label
  _atom_site_symmetry_multiplicity
  _atom_site_fract_x
  _atom_site_fract_y
  _atom_site_fract_z
  _atom_site_occupancy
  Ca  Ca1       1.0  0.84800  0.08490  0.14000  1.0000
  Ca  Ca2       1.0  0.85600  0.59400  0.14300  1.0000
  Ca  Ca3       1.0  0.14400  0.40600  0.85700  1.0000
  Ca  Ca4       1.0  0.15200  0.91500  0.86000  1.0000
  H   H1        1.0  0.83800  0.35400  0.46500  1.0000
  H   H2        1.0  0.16200  0.64600  0.53500  1.0000
  Na  Na1       1.0  0.55300  0.25700  0.34600  1.0000
  Na  Na2       1.0  0.44700  0.74300  0.65400  1.0000
  O   O1        1.0  0.67000  0.29700  0.05570  1.0000
  O   O2        1.0  0.65800  0.78800  0.12200  1.0000
  O   O3        1.0  0.06390  0.38700  0.17200  1.0000
  O   O4        1.0  0.06040  0.89500  0.17600  1.0000
  O   O5        1.0  0.40500  0.53300  0.27500  1.0000
  O   O6        1.0  0.40100  0.91100  0.27700  1.0000
  O   O7        1.0  0.26400  0.18900  0.39300  1.0000
  O   O8        1.0  0.82400  0.15900  0.45500  1.0000
  O   O9        1.0  0.81600  0.50400  0.45700  1.0000
  O   O10       1.0  0.18400  0.49600  0.54300  1.0000
  O   O11       1.0  0.17600  0.84100  0.54500  1.0000
  O   O12       1.0  0.73600  0.81100  0.60700  1.0000
  O   O13       1.0  0.59900  0.08870  0.72300  1.0000
  O   O14       1.0  0.59500  0.46700  0.72500  1.0000
  O   O15       1.0  0.94000  0.10500  0.82400  1.0000
  O   O16       1.0  0.93600  0.61300  0.82800  1.0000
  O   O17       1.0  0.34200  0.21200  0.87800  1.0000
  O   O18       1.0  0.33000  0.70300  0.94400  1.0000
  Si  Si1       1.0  0.45300  0.73500  0.14500  1.0000
  Si  Si2       1.0  0.21900  0.40100  0.34000  1.0000
  Si  Si3       1.0  0.21500  0.95200  0.34700  1.0000
  Si  Si4       1.0  0.78500  0.04830  0.65300  1.0000
  Si  Si5       1.0  0.78100  0.59900  0.66000  1.0000
  Si  Si6       1.0  0.54700  0.26500  0.85500  1.0000
