data_image0
_chemical_formula_structural       Bi14Br16Pd
_chemical_formula_sum              "Bi14 Br16 Pd1"
_cell_length_a       11.0163
_cell_length_b       11.1698
_cell_length_c       11.2671
_cell_angle_alpha    118.428
_cell_angle_beta     108.572
_cell_angle_gamma    91.9803

_space_group_name_H-M_alt    "P 1"
_space_group_IT_number       1

loop_
  _space_group_symop_operation_xyz
  'x, y, z'

loop_
  _atom_site_type_symbol
  _atom_site_label
  _atom_site_symmetry_multiplicity
  _atom_site_fract_x
  _atom_site_fract_y
  _atom_site_fract_z
  _atom_site_occupancy
  Bi  Bi1       1.0  0.75000  0.10400  0.00511  1.0000
  Bi  Bi2       1.0  0.01270  0.30400  0.09170  1.0000
  Bi  Bi3       1.0  0.83200  0.88300  0.10200  1.0000
  Bi  Bi4       1.0  0.65400  0.60400  0.21600  1.0000
  Bi  Bi5       1.0  0.13800  0.93600  0.23600  1.0000
  Bi  Bi6       1.0  0.99400  0.19100  0.29700  1.0000
  Bi  Bi7       1.0  0.61900  0.33700  0.47000  1.0000
  Bi  Bi8       1.0  0.38100  0.66300  0.53000  1.0000
  Bi  Bi9       1.0  0.00599  0.80900  0.70300  1.0000
  Bi  Bi10      1.0  0.86200  0.06390  0.76400  1.0000
  Bi  Bi11      1.0  0.34600  0.39600  0.78400  1.0000
  Bi  Bi12      1.0  0.16800  0.11700  0.89800  1.0000
  Bi  Bi13      1.0  0.98700  0.69600  0.90800  1.0000
  Bi  Bi14      1.0  0.25000  0.89600  0.99500  1.0000
  Br  Br1       1.0  0.50700  0.69300  0.01990  1.0000
  Br  Br2       1.0  0.80200  0.52700  0.04710  1.0000
  Br  Br3       1.0  0.57400  0.07740  0.21600  1.0000
  Br  Br4       1.0  0.37300  0.38500  0.29500  1.0000
  Br  Br5       1.0  0.14000  0.67600  0.36500  1.0000
  Br  Br6       1.0  0.79400  0.48700  0.38900  1.0000
  Br  Br7       1.0  0.83500  0.85900  0.40000  1.0000
  Br  Br8       1.0  0.52100  0.78700  0.43400  1.0000
  Br  Br9       1.0  0.47900  0.21300  0.56600  1.0000
  Br  Br10      1.0  0.16500  0.14100  0.60000  1.0000
  Br  Br11      1.0  0.20600  0.51300  0.61100  1.0000
  Br  Br12      1.0  0.86000  0.32400  0.63500  1.0000
  Br  Br13      1.0  0.62700  0.61500  0.70500  1.0000
  Br  Br14      1.0  0.42600  0.92300  0.78400  1.0000
  Br  Br15      1.0  0.19800  0.47300  0.95300  1.0000
  Br  Br16      1.0  0.49300  0.30700  0.98000  1.0000
  Pd  Pd1       1.0  0.00000  0.00000  0.00000  1.0000
