data_image0
_chemical_formula_structural       H8K2O16P4Zn
_chemical_formula_sum              "H8 K2 O16 P4 Zn1"
_cell_length_a       6.73489
_cell_length_b       7.2392
_cell_length_c       7.43613
_cell_angle_alpha    80.1212
_cell_angle_beta     72.1941
_cell_angle_gamma    83.1232

_space_group_name_H-M_alt    "P 1"
_space_group_IT_number       1

loop_
  _space_group_symop_operation_xyz
  'x, y, z'

loop_
  _atom_site_type_symbol
  _atom_site_label
  _atom_site_symmetry_multiplicity
  _atom_site_fract_x
  _atom_site_fract_y
  _atom_site_fract_z
  _atom_site_occupancy
  H   H1        1.0  0.06150  0.27500  0.06220  1.0000
  H   H2        1.0  0.62800  0.67500  0.14000  1.0000
  H   H3        1.0  0.61400  0.81900  0.28500  1.0000
  H   H4        1.0  0.24700  0.04230  0.47200  1.0000
  H   H5        1.0  0.75300  0.95800  0.52800  1.0000
  H   H6        1.0  0.38600  0.18100  0.71500  1.0000
  H   H7        1.0  0.37200  0.32500  0.86000  1.0000
  H   H8        1.0  0.93900  0.72500  0.93800  1.0000
  K   K1        1.0  0.10400  0.73600  0.30300  1.0000
  K   K2        1.0  0.89600  0.26400  0.69700  1.0000
  O   O1        1.0  0.94200  0.20100  0.04860  1.0000
  O   O2        1.0  0.23000  0.36200  0.07950  1.0000
  O   O3        1.0  0.56300  0.23600  0.14000  1.0000
  O   O4        1.0  0.54400  0.71400  0.26500  1.0000
  O   O5        1.0  0.22700  0.07890  0.33400  1.0000
  O   O6        1.0  0.73600  0.98500  0.33600  1.0000
  O   O7        1.0  0.75400  0.33000  0.36100  1.0000
  O   O8        1.0  0.28400  0.39500  0.39900  1.0000
  O   O9        1.0  0.71600  0.60500  0.60100  1.0000
  O   O10       1.0  0.24600  0.67000  0.63900  1.0000
  O   O11       1.0  0.26400  0.01510  0.66400  1.0000
  O   O12       1.0  0.77300  0.92100  0.66600  1.0000
  O   O13       1.0  0.45600  0.28600  0.73500  1.0000
  O   O14       1.0  0.43700  0.76400  0.86000  1.0000
  O   O15       1.0  0.77000  0.63800  0.92000  1.0000
  O   O16       1.0  0.05780  0.79900  0.95100  1.0000
  P   P1        1.0  0.75400  0.18700  0.23500  1.0000
  P   P2        1.0  0.31600  0.27600  0.24300  1.0000
  P   P3        1.0  0.68400  0.72400  0.75700  1.0000
  P   P4        1.0  0.24600  0.81300  0.76500  1.0000
  Zn  Zn1       1.0  0.50000  0.50000  0.50000  1.0000
