data_image0
_chemical_formula_structural       Al2H8O16Se4
_chemical_formula_sum              "Al2 H8 O16 Se4"
_cell_length_a       7.34255
_cell_length_b       6.16747
_cell_length_c       7.14597
_cell_angle_alpha    90
_cell_angle_beta     104.586
_cell_angle_gamma    90

_space_group_name_H-M_alt    "P 1"
_space_group_IT_number       1

loop_
  _space_group_symop_operation_xyz
  'x, y, z'

loop_
  _atom_site_type_symbol
  _atom_site_label
  _atom_site_symmetry_multiplicity
  _atom_site_fract_x
  _atom_site_fract_y
  _atom_site_fract_z
  _atom_site_occupancy
  Al  Al1       1.0  0.50000  0.50000  0.00000  1.0000
  Al  Al2       1.0  0.00000  0.00000  0.50000  1.0000
  H   H1        1.0  0.27900  0.23500  0.09810  1.0000
  H   H2        1.0  0.03730  0.77400  0.22400  1.0000
  H   H3        1.0  0.46300  0.27400  0.27600  1.0000
  H   H4        1.0  0.22100  0.73500  0.40200  1.0000
  H   H5        1.0  0.77900  0.26500  0.59800  1.0000
  H   H6        1.0  0.53700  0.72600  0.72400  1.0000
  H   H7        1.0  0.96300  0.22600  0.77600  1.0000
  H   H8        1.0  0.72100  0.76500  0.90200  1.0000
  O   O1        1.0  0.05430  0.21400  0.01400  1.0000
  O   O2        1.0  0.29900  0.66900  0.04280  1.0000
  O   O3        1.0  0.41900  0.26000  0.13200  1.0000
  O   O4        1.0  0.65500  0.59000  0.23600  1.0000
  O   O5        1.0  0.84500  0.09020  0.26400  1.0000
  O   O6        1.0  0.08100  0.76000  0.36800  1.0000
  O   O7        1.0  0.20100  0.16900  0.45700  1.0000
  O   O8        1.0  0.44600  0.71400  0.48600  1.0000
  O   O9        1.0  0.55400  0.28600  0.51400  1.0000
  O   O10       1.0  0.79900  0.83100  0.54300  1.0000
  O   O11       1.0  0.91900  0.24000  0.63200  1.0000
  O   O12       1.0  0.15500  0.91000  0.73600  1.0000
  O   O13       1.0  0.34500  0.41000  0.76400  1.0000
  O   O14       1.0  0.58100  0.74000  0.86800  1.0000
  O   O15       1.0  0.70100  0.33100  0.95700  1.0000
  O   O16       1.0  0.94600  0.78600  0.98600  1.0000
  Se  Se1       1.0  0.90300  0.30900  0.14000  1.0000
  Se  Se2       1.0  0.59700  0.80900  0.36000  1.0000
  Se  Se3       1.0  0.40300  0.19100  0.64000  1.0000
  Se  Se4       1.0  0.09750  0.69100  0.86000  1.0000
