data_image0
_chemical_formula_structural       Na4O20Te4V4
_chemical_formula_sum              "Na4 O20 Te4 V4"
_cell_length_a       5.82885
_cell_length_b       11.0242
_cell_length_c       6.72618
_cell_angle_alpha    90
_cell_angle_beta     102.077
_cell_angle_gamma    90

_space_group_name_H-M_alt    "P 1"
_space_group_IT_number       1

loop_
  _space_group_symop_operation_xyz
  'x, y, z'

loop_
  _atom_site_type_symbol
  _atom_site_label
  _atom_site_symmetry_multiplicity
  _atom_site_fract_x
  _atom_site_fract_y
  _atom_site_fract_z
  _atom_site_occupancy
  Na  Na1       1.0  0.18600  0.70400  0.18300  1.0000
  Na  Na2       1.0  0.81400  0.20400  0.31700  1.0000
  Na  Na3       1.0  0.18600  0.79600  0.68300  1.0000
  Na  Na4       1.0  0.81400  0.29600  0.81700  1.0000
  O   O1        1.0  0.12500  0.90400  0.01710  1.0000
  O   O2        1.0  0.54300  0.29500  0.03990  1.0000
  O   O3        1.0  0.83900  0.55000  0.14200  1.0000
  O   O4        1.0  0.13600  0.28600  0.17600  1.0000
  O   O5        1.0  0.57100  0.99000  0.22000  1.0000
  O   O6        1.0  0.42900  0.49000  0.28000  1.0000
  O   O7        1.0  0.86400  0.78600  0.32400  1.0000
  O   O8        1.0  0.16100  0.04990  0.35800  1.0000
  O   O9        1.0  0.45700  0.79500  0.46000  1.0000
  O   O10       1.0  0.87500  0.40400  0.48300  1.0000
  O   O11       1.0  0.12500  0.59600  0.51700  1.0000
  O   O12       1.0  0.54300  0.20500  0.54000  1.0000
  O   O13       1.0  0.83900  0.95000  0.64200  1.0000
  O   O14       1.0  0.13600  0.21400  0.67600  1.0000
  O   O15       1.0  0.57100  0.51000  0.72000  1.0000
  O   O16       1.0  0.42900  0.00988  0.78000  1.0000
  O   O17       1.0  0.86400  0.71400  0.82400  1.0000
  O   O18       1.0  0.16100  0.45000  0.85800  1.0000
  O   O19       1.0  0.45700  0.70500  0.96000  1.0000
  O   O20       1.0  0.87500  0.09570  0.98300  1.0000
  Te  Te1       1.0  0.23400  0.06870  0.08740  1.0000
  Te  Te2       1.0  0.76600  0.56900  0.41300  1.0000
  Te  Te3       1.0  0.23400  0.43100  0.58700  1.0000
  Te  Te4       1.0  0.76600  0.93100  0.91300  1.0000
  V   V1        1.0  0.32500  0.38000  0.08980  1.0000
  V   V2        1.0  0.67500  0.88000  0.41000  1.0000
  V   V3        1.0  0.32500  0.12000  0.59000  1.0000
  V   V4        1.0  0.67500  0.62000  0.91000  1.0000
