data_image0
_chemical_formula_structural       B24C4Mg2
_chemical_formula_sum              "B24 C4 Mg2"
_cell_length_a       5.61111
_cell_length_b       6.90697
_cell_length_c       6.90697
_cell_angle_alpha    90.6238
_cell_angle_beta     113.966
_cell_angle_gamma    113.966

_space_group_name_H-M_alt    "P 1"
_space_group_IT_number       1

loop_
  _space_group_symop_operation_xyz
  'x, y, z'

loop_
  _atom_site_type_symbol
  _atom_site_label
  _atom_site_symmetry_multiplicity
  _atom_site_fract_x
  _atom_site_fract_y
  _atom_site_fract_z
  _atom_site_occupancy
  B   B1        1.0  0.32200  0.22400  0.09660  1.0000
  B   B2        1.0  0.99900  0.22400  0.09660  1.0000
  B   B3        1.0  0.31300  0.96700  0.13700  1.0000
  B   B4        1.0  0.79100  0.96700  0.13700  1.0000
  B   B5        1.0  0.97900  0.81200  0.14600  1.0000
  B   B6        1.0  0.18100  0.08760  0.27500  1.0000
  B   B7        1.0  0.00108  0.40300  0.27600  1.0000
  B   B8        1.0  0.67800  0.40300  0.27600  1.0000
  B   B9        1.0  0.97900  0.64600  0.31200  1.0000
  B   B10       1.0  0.81900  0.22500  0.41200  1.0000
  B   B11       1.0  0.31300  0.63700  0.46700  1.0000
  B   B12       1.0  0.79100  0.63700  0.46700  1.0000
  B   B13       1.0  0.20900  0.36300  0.53300  1.0000
  B   B14       1.0  0.68700  0.36300  0.53300  1.0000
  B   B15       1.0  0.18100  0.77500  0.58800  1.0000
  B   B16       1.0  0.02100  0.35400  0.68800  1.0000
  B   B17       1.0  0.32200  0.59700  0.72400  1.0000
  B   B18       1.0  0.99900  0.59700  0.72400  1.0000
  B   B19       1.0  0.81900  0.91200  0.72500  1.0000
  B   B20       1.0  0.02100  0.18800  0.85400  1.0000
  B   B21       1.0  0.20900  0.03310  0.86300  1.0000
  B   B22       1.0  0.68700  0.03310  0.86300  1.0000
  B   B23       1.0  0.00108  0.77600  0.90300  1.0000
  B   B24       1.0  0.67800  0.77600  0.90300  1.0000
  C   C1        1.0  0.62900  0.96700  0.29100  1.0000
  C   C2        1.0  0.62900  0.79100  0.46700  1.0000
  C   C3        1.0  0.37100  0.20900  0.53300  1.0000
  C   C4        1.0  0.37100  0.03310  0.70900  1.0000
  Mg  Mg1       1.0  0.36200  0.61200  0.11200  1.0000
  Mg  Mg2       1.0  0.63800  0.38800  0.88800  1.0000
