data_image0
_chemical_formula_structural       N6O22Rb2U2
_chemical_formula_sum              "N6 O22 Rb2 U2"
_cell_length_a       7.98737
_cell_length_b       7.98737
_cell_length_c       7.98737
_cell_angle_alpha    69.1827
_cell_angle_beta     110.817
_cell_angle_gamma    110.817

_space_group_name_H-M_alt    "P 1"
_space_group_IT_number       1

loop_
  _space_group_symop_operation_xyz
  'x, y, z'

loop_
  _atom_site_type_symbol
  _atom_site_label
  _atom_site_symmetry_multiplicity
  _atom_site_fract_x
  _atom_site_fract_y
  _atom_site_fract_z
  _atom_site_occupancy
  N   N1        1.0  0.57100  0.75000  0.07130  1.0000
  N   N2        1.0  0.07130  0.57100  0.25000  1.0000
  N   N3        1.0  0.25000  0.07130  0.42900  1.0000
  N   N4        1.0  0.75000  0.92900  0.57100  1.0000
  N   N5        1.0  0.92900  0.42900  0.75000  1.0000
  N   N6        1.0  0.42900  0.25000  0.92900  1.0000
  O   O1        1.0  0.42100  0.61600  0.07010  1.0000
  O   O2        1.0  0.43000  0.11600  0.07890  1.0000
  O   O3        1.0  0.92100  0.57000  0.11600  1.0000
  O   O4        1.0  0.84700  0.15300  0.15300  1.0000
  O   O5        1.0  0.70700  0.75000  0.20700  1.0000
  O   O6        1.0  0.20700  0.70700  0.25000  1.0000
  O   O7        1.0  0.25000  0.20700  0.29300  1.0000
  O   O8        1.0  0.65300  0.34700  0.34700  1.0000
  O   O9        1.0  0.07010  0.42100  0.38400  1.0000
  O   O10       1.0  0.61600  0.93000  0.42100  1.0000
  O   O11       1.0  0.11600  0.92100  0.43000  1.0000
  O   O12       1.0  0.88400  0.07890  0.57000  1.0000
  O   O13       1.0  0.38400  0.07010  0.57900  1.0000
  O   O14       1.0  0.93000  0.57900  0.61600  1.0000
  O   O15       1.0  0.34700  0.65300  0.65300  1.0000
  O   O16       1.0  0.75000  0.79300  0.70700  1.0000
  O   O17       1.0  0.79300  0.29300  0.75000  1.0000
  O   O18       1.0  0.29300  0.25000  0.79300  1.0000
  O   O19       1.0  0.15300  0.84700  0.84700  1.0000
  O   O20       1.0  0.07890  0.43000  0.88400  1.0000
  O   O21       1.0  0.57000  0.88400  0.92100  1.0000
  O   O22       1.0  0.57900  0.38400  0.93000  1.0000
  Rb  Rb1       1.0  0.00000  0.00000  0.00000  1.0000
  Rb  Rb2       1.0  0.50000  0.50000  0.50000  1.0000
  U   U1        1.0  0.75000  0.25000  0.25000  1.0000
  U   U2        1.0  0.25000  0.75000  0.75000  1.0000
