data_image0
_chemical_formula_structural       As2Cl26P2Ta2
_chemical_formula_sum              "As2 Cl26 P2 Ta2"
_cell_length_a       9.45561
_cell_length_b       9.45561
_cell_length_c       11.6445
_cell_angle_alpha    90
_cell_angle_beta     90
_cell_angle_gamma    115.274

_space_group_name_H-M_alt    "P 1"
_space_group_IT_number       1

loop_
  _space_group_symop_operation_xyz
  'x, y, z'

loop_
  _atom_site_type_symbol
  _atom_site_label
  _atom_site_symmetry_multiplicity
  _atom_site_fract_x
  _atom_site_fract_y
  _atom_site_fract_z
  _atom_site_occupancy
  As  As1       1.0  0.54800  0.45200  0.15200  1.0000
  As  As2       1.0  0.45200  0.54800  0.65200  1.0000
  Cl  Cl1       1.0  0.91600  0.08400  0.12000  1.0000
  Cl  Cl2       1.0  0.56900  0.09940  0.12200  1.0000
  Cl  Cl3       1.0  0.90100  0.43100  0.12200  1.0000
  Cl  Cl4       1.0  0.29400  0.37500  0.13200  1.0000
  Cl  Cl5       1.0  0.62500  0.70600  0.13200  1.0000
  Cl  Cl6       1.0  0.13900  0.86100  0.13400  1.0000
  Cl  Cl7       1.0  0.55300  0.44700  0.34300  1.0000
  Cl  Cl8       1.0  0.31000  0.02080  0.38600  1.0000
  Cl  Cl9       1.0  0.97900  0.69000  0.38600  1.0000
  Cl  Cl10      1.0  0.32700  0.67300  0.38800  1.0000
  Cl  Cl11      1.0  0.07090  0.24400  0.40700  1.0000
  Cl  Cl12      1.0  0.75600  0.92900  0.40700  1.0000
  Cl  Cl13      1.0  0.74000  0.26000  0.41700  1.0000
  Cl  Cl14      1.0  0.08400  0.91600  0.62000  1.0000
  Cl  Cl15      1.0  0.09940  0.56900  0.62200  1.0000
  Cl  Cl16      1.0  0.43100  0.90100  0.62200  1.0000
  Cl  Cl17      1.0  0.37500  0.29400  0.63200  1.0000
  Cl  Cl18      1.0  0.70600  0.62500  0.63200  1.0000
  Cl  Cl19      1.0  0.86100  0.13900  0.63400  1.0000
  Cl  Cl20      1.0  0.44700  0.55300  0.84300  1.0000
  Cl  Cl21      1.0  0.02080  0.31000  0.88600  1.0000
  Cl  Cl22      1.0  0.69000  0.97900  0.88600  1.0000
  Cl  Cl23      1.0  0.67300  0.32700  0.88800  1.0000
  Cl  Cl24      1.0  0.24400  0.07090  0.90700  1.0000
  Cl  Cl25      1.0  0.92900  0.75600  0.90700  1.0000
  Cl  Cl26      1.0  0.26000  0.74000  0.91700  1.0000
  P   P1        1.0  0.85700  0.14300  0.46600  1.0000
  P   P2        1.0  0.14300  0.85700  0.96600  1.0000
  Ta  Ta1       1.0  0.79500  0.20500  0.00131  1.0000
  Ta  Ta2       1.0  0.20500  0.79500  0.50100  1.0000
