data_image0
_chemical_formula_structural       As12Eu12O4Ta4
_chemical_formula_sum              "As12 Eu12 O4 Ta4"
_cell_length_a       6.28337
_cell_length_b       10.5306
_cell_length_c       12.6903
_cell_angle_alpha    90
_cell_angle_beta     90
_cell_angle_gamma    90

_space_group_name_H-M_alt    "P 1"
_space_group_IT_number       1

loop_
  _space_group_symop_operation_xyz
  'x, y, z'

loop_
  _atom_site_type_symbol
  _atom_site_label
  _atom_site_symmetry_multiplicity
  _atom_site_fract_x
  _atom_site_fract_y
  _atom_site_fract_z
  _atom_site_occupancy
  As  As1       1.0  0.26300  0.04340  0.12500  1.0000
  As  As2       1.0  0.26300  0.45700  0.12500  1.0000
  As  As3       1.0  0.76500  0.75000  0.13900  1.0000
  As  As4       1.0  0.26500  0.75000  0.36100  1.0000
  As  As5       1.0  0.76300  0.04340  0.37500  1.0000
  As  As6       1.0  0.76300  0.45700  0.37500  1.0000
  As  As7       1.0  0.23700  0.54300  0.62500  1.0000
  As  As8       1.0  0.23700  0.95700  0.62500  1.0000
  As  As9       1.0  0.73500  0.25000  0.63900  1.0000
  As  As10      1.0  0.23500  0.25000  0.86100  1.0000
  As  As11      1.0  0.73700  0.54300  0.87500  1.0000
  As  As12      1.0  0.73700  0.95700  0.87500  1.0000
  Eu  Eu1       1.0  0.27000  0.75000  0.12500  1.0000
  Eu  Eu2       1.0  0.75400  0.04480  0.12700  1.0000
  Eu  Eu3       1.0  0.75400  0.45500  0.12700  1.0000
  Eu  Eu4       1.0  0.25400  0.04480  0.37300  1.0000
  Eu  Eu5       1.0  0.25400  0.45500  0.37300  1.0000
  Eu  Eu6       1.0  0.77000  0.75000  0.37500  1.0000
  Eu  Eu7       1.0  0.23000  0.25000  0.62500  1.0000
  Eu  Eu8       1.0  0.74600  0.54500  0.62700  1.0000
  Eu  Eu9       1.0  0.74600  0.95500  0.62700  1.0000
  Eu  Eu10      1.0  0.24600  0.54500  0.87300  1.0000
  Eu  Eu11      1.0  0.24600  0.95500  0.87300  1.0000
  Eu  Eu12      1.0  0.73000  0.25000  0.87500  1.0000
  O   O1        1.0  0.85600  0.25000  0.05600  1.0000
  O   O2        1.0  0.35600  0.25000  0.44400  1.0000
  O   O3        1.0  0.64400  0.75000  0.55600  1.0000
  O   O4        1.0  0.14400  0.75000  0.94400  1.0000
  Ta  Ta1       1.0  0.15900  0.25000  0.04940  1.0000
  Ta  Ta2       1.0  0.65900  0.25000  0.45100  1.0000
  Ta  Ta3       1.0  0.34100  0.75000  0.54900  1.0000
  Ta  Ta4       1.0  0.84100  0.75000  0.95100  1.0000
