data_image0
_chemical_formula_structural       Ge4Pb4S16Tl8
_chemical_formula_sum              "Ge4 Pb4 S16 Tl8"
_cell_length_a       9.10111
_cell_length_b       9.21017
_cell_length_c       10.7153
_cell_angle_alpha    90
_cell_angle_beta     94.3033
_cell_angle_gamma    90

_space_group_name_H-M_alt    "P 1"
_space_group_IT_number       1

loop_
  _space_group_symop_operation_xyz
  'x, y, z'

loop_
  _atom_site_type_symbol
  _atom_site_label
  _atom_site_symmetry_multiplicity
  _atom_site_fract_x
  _atom_site_fract_y
  _atom_site_fract_z
  _atom_site_occupancy
  Ge  Ge1       1.0  0.29400  0.52800  0.26200  1.0000
  Ge  Ge2       1.0  0.79400  0.97200  0.26200  1.0000
  Ge  Ge3       1.0  0.20600  0.02760  0.73800  1.0000
  Ge  Ge4       1.0  0.70600  0.47200  0.73800  1.0000
  Pb  Pb1       1.0  0.60600  0.69100  0.44600  1.0000
  Pb  Pb2       1.0  0.10600  0.80900  0.44600  1.0000
  Pb  Pb3       1.0  0.89400  0.19100  0.55400  1.0000
  Pb  Pb4       1.0  0.39400  0.30900  0.55400  1.0000
  S   S1        1.0  0.67700  0.03260  0.08170  1.0000
  S   S2        1.0  0.17700  0.46700  0.08170  1.0000
  S   S3        1.0  0.82000  0.72700  0.26800  1.0000
  S   S4        1.0  0.32000  0.77300  0.26800  1.0000
  S   S5        1.0  0.02080  0.06250  0.29700  1.0000
  S   S6        1.0  0.52100  0.43800  0.29700  1.0000
  S   S7        1.0  0.66000  0.02960  0.42300  1.0000
  S   S8        1.0  0.16000  0.47000  0.42300  1.0000
  S   S9        1.0  0.84000  0.53000  0.57700  1.0000
  S   S10       1.0  0.34000  0.97000  0.57700  1.0000
  S   S11       1.0  0.47900  0.56200  0.70300  1.0000
  S   S12       1.0  0.97900  0.93800  0.70300  1.0000
  S   S13       1.0  0.68000  0.22700  0.73200  1.0000
  S   S14       1.0  0.18000  0.27300  0.73200  1.0000
  S   S15       1.0  0.32300  0.96700  0.91800  1.0000
  S   S16       1.0  0.82300  0.53300  0.91800  1.0000
  Tl  Tl1       1.0  0.57000  0.69500  0.05860  1.0000
  Tl  Tl2       1.0  0.06960  0.80500  0.05860  1.0000
  Tl  Tl3       1.0  0.91100  0.39300  0.22900  1.0000
  Tl  Tl4       1.0  0.41100  0.10700  0.22900  1.0000
  Tl  Tl5       1.0  0.58900  0.89300  0.77100  1.0000
  Tl  Tl6       1.0  0.08860  0.60700  0.77100  1.0000
  Tl  Tl7       1.0  0.43000  0.30500  0.94100  1.0000
  Tl  Tl8       1.0  0.93000  0.19500  0.94100  1.0000
