data_image0
_chemical_formula_structural       C4Cl12S14
_chemical_formula_sum              "C4 Cl12 S14"
_cell_length_a       6.13427
_cell_length_b       12.6297
_cell_length_c       13.3113
_cell_angle_alpha    102.661
_cell_angle_beta     94.589
_cell_angle_gamma    66.454

_space_group_name_H-M_alt    "P 1"
_space_group_IT_number       1

loop_
  _space_group_symop_operation_xyz
  'x, y, z'

loop_
  _atom_site_type_symbol
  _atom_site_label
  _atom_site_symmetry_multiplicity
  _atom_site_fract_x
  _atom_site_fract_y
  _atom_site_fract_z
  _atom_site_occupancy
  C   C1        1.0  0.48600  0.95300  0.17800  1.0000
  C   C2        1.0  0.53500  0.46000  0.18400  1.0000
  C   C3        1.0  0.46500  0.54000  0.81600  1.0000
  C   C4        1.0  0.51400  0.04730  0.82200  1.0000
  Cl  Cl1       1.0  0.72400  0.82700  0.11300  1.0000
  Cl  Cl2       1.0  0.77000  0.32800  0.12500  1.0000
  Cl  Cl3       1.0  0.20800  0.95500  0.12500  1.0000
  Cl  Cl4       1.0  0.54300  0.58400  0.14300  1.0000
  Cl  Cl5       1.0  0.26000  0.44700  0.15200  1.0000
  Cl  Cl6       1.0  0.52200  0.08170  0.16600  1.0000
  Cl  Cl7       1.0  0.47800  0.91800  0.83400  1.0000
  Cl  Cl8       1.0  0.74000  0.55300  0.84800  1.0000
  Cl  Cl9       1.0  0.45700  0.41600  0.85700  1.0000
  Cl  Cl10      1.0  0.79200  0.04520  0.87500  1.0000
  Cl  Cl11      1.0  0.23000  0.67200  0.87500  1.0000
  Cl  Cl12      1.0  0.27600  0.17300  0.88700  1.0000
  S   S1        1.0  0.45400  0.94800  0.31400  1.0000
  S   S2        1.0  0.57400  0.49800  0.32500  1.0000
  S   S3        1.0  0.00399  0.77400  0.37000  1.0000
  S   S4        1.0  0.91700  0.23700  0.37800  1.0000
  S   S5        1.0  0.56800  0.36100  0.37900  1.0000
  S   S6        1.0  0.76300  0.94800  0.38200  1.0000
  S   S7        1.0  0.92600  0.71200  0.48800  1.0000
  S   S8        1.0  0.07440  0.28800  0.51200  1.0000
  S   S9        1.0  0.23700  0.05180  0.61800  1.0000
  S   S10       1.0  0.43200  0.63900  0.62100  1.0000
  S   S11       1.0  0.08270  0.76300  0.62200  1.0000
  S   S12       1.0  0.99600  0.22600  0.63000  1.0000
  S   S13       1.0  0.42600  0.50200  0.67500  1.0000
  S   S14       1.0  0.54600  0.05190  0.68600  1.0000
