data_image0
_chemical_formula_structural       Be4Ca4F4O16P4
_chemical_formula_sum              "Be4 Ca4 F4 O16 P4"
_cell_length_a       9.69706
_cell_length_b       7.61612
_cell_length_c       4.70739
_cell_angle_alpha    90
_cell_angle_beta     90.9121
_cell_angle_gamma    90

_space_group_name_H-M_alt    "P 1"
_space_group_IT_number       1

loop_
  _space_group_symop_operation_xyz
  'x, y, z'

loop_
  _atom_site_type_symbol
  _atom_site_label
  _atom_site_symmetry_multiplicity
  _atom_site_fract_x
  _atom_site_fract_y
  _atom_site_fract_z
  _atom_site_occupancy
  Be  Be1       1.0  0.16100  0.91500  0.45300  1.0000
  Be  Be2       1.0  0.66100  0.58500  0.45300  1.0000
  Be  Be3       1.0  0.83900  0.08490  0.54700  1.0000
  Be  Be4       1.0  0.33900  0.41500  0.54700  1.0000
  Ca  Ca1       1.0  0.17100  0.61400  0.00447  1.0000
  Ca  Ca2       1.0  0.67100  0.88600  0.00447  1.0000
  Ca  Ca3       1.0  0.32900  0.11400  0.99600  1.0000
  Ca  Ca4       1.0  0.82900  0.38600  0.99600  1.0000
  F   F1        1.0  0.32700  0.40900  0.21400  1.0000
  F   F2        1.0  0.82700  0.09130  0.21400  1.0000
  F   F3        1.0  0.17300  0.90900  0.78600  1.0000
  F   F4        1.0  0.67300  0.59100  0.78600  1.0000
  O   O1        1.0  0.03860  0.40300  0.24700  1.0000
  O   O2        1.0  0.53900  0.09700  0.24700  1.0000
  O   O3        1.0  0.30700  0.84700  0.31300  1.0000
  O   O4        1.0  0.80700  0.65300  0.31300  1.0000
  O   O5        1.0  0.14700  0.11000  0.33400  1.0000
  O   O6        1.0  0.64700  0.39000  0.33400  1.0000
  O   O7        1.0  0.04380  0.78300  0.34300  1.0000
  O   O8        1.0  0.54400  0.71700  0.34300  1.0000
  O   O9        1.0  0.45600  0.28300  0.65700  1.0000
  O   O10       1.0  0.95600  0.21700  0.65700  1.0000
  O   O11       1.0  0.85300  0.89000  0.66600  1.0000
  O   O12       1.0  0.35300  0.61000  0.66600  1.0000
  O   O13       1.0  0.69300  0.15300  0.68700  1.0000
  O   O14       1.0  0.19300  0.34700  0.68700  1.0000
  O   O15       1.0  0.46100  0.90300  0.75300  1.0000
  O   O16       1.0  0.96100  0.59700  0.75300  1.0000
  P   P1        1.0  0.58100  0.22700  0.47700  1.0000
  P   P2        1.0  0.08100  0.27300  0.47700  1.0000
  P   P3        1.0  0.41900  0.77300  0.52300  1.0000
  P   P4        1.0  0.91900  0.72700  0.52300  1.0000
