data_image0
_chemical_formula_structural       Cl16Hg12O4
_chemical_formula_sum              "Cl16 Hg12 O4"
_cell_length_a       9.44228
_cell_length_b       9.44228
_cell_length_c       9.44228
_cell_angle_alpha    90
_cell_angle_beta     90
_cell_angle_gamma    90

_space_group_name_H-M_alt    "P 1"
_space_group_IT_number       1

loop_
  _space_group_symop_operation_xyz
  'x, y, z'

loop_
  _atom_site_type_symbol
  _atom_site_label
  _atom_site_symmetry_multiplicity
  _atom_site_fract_x
  _atom_site_fract_y
  _atom_site_fract_z
  _atom_site_occupancy
  Cl  Cl1       1.0  0.33800  0.30600  0.02560  1.0000
  Cl  Cl2       1.0  0.57100  0.92900  0.07090  1.0000
  Cl  Cl3       1.0  0.69400  0.52600  0.16200  1.0000
  Cl  Cl4       1.0  0.97400  0.83800  0.19400  1.0000
  Cl  Cl5       1.0  0.02560  0.33800  0.30600  1.0000
  Cl  Cl6       1.0  0.30600  0.02560  0.33800  1.0000
  Cl  Cl7       1.0  0.42900  0.42900  0.42900  1.0000
  Cl  Cl8       1.0  0.66200  0.80600  0.47400  1.0000
  Cl  Cl9       1.0  0.16200  0.69400  0.52600  1.0000
  Cl  Cl10      1.0  0.92900  0.07090  0.57100  1.0000
  Cl  Cl11      1.0  0.80600  0.47400  0.66200  1.0000
  Cl  Cl12      1.0  0.52600  0.16200  0.69400  1.0000
  Cl  Cl13      1.0  0.47400  0.66200  0.80600  1.0000
  Cl  Cl14      1.0  0.19400  0.97400  0.83800  1.0000
  Cl  Cl15      1.0  0.07090  0.57100  0.92900  1.0000
  Cl  Cl16      1.0  0.83800  0.19400  0.97400  1.0000
  Hg  Hg1       1.0  0.27000  0.82100  0.01630  1.0000
  Hg  Hg2       1.0  0.51600  0.23000  0.17900  1.0000
  Hg  Hg3       1.0  0.17900  0.51600  0.23000  1.0000
  Hg  Hg4       1.0  0.82100  0.01630  0.27000  1.0000
  Hg  Hg5       1.0  0.48400  0.73000  0.32100  1.0000
  Hg  Hg6       1.0  0.73000  0.32100  0.48400  1.0000
  Hg  Hg7       1.0  0.23000  0.17900  0.51600  1.0000
  Hg  Hg8       1.0  0.98400  0.77000  0.67900  1.0000
  Hg  Hg9       1.0  0.32100  0.48400  0.73000  1.0000
  Hg  Hg10      1.0  0.67900  0.98400  0.77000  1.0000
  Hg  Hg11      1.0  0.01630  0.27000  0.82100  1.0000
  Hg  Hg12      1.0  0.77000  0.67900  0.98400  1.0000
  O   O1        1.0  0.32500  0.67500  0.17500  1.0000
  O   O2        1.0  0.67500  0.17500  0.32500  1.0000
  O   O3        1.0  0.17500  0.32500  0.67500  1.0000
  O   O4        1.0  0.82500  0.82500  0.82500  1.0000
