data_image0
_chemical_formula_structural       Ba6Cu2O18Ru4
_chemical_formula_sum              "Ba6 Cu2 O18 Ru4"
_cell_length_a       5.69362
_cell_length_b       5.82858
_cell_length_c       14.2221
_cell_angle_alpha    90
_cell_angle_beta     90
_cell_angle_gamma    60.763

_space_group_name_H-M_alt    "P 1"
_space_group_IT_number       1

loop_
  _space_group_symop_operation_xyz
  'x, y, z'

loop_
  _atom_site_type_symbol
  _atom_site_label
  _atom_site_symmetry_multiplicity
  _atom_site_fract_x
  _atom_site_fract_y
  _atom_site_fract_z
  _atom_site_occupancy
  Ba  Ba1       1.0  0.67500  0.65000  0.09240  1.0000
  Ba  Ba2       1.0  0.01470  0.97100  0.25000  1.0000
  Ba  Ba3       1.0  0.67500  0.65000  0.40800  1.0000
  Ba  Ba4       1.0  0.32500  0.35000  0.59200  1.0000
  Ba  Ba5       1.0  0.98500  0.02950  0.75000  1.0000
  Ba  Ba6       1.0  0.32500  0.35000  0.90800  1.0000
  Cu  Cu1       1.0  0.00000  0.00000  0.00000  1.0000
  Cu  Cu2       1.0  0.00000  0.00000  0.50000  1.0000
  O   O1        1.0  0.19000  0.62000  0.08210  1.0000
  O   O2        1.0  0.17600  0.13900  0.08700  1.0000
  O   O3        1.0  0.68500  0.13900  0.08700  1.0000
  O   O4        1.0  0.04320  0.45500  0.25000  1.0000
  O   O5        1.0  0.50200  0.45500  0.25000  1.0000
  O   O6        1.0  0.50100  0.99800  0.25000  1.0000
  O   O7        1.0  0.17600  0.13900  0.41300  1.0000
  O   O8        1.0  0.68500  0.13900  0.41300  1.0000
  O   O9        1.0  0.19000  0.62000  0.41800  1.0000
  O   O10       1.0  0.81000  0.38000  0.58200  1.0000
  O   O11       1.0  0.31500  0.86100  0.58700  1.0000
  O   O12       1.0  0.82400  0.86100  0.58700  1.0000
  O   O13       1.0  0.49900  0.00166  0.75000  1.0000
  O   O14       1.0  0.49800  0.54500  0.75000  1.0000
  O   O15       1.0  0.95700  0.54500  0.75000  1.0000
  O   O16       1.0  0.31500  0.86100  0.91300  1.0000
  O   O17       1.0  0.82400  0.86100  0.91300  1.0000
  O   O18       1.0  0.81000  0.38000  0.91800  1.0000
  Ru  Ru1       1.0  0.34800  0.30400  0.15300  1.0000
  Ru  Ru2       1.0  0.34800  0.30400  0.34700  1.0000
  Ru  Ru3       1.0  0.65200  0.69600  0.65300  1.0000
  Ru  Ru4       1.0  0.65200  0.69600  0.84700  1.0000
