data_image0
_chemical_formula_structural       Ba2O21Ta6Te2
_chemical_formula_sum              "Ba2 O21 Ta6 Te2"
_cell_length_a       5.69045
_cell_length_b       8.86549
_cell_length_c       9.62951
_cell_angle_alpha    96.4203
_cell_angle_beta     90
_cell_angle_gamma    108.719

_space_group_name_H-M_alt    "P 1"
_space_group_IT_number       1

loop_
  _space_group_symop_operation_xyz
  'x, y, z'

loop_
  _atom_site_type_symbol
  _atom_site_label
  _atom_site_symmetry_multiplicity
  _atom_site_fract_x
  _atom_site_fract_y
  _atom_site_fract_z
  _atom_site_occupancy
  Ba  Ba1       1.0  0.86200  0.72500  0.47500  1.0000
  Ba  Ba2       1.0  0.13800  0.27500  0.52500  1.0000
  O   O1        1.0  0.00000  0.00000  0.00000  1.0000
  O   O2        1.0  0.39400  0.29100  0.05380  1.0000
  O   O3        1.0  0.89700  0.29100  0.05380  1.0000
  O   O4        1.0  0.79100  0.58100  0.15200  1.0000
  O   O5        1.0  0.17600  0.86800  0.22100  1.0000
  O   O6        1.0  0.69200  0.86800  0.22100  1.0000
  O   O7        1.0  0.58200  0.16500  0.28100  1.0000
  O   O8        1.0  0.45800  0.43700  0.33100  1.0000
  O   O9        1.0  0.97800  0.43700  0.33100  1.0000
  O   O10       1.0  0.35800  0.71600  0.39900  1.0000
  O   O11       1.0  0.27500  0.00000  0.50000  1.0000
  O   O12       1.0  0.72500  0.00000  0.50000  1.0000
  O   O13       1.0  0.64200  0.28400  0.60100  1.0000
  O   O14       1.0  0.02180  0.56300  0.66900  1.0000
  O   O15       1.0  0.54200  0.56300  0.66900  1.0000
  O   O16       1.0  0.41800  0.83500  0.71900  1.0000
  O   O17       1.0  0.30800  0.13200  0.77900  1.0000
  O   O18       1.0  0.82400  0.13200  0.77900  1.0000
  O   O19       1.0  0.20900  0.41900  0.84800  1.0000
  O   O20       1.0  0.10300  0.70900  0.94600  1.0000
  O   O21       1.0  0.60600  0.70900  0.94600  1.0000
  Ta  Ta1       1.0  0.90000  0.80000  0.08050  1.0000
  Ta  Ta2       1.0  0.67700  0.35300  0.17500  1.0000
  Ta  Ta3       1.0  0.47900  0.95800  0.33600  1.0000
  Ta  Ta4       1.0  0.52100  0.04210  0.66400  1.0000
  Ta  Ta5       1.0  0.32300  0.64700  0.82500  1.0000
  Ta  Ta6       1.0  0.09980  0.20000  0.92000  1.0000
  Te  Te1       1.0  0.27600  0.55200  0.24600  1.0000
  Te  Te2       1.0  0.72400  0.44800  0.75400  1.0000
