data_image0
_chemical_formula_structural       Ba6Ir4La2O18
_chemical_formula_sum              "Ba6 Ir4 La2 O18"
_cell_length_a       5.90445
_cell_length_b       5.90445
_cell_length_c       14.9543
_cell_angle_alpha    89.6205
_cell_angle_beta     90.3795
_cell_angle_gamma    60.0055

_space_group_name_H-M_alt    "P 1"
_space_group_IT_number       1

loop_
  _space_group_symop_operation_xyz
  'x, y, z'

loop_
  _atom_site_type_symbol
  _atom_site_label
  _atom_site_symmetry_multiplicity
  _atom_site_fract_x
  _atom_site_fract_y
  _atom_site_fract_z
  _atom_site_occupancy
  Ba  Ba1       1.0  0.33800  0.33000  0.09880  1.0000
  Ba  Ba2       1.0  0.33000  0.33800  0.40100  1.0000
  Ba  Ba3       1.0  0.66200  0.67000  0.90100  1.0000
  Ba  Ba4       1.0  0.67000  0.66200  0.59900  1.0000
  Ba  Ba5       1.0  0.00000  0.00000  0.25000  1.0000
  Ba  Ba6       1.0  0.00048  0.00047  0.75000  1.0000
  Ir  Ir1       1.0  0.32600  0.34000  0.83300  1.0000
  Ir  Ir2       1.0  0.34000  0.32600  0.66700  1.0000
  Ir  Ir3       1.0  0.67400  0.66000  0.16700  1.0000
  Ir  Ir4       1.0  0.66000  0.67400  0.33300  1.0000
  La  La1       1.0  0.00000  0.00000  0.00000  1.0000
  La  La2       1.0  0.00000  1.00000  0.50000  1.0000
  O   O1        1.0  0.83700  0.34300  0.09640  1.0000
  O   O2        1.0  0.34300  0.83700  0.40400  1.0000
  O   O3        1.0  0.16300  0.65700  0.90400  1.0000
  O   O4        1.0  0.65700  0.16300  0.59600  1.0000
  O   O5        1.0  0.37500  0.80800  0.08550  1.0000
  O   O6        1.0  0.80800  0.37500  0.41500  1.0000
  O   O7        1.0  0.62500  0.19200  0.91500  1.0000
  O   O8        1.0  0.19200  0.62500  0.58500  1.0000
  O   O9        1.0  0.83700  0.80800  0.09290  1.0000
  O   O10       1.0  0.80800  0.83700  0.40700  1.0000
  O   O11       1.0  0.16300  0.19200  0.90700  1.0000
  O   O12       1.0  0.19200  0.16300  0.59300  1.0000
  O   O13       1.0  0.50400  0.98900  0.24600  1.0000
  O   O14       1.0  0.98900  0.50400  0.25400  1.0000
  O   O15       1.0  0.49600  0.01100  0.75400  1.0000
  O   O16       1.0  0.01100  0.49600  0.74600  1.0000
  O   O17       1.0  0.50500  0.50500  0.25000  1.0000
  O   O18       1.0  0.49500  0.49500  0.75000  1.0000
