data_image0
_chemical_formula_structural       Br28P4
_chemical_formula_sum              "Br28 P4"
_cell_length_a       9.49669
_cell_length_b       8.48894
_cell_length_c       15.079
_cell_angle_alpha    90
_cell_angle_beta     90
_cell_angle_gamma    90

_space_group_name_H-M_alt    "P 1"
_space_group_IT_number       1

loop_
  _space_group_symop_operation_xyz
  'x, y, z'

loop_
  _atom_site_type_symbol
  _atom_site_label
  _atom_site_symmetry_multiplicity
  _atom_site_fract_x
  _atom_site_fract_y
  _atom_site_fract_z
  _atom_site_occupancy
  Br  Br1       1.0  0.38800  0.75000  0.02740  1.0000
  Br  Br2       1.0  0.91900  0.25000  0.07480  1.0000
  Br  Br3       1.0  0.23900  0.03590  0.10300  1.0000
  Br  Br4       1.0  0.23900  0.46400  0.10300  1.0000
  Br  Br5       1.0  0.64400  0.75000  0.12700  1.0000
  Br  Br6       1.0  0.87200  0.75000  0.19900  1.0000
  Br  Br7       1.0  0.58600  0.25000  0.21400  1.0000
  Br  Br8       1.0  0.08590  0.25000  0.28600  1.0000
  Br  Br9       1.0  0.37200  0.75000  0.30100  1.0000
  Br  Br10      1.0  0.14400  0.75000  0.37300  1.0000
  Br  Br11      1.0  0.73900  0.03590  0.39700  1.0000
  Br  Br12      1.0  0.73900  0.46400  0.39700  1.0000
  Br  Br13      1.0  0.41900  0.25000  0.42500  1.0000
  Br  Br14      1.0  0.88800  0.75000  0.47300  1.0000
  Br  Br15      1.0  0.11200  0.25000  0.52700  1.0000
  Br  Br16      1.0  0.58100  0.75000  0.57500  1.0000
  Br  Br17      1.0  0.26100  0.53600  0.60300  1.0000
  Br  Br18      1.0  0.26100  0.96400  0.60300  1.0000
  Br  Br19      1.0  0.85600  0.25000  0.62700  1.0000
  Br  Br20      1.0  0.62800  0.25000  0.69900  1.0000
  Br  Br21      1.0  0.91400  0.75000  0.71400  1.0000
  Br  Br22      1.0  0.41400  0.75000  0.78600  1.0000
  Br  Br23      1.0  0.12800  0.25000  0.80100  1.0000
  Br  Br24      1.0  0.35600  0.25000  0.87300  1.0000
  Br  Br25      1.0  0.76100  0.53600  0.89700  1.0000
  Br  Br26      1.0  0.76100  0.96400  0.89700  1.0000
  Br  Br27      1.0  0.08110  0.75000  0.92500  1.0000
  Br  Br28      1.0  0.61200  0.25000  0.97300  1.0000
  P   P1        1.0  0.12300  0.25000  0.14200  1.0000
  P   P2        1.0  0.62300  0.25000  0.35800  1.0000
  P   P3        1.0  0.37700  0.75000  0.64200  1.0000
  P   P4        1.0  0.87700  0.75000  0.85800  1.0000
