data_image0
_chemical_formula_structural       K12N4O16
_chemical_formula_sum              "K12 N4 O16"
_cell_length_a       10.8306
_cell_length_b       7.88731
_cell_length_c       5.62993
_cell_angle_alpha    90
_cell_angle_beta     90
_cell_angle_gamma    90

_space_group_name_H-M_alt    "P 1"
_space_group_IT_number       1

loop_
  _space_group_symop_operation_xyz
  'x, y, z'

loop_
  _atom_site_type_symbol
  _atom_site_label
  _atom_site_symmetry_multiplicity
  _atom_site_fract_x
  _atom_site_fract_y
  _atom_site_fract_z
  _atom_site_occupancy
  K   K1        1.0  0.56900  0.25000  0.12700  1.0000
  K   K2        1.0  0.85600  0.50800  0.17600  1.0000
  K   K3        1.0  0.85600  0.99200  0.17600  1.0000
  K   K4        1.0  0.35600  0.50800  0.32400  1.0000
  K   K5        1.0  0.35600  0.99200  0.32400  1.0000
  K   K6        1.0  0.06920  0.25000  0.37300  1.0000
  K   K7        1.0  0.93100  0.75000  0.62700  1.0000
  K   K8        1.0  0.64400  0.00796  0.67600  1.0000
  K   K9        1.0  0.64400  0.49200  0.67600  1.0000
  K   K10       1.0  0.14400  0.00796  0.82400  1.0000
  K   K11       1.0  0.14400  0.49200  0.82400  1.0000
  K   K12       1.0  0.43100  0.75000  0.87300  1.0000
  N   N1        1.0  0.11700  0.75000  0.21500  1.0000
  N   N2        1.0  0.61700  0.75000  0.28500  1.0000
  N   N3        1.0  0.38300  0.25000  0.71500  1.0000
  N   N4        1.0  0.88300  0.25000  0.78500  1.0000
  O   O1        1.0  0.01910  0.75000  0.05030  1.0000
  O   O2        1.0  0.22800  0.75000  0.09090  1.0000
  O   O3        1.0  0.60900  0.60400  0.14500  1.0000
  O   O4        1.0  0.60900  0.89600  0.14500  1.0000
  O   O5        1.0  0.10900  0.60400  0.35500  1.0000
  O   O6        1.0  0.10900  0.89600  0.35500  1.0000
  O   O7        1.0  0.72800  0.75000  0.40900  1.0000
  O   O8        1.0  0.51900  0.75000  0.45000  1.0000
  O   O9        1.0  0.48100  0.25000  0.55000  1.0000
  O   O10       1.0  0.27200  0.25000  0.59100  1.0000
  O   O11       1.0  0.89100  0.10400  0.64500  1.0000
  O   O12       1.0  0.89100  0.39600  0.64500  1.0000
  O   O13       1.0  0.39100  0.10400  0.85500  1.0000
  O   O14       1.0  0.39100  0.39600  0.85500  1.0000
  O   O15       1.0  0.77200  0.25000  0.90900  1.0000
  O   O16       1.0  0.98100  0.25000  0.95000  1.0000
