data_image0
_chemical_formula_structural       C12Fe4O12Se4
_chemical_formula_sum              "C12 Fe4 O12 Se4"
_cell_length_a       7.53233
_cell_length_b       11.5146
_cell_length_c       6.42669
_cell_angle_alpha    104.892
_cell_angle_beta     102.564
_cell_angle_gamma    84.42

_space_group_name_H-M_alt    "P 1"
_space_group_IT_number       1

loop_
  _space_group_symop_operation_xyz
  'x, y, z'

loop_
  _atom_site_type_symbol
  _atom_site_label
  _atom_site_symmetry_multiplicity
  _atom_site_fract_x
  _atom_site_fract_y
  _atom_site_fract_z
  _atom_site_occupancy
  C   C1        1.0  0.96300  0.73400  0.03440  1.0000
  C   C2        1.0  0.20300  0.90800  0.15300  1.0000
  C   C3        1.0  0.59600  0.85500  0.33400  1.0000
  C   C4        1.0  0.51500  0.20900  0.36300  1.0000
  C   C5        1.0  0.71300  0.64200  0.40300  1.0000
  C   C6        1.0  0.09870  0.83100  0.45500  1.0000
  C   C7        1.0  0.90100  0.16900  0.54500  1.0000
  C   C8        1.0  0.28700  0.35800  0.59700  1.0000
  C   C9        1.0  0.48500  0.79100  0.63700  1.0000
  C   C10       1.0  0.40400  0.14500  0.66600  1.0000
  C   C11       1.0  0.79700  0.09160  0.84700  1.0000
  C   C12       1.0  0.03700  0.26600  0.96600  1.0000
  Fe  Fe1       1.0  0.17500  0.76900  0.20800  1.0000
  Fe  Fe2       1.0  0.50700  0.72600  0.36500  1.0000
  Fe  Fe3       1.0  0.49300  0.27400  0.63500  1.0000
  Fe  Fe4       1.0  0.82500  0.23100  0.79200  1.0000
  O   O1        1.0  0.17800  0.28900  0.07730  1.0000
  O   O2        1.0  0.21900  0.00000  0.11800  1.0000
  O   O3        1.0  0.53000  0.16700  0.18300  1.0000
  O   O4        1.0  0.65900  0.94000  0.31800  1.0000
  O   O5        1.0  0.95500  0.13100  0.38400  1.0000
  O   O6        1.0  0.85300  0.59000  0.43000  1.0000
  O   O7        1.0  0.14700  0.41000  0.57000  1.0000
  O   O8        1.0  0.04510  0.86900  0.61600  1.0000
  O   O9        1.0  0.34100  0.06050  0.68200  1.0000
  O   O10       1.0  0.47000  0.83300  0.81700  1.0000
  O   O11       1.0  0.78100  0.00000  0.88200  1.0000
  O   O12       1.0  0.82200  0.71100  0.92300  1.0000
  Se  Se1       1.0  0.62900  0.35600  0.00281  1.0000
  Se  Se2       1.0  0.28500  0.57800  0.27100  1.0000
  Se  Se3       1.0  0.71500  0.42200  0.72900  1.0000
  Se  Se4       1.0  0.37100  0.64400  0.99700  1.0000
