data_image0
_chemical_formula_structural       CoH10O16P4
_chemical_formula_sum              "Co1 H10 O16 P4"
_cell_length_a       7.84614
_cell_length_b       5.15347
_cell_length_c       7.06906
_cell_angle_alpha    92.5547
_cell_angle_beta     100.511
_cell_angle_gamma    97.6016

_space_group_name_H-M_alt    "P 1"
_space_group_IT_number       1

loop_
  _space_group_symop_operation_xyz
  'x, y, z'

loop_
  _atom_site_type_symbol
  _atom_site_label
  _atom_site_symmetry_multiplicity
  _atom_site_fract_x
  _atom_site_fract_y
  _atom_site_fract_z
  _atom_site_occupancy
  Co  Co1       1.0  0.50000  0.50000  0.50000  1.0000
  H   H1        1.0  0.14300  0.10200  0.06690  1.0000
  H   H2        1.0  0.26000  0.50800  0.14000  1.0000
  H   H3        1.0  0.53500  0.15300  0.18600  1.0000
  H   H4        1.0  0.92700  0.27000  0.37400  1.0000
  H   H5        1.0  0.76700  0.86300  0.41100  1.0000
  H   H6        1.0  0.23300  0.13700  0.58900  1.0000
  H   H7        1.0  0.07290  0.73000  0.62600  1.0000
  H   H8        1.0  0.46500  0.84700  0.81400  1.0000
  H   H9        1.0  0.74000  0.49200  0.86000  1.0000
  H   H10       1.0  0.85700  0.89800  0.93300  1.0000
  O   O1        1.0  0.22000  0.39200  0.00221  1.0000
  O   O2        1.0  0.63000  0.19600  0.10500  1.0000
  O   O3        1.0  0.12200  0.94100  0.13900  1.0000
  O   O4        1.0  0.94100  0.39800  0.27300  1.0000
  O   O5        1.0  0.31200  0.64700  0.31100  1.0000
  O   O6        1.0  0.67800  0.62000  0.31900  1.0000
  O   O7        1.0  0.42100  0.14200  0.33300  1.0000
  O   O8        1.0  0.81900  0.04000  0.49500  1.0000
  O   O9        1.0  0.18100  0.96000  0.50500  1.0000
  O   O10       1.0  0.57900  0.85800  0.66700  1.0000
  O   O11       1.0  0.32200  0.38000  0.68100  1.0000
  O   O12       1.0  0.68800  0.35300  0.68900  1.0000
  O   O13       1.0  0.05940  0.60200  0.72700  1.0000
  O   O14       1.0  0.87800  0.05890  0.86100  1.0000
  O   O15       1.0  0.37000  0.80400  0.89500  1.0000
  O   O16       1.0  0.78000  0.60800  0.99800  1.0000
  P   P1        1.0  0.75400  0.45700  0.17700  1.0000
  P   P2        1.0  0.26600  0.92600  0.32200  1.0000
  P   P3        1.0  0.73400  0.07360  0.67800  1.0000
  P   P4        1.0  0.24600  0.54300  0.82300  1.0000
