data_image0
_chemical_formula_structural       Ca4Fe9O17
_chemical_formula_sum              "Ca4 Fe9 O17"
_cell_length_a       6.00311
_cell_length_b       6.00761
_cell_length_c       11.398
_cell_angle_alpha    97.5523
_cell_angle_beta     90
_cell_angle_gamma    119.975

_space_group_name_H-M_alt    "P 1"
_space_group_IT_number       1

loop_
  _space_group_symop_operation_xyz
  'x, y, z'

loop_
  _atom_site_type_symbol
  _atom_site_label
  _atom_site_symmetry_multiplicity
  _atom_site_fract_x
  _atom_site_fract_y
  _atom_site_fract_z
  _atom_site_occupancy
  Ca  Ca1       1.0  0.20700  0.41400  0.24200  1.0000
  Ca  Ca2       1.0  0.54000  0.08150  0.25000  1.0000
  Ca  Ca3       1.0  0.45800  0.91800  0.75000  1.0000
  Ca  Ca4       1.0  0.79300  0.58600  0.75800  1.0000
  Fe  Fe1       1.0  0.15700  0.00000  0.00000  1.0000
  Fe  Fe2       1.0  0.83300  0.32800  0.00027  1.0000
  Fe  Fe3       1.0  0.87000  0.74100  0.22500  1.0000
  Fe  Fe4       1.0  0.75200  0.49600  0.49200  1.0000
  Fe  Fe5       1.0  0.25200  0.00000  0.50000  1.0000
  Fe  Fe6       1.0  0.74800  0.00000  0.50000  1.0000
  Fe  Fe7       1.0  0.25600  0.50400  0.50800  1.0000
  Fe  Fe8       1.0  0.12900  0.25900  0.77500  1.0000
  Fe  Fe9       1.0  0.50500  0.67200  1.00000  1.0000
  O   O1        1.0  0.49200  0.00000  0.00000  1.0000
  O   O2        1.0  0.17400  0.34300  0.02020  1.0000
  O   O3        1.0  0.16200  0.01840  0.17700  1.0000
  O   O4        1.0  0.57000  0.73400  0.17700  1.0000
  O   O5        1.0  0.85400  0.42300  0.17700  1.0000
  O   O6        1.0  0.90400  0.80300  0.40100  1.0000
  O   O7        1.0  0.40500  0.30700  0.40300  1.0000
  O   O8        1.0  0.90400  0.29400  0.40400  1.0000
  O   O9        1.0  0.39600  0.80000  0.40500  1.0000
  O   O10       1.0  0.59500  0.20000  0.59500  1.0000
  O   O11       1.0  0.61000  0.70600  0.59600  1.0000
  O   O12       1.0  0.09770  0.69300  0.59700  1.0000
  O   O13       1.0  0.10000  0.19700  0.59900  1.0000
  O   O14       1.0  0.43000  0.57700  0.82300  1.0000
  O   O15       1.0  0.83600  0.26600  0.82300  1.0000
  O   O16       1.0  0.14300  0.98200  0.82300  1.0000
  O   O17       1.0  0.83100  0.65700  0.98000  1.0000
