data_image0
_chemical_formula_structural       P12Pd12Sr8
_chemical_formula_sum              "P12 Pd12 Sr8"
_cell_length_a       4.22696
_cell_length_b       4.26539
_cell_length_c       34.4412
_cell_angle_alpha    90
_cell_angle_beta     90
_cell_angle_gamma    90

_space_group_name_H-M_alt    "P 1"
_space_group_IT_number       1

loop_
  _space_group_symop_operation_xyz
  'x, y, z'

loop_
  _atom_site_type_symbol
  _atom_site_label
  _atom_site_symmetry_multiplicity
  _atom_site_fract_x
  _atom_site_fract_y
  _atom_site_fract_z
  _atom_site_occupancy
  P   P1        1.0  0.00000  0.00000  0.03980  1.0000
  P   P2        1.0  0.50000  0.00000  0.14500  1.0000
  P   P3        1.0  0.50000  0.00000  0.21000  1.0000
  P   P4        1.0  0.00000  0.50000  0.28800  1.0000
  P   P5        1.0  0.00000  0.50000  0.35400  1.0000
  P   P6        1.0  0.50000  0.50000  0.46000  1.0000
  P   P7        1.0  0.50000  0.50000  0.54000  1.0000
  P   P8        1.0  0.00000  0.50000  0.64600  1.0000
  P   P9        1.0  0.00000  0.50000  0.71200  1.0000
  P   P10       1.0  0.50000  0.00000  0.79000  1.0000
  P   P11       1.0  0.50000  0.00000  0.85500  1.0000
  P   P12       1.0  0.00000  0.00000  0.96000  1.0000
  Pd  Pd1       1.0  0.50000  0.00000  0.00000  1.0000
  Pd  Pd2       1.0  0.00000  0.50000  0.00000  1.0000
  Pd  Pd3       1.0  0.00000  0.00000  0.11000  1.0000
  Pd  Pd4       1.0  0.00000  0.00000  0.24800  1.0000
  Pd  Pd5       1.0  0.50000  0.50000  0.25000  1.0000
  Pd  Pd6       1.0  0.50000  0.50000  0.38900  1.0000
  Pd  Pd7       1.0  0.50000  0.00000  0.50000  1.0000
  Pd  Pd8       1.0  0.00000  0.50000  0.50000  1.0000
  Pd  Pd9       1.0  0.50000  0.50000  0.61100  1.0000
  Pd  Pd10      1.0  0.50000  0.50000  0.75000  1.0000
  Pd  Pd11      1.0  0.00000  0.00000  0.75200  1.0000
  Pd  Pd12      1.0  0.00000  0.00000  0.89000  1.0000
  Sr  Sr1       1.0  0.50000  0.50000  0.07220  1.0000
  Sr  Sr2       1.0  0.00000  0.50000  0.17600  1.0000
  Sr  Sr3       1.0  0.50000  0.00000  0.32100  1.0000
  Sr  Sr4       1.0  0.00000  0.00000  0.42700  1.0000
  Sr  Sr5       1.0  0.00000  0.00000  0.57300  1.0000
  Sr  Sr6       1.0  0.50000  0.00000  0.67900  1.0000
  Sr  Sr7       1.0  0.00000  0.50000  0.82400  1.0000
  Sr  Sr8       1.0  0.50000  0.50000  0.92800  1.0000
