data_image0
_chemical_formula_structural       F20K8Y4
_chemical_formula_sum              "F20 K8 Y4"
_cell_length_a       10.3226
_cell_length_b       6.34681
_cell_length_c       7.1808
_cell_angle_alpha    90
_cell_angle_beta     90
_cell_angle_gamma    90

_space_group_name_H-M_alt    "P 1"
_space_group_IT_number       1

loop_
  _space_group_symop_operation_xyz
  'x, y, z'

loop_
  _atom_site_type_symbol
  _atom_site_label
  _atom_site_symmetry_multiplicity
  _atom_site_fract_x
  _atom_site_fract_y
  _atom_site_fract_z
  _atom_site_occupancy
  F   F1        1.0  0.32400  0.63500  0.00045  1.0000
  F   F2        1.0  0.82400  0.86500  0.00045  1.0000
  F   F3        1.0  0.49000  0.08940  0.00266  1.0000
  F   F4        1.0  0.99000  0.41100  0.00266  1.0000
  F   F5        1.0  0.20000  0.16600  0.00449  1.0000
  F   F6        1.0  0.70000  0.33400  0.00449  1.0000
  F   F7        1.0  0.57600  0.65800  0.21300  1.0000
  F   F8        1.0  0.07580  0.84200  0.21300  1.0000
  F   F9        1.0  0.92200  0.15500  0.28900  1.0000
  F   F10       1.0  0.42200  0.34500  0.28900  1.0000
  F   F11       1.0  0.17600  0.13500  0.50000  1.0000
  F   F12       1.0  0.67600  0.36500  0.50000  1.0000
  F   F13       1.0  0.00994  0.58900  0.50300  1.0000
  F   F14       1.0  0.51000  0.91100  0.50300  1.0000
  F   F15       1.0  0.30000  0.66600  0.50400  1.0000
  F   F16       1.0  0.80000  0.83400  0.50400  1.0000
  F   F17       1.0  0.92400  0.15800  0.71300  1.0000
  F   F18       1.0  0.42400  0.34200  0.71300  1.0000
  F   F19       1.0  0.57800  0.65500  0.78900  1.0000
  F   F20       1.0  0.07810  0.84500  0.78900  1.0000
  K   K1        1.0  0.83000  0.54200  0.24800  1.0000
  K   K2        1.0  0.33000  0.95800  0.24800  1.0000
  K   K3        1.0  0.67000  0.04130  0.25800  1.0000
  K   K4        1.0  0.17000  0.45900  0.25800  1.0000
  K   K5        1.0  0.67000  0.04230  0.74800  1.0000
  K   K6        1.0  0.17000  0.45800  0.74800  1.0000
  K   K7        1.0  0.83000  0.54100  0.75800  1.0000
  K   K8        1.0  0.33000  0.95900  0.75800  1.0000
  Y   Y1        1.0  0.99400  0.06710  0.00135  1.0000
  Y   Y2        1.0  0.49400  0.43300  0.00135  1.0000
  Y   Y3        1.0  0.50600  0.56700  0.50100  1.0000
  Y   Y4        1.0  0.00567  0.93300  0.50100  1.0000
