data_image0
_chemical_formula_structural       Cs2H10O16P4
_chemical_formula_sum              "Cs2 H10 O16 P4"
_cell_length_a       7.84644
_cell_length_b       6.77288
_cell_length_c       7.66102
_cell_angle_alpha    88.9112
_cell_angle_beta     105.005
_cell_angle_gamma    110.475

_space_group_name_H-M_alt    "P 1"
_space_group_IT_number       1

loop_
  _space_group_symop_operation_xyz
  'x, y, z'

loop_
  _atom_site_type_symbol
  _atom_site_label
  _atom_site_symmetry_multiplicity
  _atom_site_fract_x
  _atom_site_fract_y
  _atom_site_fract_z
  _atom_site_occupancy
  Cs  Cs1       1.0  0.33200  0.11900  0.31500  1.0000
  Cs  Cs2       1.0  0.66800  0.88100  0.68500  1.0000
  H   H1        1.0  0.99300  0.25400  0.03500  1.0000
  H   H2        1.0  0.64500  0.82600  0.21800  1.0000
  H   H3        1.0  0.36400  0.61500  0.26000  1.0000
  H   H4        1.0  0.21700  0.54200  0.36900  1.0000
  H   H5        1.0  0.96700  0.71900  0.44300  1.0000
  H   H6        1.0  0.03270  0.28100  0.55700  1.0000
  H   H7        1.0  0.78300  0.45800  0.63100  1.0000
  H   H8        1.0  0.63600  0.38500  0.74000  1.0000
  H   H9        1.0  0.35500  0.17400  0.78200  1.0000
  H   H10       1.0  0.00656  0.74600  0.96500  1.0000
  O   O1        1.0  0.17300  0.37700  0.02600  1.0000
  O   O2        1.0  0.85900  0.15600  0.05300  1.0000
  O   O3        1.0  0.60700  0.66400  0.15700  1.0000
  O   O4        1.0  0.71700  0.36800  0.20600  1.0000
  O   O5        1.0  0.68800  0.01400  0.29400  1.0000
  O   O6        1.0  0.95900  0.74400  0.30200  1.0000
  O   O7        1.0  0.34200  0.64800  0.37400  1.0000
  O   O8        1.0  0.01790  0.30700  0.37700  1.0000
  O   O9        1.0  0.98200  0.69300  0.62300  1.0000
  O   O10       1.0  0.65800  0.35200  0.62600  1.0000
  O   O11       1.0  0.04050  0.25600  0.69800  1.0000
  O   O12       1.0  0.31200  0.98600  0.70600  1.0000
  O   O13       1.0  0.28300  0.63200  0.79400  1.0000
  O   O14       1.0  0.39300  0.33600  0.84300  1.0000
  O   O15       1.0  0.14100  0.84400  0.94700  1.0000
  O   O16       1.0  0.82700  0.62300  0.97400  1.0000
  P   P1        1.0  0.78100  0.60900  0.15400  1.0000
  P   P2        1.0  0.82900  0.20400  0.23800  1.0000
  P   P3        1.0  0.17100  0.79600  0.76200  1.0000
  P   P4        1.0  0.21900  0.39100  0.84600  1.0000
