data_image0
_chemical_formula_structural       F24P4Tl4
_chemical_formula_sum              "F24 P4 Tl4"
_cell_length_a       7.4046
_cell_length_b       7.4046
_cell_length_c       7.4046
_cell_angle_alpha    90
_cell_angle_beta     90
_cell_angle_gamma    90

_space_group_name_H-M_alt    "P 1"
_space_group_IT_number       1

loop_
  _space_group_symop_operation_xyz
  'x, y, z'

loop_
  _atom_site_type_symbol
  _atom_site_label
  _atom_site_symmetry_multiplicity
  _atom_site_fract_x
  _atom_site_fract_y
  _atom_site_fract_z
  _atom_site_occupancy
  F   F1        1.0  0.64000  0.34800  0.07350  1.0000
  F   F2        1.0  0.86000  0.84800  0.07350  1.0000
  F   F3        1.0  0.34800  0.42700  0.14000  1.0000
  F   F4        1.0  0.15200  0.92700  0.14000  1.0000
  F   F5        1.0  0.92700  0.14000  0.15200  1.0000
  F   F6        1.0  0.57300  0.64000  0.15200  1.0000
  F   F7        1.0  0.42700  0.14000  0.34800  1.0000
  F   F8        1.0  0.07350  0.64000  0.34800  1.0000
  F   F9        1.0  0.84800  0.42700  0.36000  1.0000
  F   F10       1.0  0.65200  0.92700  0.36000  1.0000
  F   F11       1.0  0.14000  0.34800  0.42700  1.0000
  F   F12       1.0  0.36000  0.84800  0.42700  1.0000
  F   F13       1.0  0.64000  0.15200  0.57300  1.0000
  F   F14       1.0  0.86000  0.65200  0.57300  1.0000
  F   F15       1.0  0.34800  0.07350  0.64000  1.0000
  F   F16       1.0  0.15200  0.57300  0.64000  1.0000
  F   F17       1.0  0.92700  0.36000  0.65200  1.0000
  F   F18       1.0  0.57300  0.86000  0.65200  1.0000
  F   F19       1.0  0.42700  0.36000  0.84800  1.0000
  F   F20       1.0  0.07350  0.86000  0.84800  1.0000
  F   F21       1.0  0.84800  0.07350  0.86000  1.0000
  F   F22       1.0  0.65200  0.57300  0.86000  1.0000
  F   F23       1.0  0.14000  0.15200  0.92700  1.0000
  F   F24       1.0  0.36000  0.65200  0.92700  1.0000
  P   P1        1.0  0.00000  0.00000  0.00000  1.0000
  P   P2        1.0  0.50000  0.50000  0.00000  1.0000
  P   P3        1.0  0.50000  0.00000  0.50000  1.0000
  P   P4        1.0  0.00000  0.50000  0.50000  1.0000
  Tl  Tl1       1.0  0.50000  0.00000  0.00000  1.0000
  Tl  Tl2       1.0  0.00000  0.50000  0.00000  1.0000
  Tl  Tl3       1.0  0.00000  0.00000  0.50000  1.0000
  Tl  Tl4       1.0  0.50000  0.50000  0.50000  1.0000
