data_image0
_chemical_formula_structural       Br16Ir3Sc12
_chemical_formula_sum              "Br16 Ir3 Sc12"
_cell_length_a       8.87829
_cell_length_b       10.6276
_cell_length_c       11.2335
_cell_angle_alpha    116.844
_cell_angle_beta     102.064
_cell_angle_gamma    101.741

_space_group_name_H-M_alt    "P 1"
_space_group_IT_number       1

loop_
  _space_group_symop_operation_xyz
  'x, y, z'

loop_
  _atom_site_type_symbol
  _atom_site_label
  _atom_site_symmetry_multiplicity
  _atom_site_fract_x
  _atom_site_fract_y
  _atom_site_fract_z
  _atom_site_occupancy
  Br  Br1       1.0  0.06480  0.24700  0.09530  1.0000
  Br  Br2       1.0  0.59900  0.24600  0.09530  1.0000
  Br  Br3       1.0  0.92400  0.58600  0.14600  1.0000
  Br  Br4       1.0  0.44200  0.56500  0.18500  1.0000
  Br  Br5       1.0  0.80100  0.00679  0.20300  1.0000
  Br  Br6       1.0  0.32900  0.07110  0.23600  1.0000
  Br  Br7       1.0  0.31200  0.84300  0.46000  1.0000
  Br  Br8       1.0  0.83800  0.84300  0.46500  1.0000
  Br  Br9       1.0  0.16200  0.15700  0.53500  1.0000
  Br  Br10      1.0  0.68800  0.15700  0.54000  1.0000
  Br  Br11      1.0  0.67100  0.92900  0.76400  1.0000
  Br  Br12      1.0  0.19900  0.99300  0.79700  1.0000
  Br  Br13      1.0  0.55800  0.43500  0.81500  1.0000
  Br  Br14      1.0  0.07550  0.41400  0.85400  1.0000
  Br  Br15      1.0  0.40100  0.75400  0.90500  1.0000
  Br  Br16      1.0  0.93500  0.75300  0.90500  1.0000
  Ir  Ir1       1.0  0.34000  0.50000  0.49900  1.0000
  Ir  Ir2       1.0  0.00000  0.50000  0.50000  1.0000
  Ir  Ir3       1.0  0.66000  0.50000  0.50100  1.0000
  Sc  Sc1       1.0  0.39600  0.34300  0.25000  1.0000
  Sc  Sc2       1.0  0.14000  0.53800  0.31200  1.0000
  Sc  Sc3       1.0  0.77600  0.53800  0.31200  1.0000
  Sc  Sc4       1.0  0.07810  0.24600  0.34300  1.0000
  Sc  Sc5       1.0  0.71400  0.24500  0.34400  1.0000
  Sc  Sc6       1.0  0.54600  0.71100  0.47800  1.0000
  Sc  Sc7       1.0  0.45400  0.28900  0.52200  1.0000
  Sc  Sc8       1.0  0.28600  0.75500  0.65600  1.0000
  Sc  Sc9       1.0  0.92200  0.75400  0.65700  1.0000
  Sc  Sc10      1.0  0.22400  0.46200  0.68800  1.0000
  Sc  Sc11      1.0  0.86000  0.46200  0.68800  1.0000
  Sc  Sc12      1.0  0.60400  0.65700  0.75000  1.0000
