data_image0
_chemical_formula_structural       As4S16Tl12
_chemical_formula_sum              "As4 S16 Tl12"
_cell_length_a       9.12818
_cell_length_b       11.0582
_cell_length_c       9.28591
_cell_angle_alpha    90
_cell_angle_beta     90
_cell_angle_gamma    90

_space_group_name_H-M_alt    "P 1"
_space_group_IT_number       1

loop_
  _space_group_symop_operation_xyz
  'x, y, z'

loop_
  _atom_site_type_symbol
  _atom_site_label
  _atom_site_symmetry_multiplicity
  _atom_site_fract_x
  _atom_site_fract_y
  _atom_site_fract_z
  _atom_site_occupancy
  As  As1       1.0  0.27700  0.25000  0.02480  1.0000
  As  As2       1.0  0.77700  0.25000  0.47500  1.0000
  As  As3       1.0  0.22300  0.75000  0.52500  1.0000
  As  As4       1.0  0.72300  0.75000  0.97500  1.0000
  S   S1        1.0  0.84700  0.58800  0.03380  1.0000
  S   S2        1.0  0.84700  0.91200  0.03380  1.0000
  S   S3        1.0  0.50400  0.75000  0.07240  1.0000
  S   S4        1.0  0.80800  0.25000  0.23800  1.0000
  S   S5        1.0  0.30800  0.25000  0.26200  1.0000
  S   S6        1.0  0.00400  0.75000  0.42800  1.0000
  S   S7        1.0  0.34700  0.58800  0.46600  1.0000
  S   S8        1.0  0.34700  0.91200  0.46600  1.0000
  S   S9        1.0  0.65300  0.08780  0.53400  1.0000
  S   S10       1.0  0.65300  0.41200  0.53400  1.0000
  S   S11       1.0  0.99600  0.25000  0.57200  1.0000
  S   S12       1.0  0.69200  0.75000  0.73800  1.0000
  S   S13       1.0  0.19200  0.75000  0.76200  1.0000
  S   S14       1.0  0.49600  0.25000  0.92800  1.0000
  S   S15       1.0  0.15300  0.08780  0.96600  1.0000
  S   S16       1.0  0.15300  0.41200  0.96600  1.0000
  Tl  Tl1       1.0  0.10800  0.75000  0.10500  1.0000
  Tl  Tl2       1.0  0.56900  0.05380  0.19300  1.0000
  Tl  Tl3       1.0  0.56900  0.44600  0.19300  1.0000
  Tl  Tl4       1.0  0.06910  0.05380  0.30700  1.0000
  Tl  Tl5       1.0  0.06910  0.44600  0.30700  1.0000
  Tl  Tl6       1.0  0.60800  0.75000  0.39500  1.0000
  Tl  Tl7       1.0  0.39200  0.25000  0.60500  1.0000
  Tl  Tl8       1.0  0.93100  0.55400  0.69300  1.0000
  Tl  Tl9       1.0  0.93100  0.94600  0.69300  1.0000
  Tl  Tl10      1.0  0.43100  0.55400  0.80700  1.0000
  Tl  Tl11      1.0  0.43100  0.94600  0.80700  1.0000
  Tl  Tl12      1.0  0.89200  0.25000  0.89500  1.0000
