data_image0
_chemical_formula_structural       Br4H20O8
_chemical_formula_sum              "Br4 H20 O8"
_cell_length_a       4.05803
_cell_length_b       12.311
_cell_length_c       6.84655
_cell_angle_alpha    90
_cell_angle_beta     101.774
_cell_angle_gamma    90

_space_group_name_H-M_alt    "P 1"
_space_group_IT_number       1

loop_
  _space_group_symop_operation_xyz
  'x, y, z'

loop_
  _atom_site_type_symbol
  _atom_site_label
  _atom_site_symmetry_multiplicity
  _atom_site_fract_x
  _atom_site_fract_y
  _atom_site_fract_z
  _atom_site_occupancy
  Br  Br1       1.0  0.02560  0.33000  0.15400  1.0000
  Br  Br2       1.0  0.97400  0.83000  0.34600  1.0000
  Br  Br3       1.0  0.02560  0.17000  0.65400  1.0000
  Br  Br4       1.0  0.97400  0.67000  0.84600  1.0000
  H   H1        1.0  0.71100  0.19000  0.07980  1.0000
  H   H2        1.0  0.60600  0.85600  0.08390  1.0000
  H   H3        1.0  0.77400  0.60400  0.09790  1.0000
  H   H4        1.0  0.43500  0.09520  0.16500  1.0000
  H   H5        1.0  0.78600  0.48400  0.19800  1.0000
  H   H6        1.0  0.21400  0.98400  0.30200  1.0000
  H   H7        1.0  0.56500  0.59500  0.33500  1.0000
  H   H8        1.0  0.22600  0.10400  0.40200  1.0000
  H   H9        1.0  0.39400  0.35600  0.41600  1.0000
  H   H10       1.0  0.28900  0.69000  0.42000  1.0000
  H   H11       1.0  0.71100  0.31000  0.58000  1.0000
  H   H12       1.0  0.60600  0.64400  0.58400  1.0000
  H   H13       1.0  0.77400  0.89600  0.59800  1.0000
  H   H14       1.0  0.43500  0.40500  0.66500  1.0000
  H   H15       1.0  0.78600  0.01550  0.69800  1.0000
  H   H16       1.0  0.21400  0.51600  0.80200  1.0000
  H   H17       1.0  0.56500  0.90500  0.83500  1.0000
  H   H18       1.0  0.22600  0.39600  0.90200  1.0000
  H   H19       1.0  0.39400  0.14400  0.91600  1.0000
  H   H20       1.0  0.28900  0.81000  0.92000  1.0000
  O   O1        1.0  0.56800  0.12400  0.03850  1.0000
  O   O2        1.0  0.68500  0.55800  0.19600  1.0000
  O   O3        1.0  0.31500  0.05840  0.30400  1.0000
  O   O4        1.0  0.43200  0.62400  0.46200  1.0000
  O   O5        1.0  0.56800  0.37600  0.53800  1.0000
  O   O6        1.0  0.68500  0.94200  0.69600  1.0000
  O   O7        1.0  0.31500  0.44200  0.80400  1.0000
  O   O8        1.0  0.43200  0.87600  0.96200  1.0000
