data_image0
_chemical_formula_structural       As12Sc20
_chemical_formula_sum              "As12 Sc20"
_cell_length_a       10.6802
_cell_length_b       8.14613
_cell_length_c       7.2176
_cell_angle_alpha    90
_cell_angle_beta     90
_cell_angle_gamma    90

_space_group_name_H-M_alt    "P 1"
_space_group_IT_number       1

loop_
  _space_group_symop_operation_xyz
  'x, y, z'

loop_
  _atom_site_type_symbol
  _atom_site_label
  _atom_site_symmetry_multiplicity
  _atom_site_fract_x
  _atom_site_fract_y
  _atom_site_fract_z
  _atom_site_occupancy
  As  As1       1.0  0.32700  0.00935  0.06490  1.0000
  As  As2       1.0  0.32700  0.49100  0.06490  1.0000
  As  As3       1.0  0.01870  0.75000  0.08410  1.0000
  As  As4       1.0  0.51900  0.75000  0.41600  1.0000
  As  As5       1.0  0.82700  0.00935  0.43500  1.0000
  As  As6       1.0  0.82700  0.49100  0.43500  1.0000
  As  As7       1.0  0.17300  0.50900  0.56500  1.0000
  As  As8       1.0  0.17300  0.99100  0.56500  1.0000
  As  As9       1.0  0.48100  0.25000  0.58400  1.0000
  As  As10      1.0  0.98100  0.25000  0.91600  1.0000
  As  As11      1.0  0.67300  0.50900  0.93500  1.0000
  As  As12      1.0  0.67300  0.99100  0.93500  1.0000
  Sc  Sc1       1.0  0.49700  0.75000  0.02970  1.0000
  Sc  Sc2       1.0  0.79300  0.25000  0.15100  1.0000
  Sc  Sc3       1.0  0.77700  0.75000  0.16700  1.0000
  Sc  Sc4       1.0  0.07040  0.05280  0.19100  1.0000
  Sc  Sc5       1.0  0.07040  0.44700  0.19100  1.0000
  Sc  Sc6       1.0  0.57000  0.05280  0.30900  1.0000
  Sc  Sc7       1.0  0.57000  0.44700  0.30900  1.0000
  Sc  Sc8       1.0  0.27700  0.75000  0.33300  1.0000
  Sc  Sc9       1.0  0.29300  0.25000  0.34900  1.0000
  Sc  Sc10      1.0  0.99700  0.75000  0.47000  1.0000
  Sc  Sc11      1.0  0.00334  0.25000  0.53000  1.0000
  Sc  Sc12      1.0  0.70700  0.75000  0.65100  1.0000
  Sc  Sc13      1.0  0.72300  0.25000  0.66700  1.0000
  Sc  Sc14      1.0  0.43000  0.55300  0.69100  1.0000
  Sc  Sc15      1.0  0.43000  0.94700  0.69100  1.0000
  Sc  Sc16      1.0  0.93000  0.55300  0.80900  1.0000
  Sc  Sc17      1.0  0.93000  0.94700  0.80900  1.0000
  Sc  Sc18      1.0  0.22300  0.25000  0.83300  1.0000
  Sc  Sc19      1.0  0.20700  0.75000  0.84900  1.0000
  Sc  Sc20      1.0  0.50300  0.25000  0.97000  1.0000
