data_image0
_chemical_formula_structural       C4F8O12Pb8
_chemical_formula_sum              "C4 F8 O12 Pb8"
_cell_length_a       8.04908
_cell_length_b       8.27652
_cell_length_c       6.71531
_cell_angle_alpha    90
_cell_angle_beta     90
_cell_angle_gamma    90

_space_group_name_H-M_alt    "P 1"
_space_group_IT_number       1

loop_
  _space_group_symop_operation_xyz
  'x, y, z'

loop_
  _atom_site_type_symbol
  _atom_site_label
  _atom_site_symmetry_multiplicity
  _atom_site_fract_x
  _atom_site_fract_y
  _atom_site_fract_z
  _atom_site_occupancy
  C   C1        1.0  0.50000  0.01980  0.25000  1.0000
  C   C2        1.0  0.00000  0.52000  0.25000  1.0000
  C   C3        1.0  0.00000  0.48000  0.75000  1.0000
  C   C4        1.0  0.50000  0.98000  0.75000  1.0000
  F   F1        1.0  0.88600  0.11400  0.09880  1.0000
  F   F2        1.0  0.61400  0.61400  0.09880  1.0000
  F   F3        1.0  0.11400  0.11400  0.40100  1.0000
  F   F4        1.0  0.38600  0.61400  0.40100  1.0000
  F   F5        1.0  0.61400  0.38600  0.59900  1.0000
  F   F6        1.0  0.88600  0.88600  0.59900  1.0000
  F   F7        1.0  0.38600  0.38600  0.90100  1.0000
  F   F8        1.0  0.11400  0.88600  0.90100  1.0000
  O   O1        1.0  0.13200  0.44200  0.19400  1.0000
  O   O2        1.0  0.36800  0.94200  0.19400  1.0000
  O   O3        1.0  0.50000  0.17700  0.25000  1.0000
  O   O4        1.0  0.00000  0.67700  0.25000  1.0000
  O   O5        1.0  0.86800  0.44200  0.30600  1.0000
  O   O6        1.0  0.63200  0.94200  0.30600  1.0000
  O   O7        1.0  0.36800  0.05820  0.69400  1.0000
  O   O8        1.0  0.13200  0.55800  0.69400  1.0000
  O   O9        1.0  0.00000  0.32300  0.75000  1.0000
  O   O10       1.0  0.50000  0.82300  0.75000  1.0000
  O   O11       1.0  0.63200  0.05820  0.80600  1.0000
  O   O12       1.0  0.86800  0.55800  0.80600  1.0000
  Pb  Pb1       1.0  0.18400  0.16000  0.04280  1.0000
  Pb  Pb2       1.0  0.31600  0.66000  0.04280  1.0000
  Pb  Pb3       1.0  0.81600  0.16000  0.45700  1.0000
  Pb  Pb4       1.0  0.68400  0.66000  0.45700  1.0000
  Pb  Pb5       1.0  0.31600  0.34000  0.54300  1.0000
  Pb  Pb6       1.0  0.18400  0.84000  0.54300  1.0000
  Pb  Pb7       1.0  0.68400  0.34000  0.95700  1.0000
  Pb  Pb8       1.0  0.81600  0.84000  0.95700  1.0000
