data_image0
_chemical_formula_structural       C12Cr2Cs4K2N12
_chemical_formula_sum              "C12 Cr2 Cs4 K2 N12"
_cell_length_a       11.2074
_cell_length_b       8.23854
_cell_length_c       7.69471
_cell_angle_alpha    90
_cell_angle_beta     90.2979
_cell_angle_gamma    90

_space_group_name_H-M_alt    "P 1"
_space_group_IT_number       1

loop_
  _space_group_symop_operation_xyz
  'x, y, z'

loop_
  _atom_site_type_symbol
  _atom_site_label
  _atom_site_symmetry_multiplicity
  _atom_site_fract_x
  _atom_site_fract_y
  _atom_site_fract_z
  _atom_site_occupancy
  C   C1        1.0  0.17200  0.02550  0.07730  1.0000
  C   C2        1.0  0.95600  0.20700  0.12700  1.0000
  C   C3        1.0  0.96500  0.86900  0.21700  1.0000
  C   C4        1.0  0.53500  0.36900  0.28300  1.0000
  C   C5        1.0  0.54400  0.70700  0.37300  1.0000
  C   C6        1.0  0.32800  0.52600  0.42300  1.0000
  C   C7        1.0  0.67200  0.47400  0.57700  1.0000
  C   C8        1.0  0.45600  0.29300  0.62700  1.0000
  C   C9        1.0  0.46500  0.63100  0.71700  1.0000
  C   C10       1.0  0.03470  0.13100  0.78300  1.0000
  C   C11       1.0  0.04390  0.79300  0.87300  1.0000
  C   C12       1.0  0.82800  0.97400  0.92300  1.0000
  Cr  Cr1       1.0  0.00000  0.00000  0.00000  1.0000
  Cr  Cr2       1.0  0.50000  0.50000  0.50000  1.0000
  Cs  Cs1       1.0  0.74900  0.57200  0.02280  1.0000
  Cs  Cs2       1.0  0.75100  0.07230  0.47700  1.0000
  Cs  Cs3       1.0  0.24900  0.92800  0.52300  1.0000
  Cs  Cs4       1.0  0.25100  0.42800  0.97700  1.0000
  K   K1        1.0  0.50000  0.00000  0.00000  1.0000
  K   K2        1.0  0.00000  0.50000  0.50000  1.0000
  N   N1        1.0  0.27100  0.04530  0.12500  1.0000
  N   N2        1.0  0.55700  0.29400  0.15700  1.0000
  N   N3        1.0  0.93000  0.32700  0.20100  1.0000
  N   N4        1.0  0.57000  0.82700  0.29900  1.0000
  N   N5        1.0  0.94300  0.79400  0.34300  1.0000
  N   N6        1.0  0.22900  0.54500  0.37500  1.0000
  N   N7        1.0  0.77100  0.45500  0.62500  1.0000
  N   N8        1.0  0.05740  0.20600  0.65700  1.0000
  N   N9        1.0  0.43000  0.17300  0.70100  1.0000
  N   N10       1.0  0.07030  0.67300  0.79900  1.0000
  N   N11       1.0  0.44300  0.70600  0.84300  1.0000
  N   N12       1.0  0.72900  0.95500  0.87500  1.0000
