data_image0
_chemical_formula_structural       B36H60
_chemical_formula_sum              "B36 H60"
_cell_length_a       11.0148
_cell_length_b       6.50878
_cell_length_c       10.4882
_cell_angle_alpha    90
_cell_angle_beta     108.926
_cell_angle_gamma    90

_space_group_name_H-M_alt    "P 1"
_space_group_IT_number       1

loop_
  _space_group_symop_operation_xyz
  'x, y, z'

loop_
  _atom_site_type_symbol
  _atom_site_label
  _atom_site_symmetry_multiplicity
  _atom_site_fract_x
  _atom_site_fract_y
  _atom_site_fract_z
  _atom_site_occupancy
  B   B1        1.0  0.46700  0.88800  0.17300  1.0000
  B   B2        1.0  0.03280  0.38800  0.32700  1.0000
  B   B3        1.0  0.53300  0.11200  0.82700  1.0000
  B   B4        1.0  0.96700  0.61200  0.67300  1.0000
  B   B5        1.0  0.42500  0.63600  0.12300  1.0000
  B   B6        1.0  0.07470  0.13600  0.37700  1.0000
  B   B7        1.0  0.57500  0.36400  0.87700  1.0000
  B   B8        1.0  0.92500  0.86400  0.62300  1.0000
  B   B9        1.0  0.60800  0.89000  0.31100  1.0000
  B   B10       1.0  0.89200  0.39000  0.18900  1.0000
  B   B11       1.0  0.39200  0.11000  0.68900  1.0000
  B   B12       1.0  0.10800  0.61000  0.81100  1.0000
  B   B13       1.0  0.59100  0.71600  0.17300  1.0000
  B   B14       1.0  0.90900  0.21600  0.32700  1.0000
  B   B15       1.0  0.40900  0.28400  0.82700  1.0000
  B   B16       1.0  0.09050  0.78400  0.67300  1.0000
  B   B17       1.0  0.36400  0.76300  0.38700  1.0000
  B   B18       1.0  0.13600  0.26300  0.11300  1.0000
  B   B19       1.0  0.63600  0.23700  0.61300  1.0000
  B   B20       1.0  0.86400  0.73700  0.88700  1.0000
  B   B21       1.0  0.33200  0.80300  0.20700  1.0000
  B   B22       1.0  0.16800  0.30300  0.29300  1.0000
  B   B23       1.0  0.66800  0.19700  0.79300  1.0000
  B   B24       1.0  0.83200  0.69700  0.70700  1.0000
  B   B25       1.0  0.44500  0.96200  0.32200  1.0000
  B   B26       1.0  0.05530  0.46200  0.17800  1.0000
  B   B27       1.0  0.55500  0.03760  0.67800  1.0000
  B   B28       1.0  0.94500  0.53800  0.82200  1.0000
  B   B29       1.0  0.55300  0.47600  0.22100  1.0000
  B   B30       1.0  0.94700  0.97600  0.27900  1.0000
  B   B31       1.0  0.44700  0.52400  0.77900  1.0000
  B   B32       1.0  0.05330  0.02380  0.72100  1.0000
  B   B33       1.0  0.66500  0.63300  0.33600  1.0000
  B   B34       1.0  0.83500  0.13300  0.16400  1.0000
  B   B35       1.0  0.33500  0.36700  0.66400  1.0000
  B   B36       1.0  0.16500  0.86700  0.83600  1.0000
  H   H1        1.0  0.58900  0.48300  0.35600  1.0000
  H   H2        1.0  0.91100  0.98300  0.14400  1.0000
  H   H3        1.0  0.41100  0.51700  0.64400  1.0000
  H   H4        1.0  0.08890  0.01740  0.85600  1.0000
  H   H5        1.0  0.63500  0.76600  0.41700  1.0000
  H   H6        1.0  0.86500  0.26600  0.08290  1.0000
  H   H7        1.0  0.36500  0.23400  0.58300  1.0000
  H   H8        1.0  0.13500  0.73400  0.91700  1.0000
  H   H9        1.0  0.47800  0.87200  0.43600  1.0000
  H   H10       1.0  0.02190  0.37200  0.06390  1.0000
  H   H11       1.0  0.52200  0.12800  0.56400  1.0000
  H   H12       1.0  0.97800  0.62800  0.93600  1.0000
  H   H13       1.0  0.31400  0.64500  0.27100  1.0000
  H   H14       1.0  0.18600  0.14500  0.22900  1.0000
  H   H15       1.0  0.68600  0.35500  0.72900  1.0000
  H   H16       1.0  0.81400  0.85500  0.77100  1.0000
  H   H17       1.0  0.28200  0.82400  0.43000  1.0000
  H   H18       1.0  0.21800  0.32400  0.06990  1.0000
  H   H19       1.0  0.71800  0.17600  0.57000  1.0000
  H   H20       1.0  0.78200  0.67600  0.93000  1.0000
  H   H21       1.0  0.42300  0.61400  0.44500  1.0000
  H   H22       1.0  0.07700  0.11400  0.05510  1.0000
  H   H23       1.0  0.57700  0.38600  0.55500  1.0000
  H   H24       1.0  0.92300  0.88600  0.94500  1.0000
  H   H25       1.0  0.36900  0.57800  0.01250  1.0000
  H   H26       1.0  0.13100  0.07830  0.48800  1.0000
  H   H27       1.0  0.63100  0.42200  0.98800  1.0000
  H   H28       1.0  0.86900  0.92200  0.51200  1.0000
  H   H29       1.0  0.42800  0.47800  0.20500  1.0000
  H   H30       1.0  0.07160  0.97800  0.29500  1.0000
  H   H31       1.0  0.57200  0.52200  0.79500  1.0000
  H   H32       1.0  0.92800  0.02240  0.70500  1.0000
  H   H33       1.0  0.44400  0.02280  0.09120  1.0000
  H   H34       1.0  0.05560  0.52300  0.40900  1.0000
  H   H35       1.0  0.55600  0.97700  0.90900  1.0000
  H   H36       1.0  0.94400  0.47700  0.59100  1.0000
  H   H37       1.0  0.42300  0.14000  0.33600  1.0000
  H   H38       1.0  0.07650  0.64000  0.16400  1.0000
  H   H39       1.0  0.57700  0.86000  0.66400  1.0000
  H   H40       1.0  0.92300  0.36000  0.83600  1.0000
  H   H41       1.0  0.68600  0.02240  0.34000  1.0000
  H   H42       1.0  0.81400  0.52200  0.16000  1.0000
  H   H43       1.0  0.31400  0.97800  0.66000  1.0000
  H   H44       1.0  0.18600  0.47800  0.84000  1.0000
  H   H45       1.0  0.23000  0.86700  0.13900  1.0000
  H   H46       1.0  0.27000  0.36700  0.36100  1.0000
  H   H47       1.0  0.77000  0.13300  0.86100  1.0000
  H   H48       1.0  0.73000  0.63300  0.63900  1.0000
  H   H49       1.0  0.58000  0.31100  0.19100  1.0000
  H   H50       1.0  0.92000  0.81100  0.30900  1.0000
  H   H51       1.0  0.42000  0.68900  0.80900  1.0000
  H   H52       1.0  0.08030  0.18900  0.69100  1.0000
  H   H53       1.0  0.77300  0.58000  0.39100  1.0000
  H   H54       1.0  0.72700  0.07990  0.10900  1.0000
  H   H55       1.0  0.22700  0.42000  0.60900  1.0000
  H   H56       1.0  0.27300  0.92000  0.89100  1.0000
  H   H57       1.0  0.64600  0.73800  0.09390  1.0000
  H   H58       1.0  0.85400  0.23800  0.40600  1.0000
  H   H59       1.0  0.35400  0.26200  0.90600  1.0000
  H   H60       1.0  0.14600  0.76200  0.59400  1.0000
