data_image0
_chemical_formula_structural       Br4H20N4O4
_chemical_formula_sum              "Br4 H20 N4 O4"
_cell_length_a       6.42429
_cell_length_b       7.12722
_cell_length_c       7.83634
_cell_angle_alpha    90
_cell_angle_beta     115.683
_cell_angle_gamma    90

_space_group_name_H-M_alt    "P 1"
_space_group_IT_number       1

loop_
  _space_group_symop_operation_xyz
  'x, y, z'

loop_
  _atom_site_type_symbol
  _atom_site_label
  _atom_site_symmetry_multiplicity
  _atom_site_fract_x
  _atom_site_fract_y
  _atom_site_fract_z
  _atom_site_occupancy
  Br  Br1       1.0  0.38500  0.09820  0.24000  1.0000
  Br  Br2       1.0  0.11500  0.59800  0.26000  1.0000
  Br  Br3       1.0  0.88500  0.40200  0.74000  1.0000
  Br  Br4       1.0  0.61500  0.90200  0.76000  1.0000
  H   H1        1.0  0.22700  0.91700  0.00240  1.0000
  H   H2        1.0  0.68700  0.35900  0.08490  1.0000
  H   H3        1.0  0.42800  0.34700  0.09170  1.0000
  H   H4        1.0  0.00838  0.18800  0.12800  1.0000
  H   H5        1.0  0.60700  0.53100  0.20700  1.0000
  H   H6        1.0  0.89300  0.03060  0.29300  1.0000
  H   H7        1.0  0.49200  0.68800  0.37200  1.0000
  H   H8        1.0  0.07170  0.84700  0.40800  1.0000
  H   H9        1.0  0.81300  0.85900  0.41500  1.0000
  H   H10       1.0  0.27300  0.41700  0.49800  1.0000
  H   H11       1.0  0.72700  0.58300  0.50200  1.0000
  H   H12       1.0  0.18700  0.14100  0.58500  1.0000
  H   H13       1.0  0.92800  0.15300  0.59200  1.0000
  H   H14       1.0  0.50800  0.31200  0.62800  1.0000
  H   H15       1.0  0.10700  0.96900  0.70700  1.0000
  H   H16       1.0  0.39300  0.46900  0.79300  1.0000
  H   H17       1.0  0.99200  0.81200  0.87200  1.0000
  H   H18       1.0  0.57200  0.65300  0.90800  1.0000
  H   H19       1.0  0.31300  0.64100  0.91500  1.0000
  H   H20       1.0  0.77300  0.08340  0.99800  1.0000
  N   N1        1.0  0.54900  0.44300  0.08340  1.0000
  N   N2        1.0  0.95100  0.94300  0.41700  1.0000
  N   N3        1.0  0.04930  0.05700  0.58300  1.0000
  N   N4        1.0  0.45100  0.55700  0.91700  1.0000
  O   O1        1.0  0.84900  0.16500  0.11400  1.0000
  O   O2        1.0  0.65100  0.66500  0.38600  1.0000
  O   O3        1.0  0.34900  0.33500  0.61400  1.0000
  O   O4        1.0  0.15100  0.83500  0.88600  1.0000
