data_image0
_chemical_formula_structural       Na4O18Te8
_chemical_formula_sum              "Na4 O18 Te8"
_cell_length_a       7.26546
_cell_length_b       10.4046
_cell_length_c       6.87648
_cell_angle_alpha    90.4447
_cell_angle_beta     111.596
_cell_angle_gamma    69.0005

_space_group_name_H-M_alt    "P 1"
_space_group_IT_number       1

loop_
  _space_group_symop_operation_xyz
  'x, y, z'

loop_
  _atom_site_type_symbol
  _atom_site_label
  _atom_site_symmetry_multiplicity
  _atom_site_fract_x
  _atom_site_fract_y
  _atom_site_fract_z
  _atom_site_occupancy
  Na  Na1       1.0  0.82000  0.63800  0.02500  1.0000
  Na  Na2       1.0  0.22700  0.50900  0.47600  1.0000
  Na  Na3       1.0  0.77300  0.49100  0.52400  1.0000
  Na  Na4       1.0  0.18000  0.36200  0.97500  1.0000
  O   O1        1.0  0.85700  0.13400  0.03440  1.0000
  O   O2        1.0  0.87800  0.40500  0.04510  1.0000
  O   O3        1.0  0.50000  0.12000  0.06050  1.0000
  O   O4        1.0  0.69400  0.32800  0.29000  1.0000
  O   O5        1.0  0.87700  0.90500  0.29900  1.0000
  O   O6        1.0  0.33800  0.29500  0.33300  1.0000
  O   O7        1.0  0.49200  0.89600  0.33500  1.0000
  O   O8        1.0  0.33400  0.66500  0.33900  1.0000
  O   O9        1.0  0.85600  0.64500  0.36600  1.0000
  O   O10       1.0  0.14400  0.35500  0.63400  1.0000
  O   O11       1.0  0.66600  0.33500  0.66100  1.0000
  O   O12       1.0  0.50800  0.10400  0.66500  1.0000
  O   O13       1.0  0.66200  0.70500  0.66700  1.0000
  O   O14       1.0  0.12300  0.09480  0.70100  1.0000
  O   O15       1.0  0.30600  0.67200  0.71000  1.0000
  O   O16       1.0  0.50000  0.88000  0.94000  1.0000
  O   O17       1.0  0.12200  0.59500  0.95500  1.0000
  O   O18       1.0  0.14300  0.86600  0.96600  1.0000
  Te  Te1       1.0  0.27500  0.01590  0.00751  1.0000
  Te  Te2       1.0  0.33000  0.67000  0.02810  1.0000
  Te  Te3       1.0  0.64400  0.20600  0.46100  1.0000
  Te  Te4       1.0  0.80100  0.80300  0.49500  1.0000
  Te  Te5       1.0  0.19900  0.19700  0.50500  1.0000
  Te  Te6       1.0  0.35600  0.79400  0.53900  1.0000
  Te  Te7       1.0  0.67000  0.33000  0.97200  1.0000
  Te  Te8       1.0  0.72500  0.98400  0.99200  1.0000
