data_image0
_chemical_formula_structural       F20K8Sm4
_chemical_formula_sum              "F20 K8 Sm4"
_cell_length_a       10.2954
_cell_length_b       6.3677
_cell_length_c       7.35198
_cell_angle_alpha    90
_cell_angle_beta     90
_cell_angle_gamma    90

_space_group_name_H-M_alt    "P 1"
_space_group_IT_number       1

loop_
  _space_group_symop_operation_xyz
  'x, y, z'

loop_
  _atom_site_type_symbol
  _atom_site_label
  _atom_site_symmetry_multiplicity
  _atom_site_fract_x
  _atom_site_fract_y
  _atom_site_fract_z
  _atom_site_occupancy
  F   F1        1.0  0.68000  0.64300  0.00281  1.0000
  F   F2        1.0  0.18000  0.85700  0.00281  1.0000
  F   F3        1.0  0.50900  0.08160  0.00736  1.0000
  F   F4        1.0  0.00857  0.41800  0.00736  1.0000
  F   F5        1.0  0.79400  0.17000  0.00838  1.0000
  F   F6        1.0  0.29400  0.33000  0.00838  1.0000
  F   F7        1.0  0.42200  0.66000  0.22000  1.0000
  F   F8        1.0  0.92200  0.84000  0.22000  1.0000
  F   F9        1.0  0.08070  0.15700  0.29300  1.0000
  F   F10       1.0  0.58100  0.34300  0.29300  1.0000
  F   F11       1.0  0.82000  0.14300  0.50300  1.0000
  F   F12       1.0  0.32000  0.35700  0.50300  1.0000
  F   F13       1.0  0.99100  0.58200  0.50700  1.0000
  F   F14       1.0  0.49100  0.91800  0.50700  1.0000
  F   F15       1.0  0.70600  0.67000  0.50800  1.0000
  F   F16       1.0  0.20600  0.83000  0.50800  1.0000
  F   F17       1.0  0.07840  0.16000  0.72000  1.0000
  F   F18       1.0  0.57800  0.34000  0.72000  1.0000
  F   F19       1.0  0.41900  0.65700  0.79300  1.0000
  F   F20       1.0  0.91900  0.84300  0.79300  1.0000
  K   K1        1.0  0.16900  0.54300  0.25200  1.0000
  K   K2        1.0  0.66900  0.95700  0.25200  1.0000
  K   K3        1.0  0.32900  0.04010  0.26100  1.0000
  K   K4        1.0  0.82900  0.46000  0.26100  1.0000
  K   K5        1.0  0.33100  0.04300  0.75200  1.0000
  K   K6        1.0  0.83100  0.45700  0.75200  1.0000
  K   K7        1.0  0.17100  0.54000  0.76100  1.0000
  K   K8        1.0  0.67100  0.96000  0.76100  1.0000
  Sm  Sm1       1.0  0.00732  0.06600  0.00695  1.0000
  Sm  Sm2       1.0  0.50700  0.43400  0.00695  1.0000
  Sm  Sm3       1.0  0.49300  0.56600  0.50700  1.0000
  Sm  Sm4       1.0  0.99300  0.93400  0.50700  1.0000
