data_image0
_chemical_formula_structural       Br8C4O12Pb8
_chemical_formula_sum              "Br8 C4 O12 Pb8"
_cell_length_a       8.35846
_cell_length_b       8.35846
_cell_length_c       9.13209
_cell_angle_alpha    90
_cell_angle_beta     90
_cell_angle_gamma    90

_space_group_name_H-M_alt    "P 1"
_space_group_IT_number       1

loop_
  _space_group_symop_operation_xyz
  'x, y, z'

loop_
  _atom_site_type_symbol
  _atom_site_label
  _atom_site_symmetry_multiplicity
  _atom_site_fract_x
  _atom_site_fract_y
  _atom_site_fract_z
  _atom_site_occupancy
  Br  Br1       1.0  0.00000  0.00000  0.23700  1.0000
  Br  Br2       1.0  0.50000  0.50000  0.23700  1.0000
  Br  Br3       1.0  0.64900  0.14900  0.50000  1.0000
  Br  Br4       1.0  0.14900  0.35100  0.50000  1.0000
  Br  Br5       1.0  0.85100  0.64900  0.50000  1.0000
  Br  Br6       1.0  0.35100  0.85100  0.50000  1.0000
  Br  Br7       1.0  0.00000  0.00000  0.76300  1.0000
  Br  Br8       1.0  0.50000  0.50000  0.76300  1.0000
  C   C1        1.0  0.67600  0.17600  0.00000  1.0000
  C   C2        1.0  0.17600  0.32400  0.00000  1.0000
  C   C3        1.0  0.82400  0.67600  0.00000  1.0000
  C   C4        1.0  0.32400  0.82400  0.00000  1.0000
  O   O1        1.0  0.28700  0.21300  0.00000  1.0000
  O   O2        1.0  0.78700  0.28700  0.00000  1.0000
  O   O3        1.0  0.21300  0.71300  0.00000  1.0000
  O   O4        1.0  0.71300  0.78700  0.00000  1.0000
  O   O5        1.0  0.62700  0.12700  0.12600  1.0000
  O   O6        1.0  0.12700  0.37300  0.12600  1.0000
  O   O7        1.0  0.87300  0.62700  0.12600  1.0000
  O   O8        1.0  0.37300  0.87300  0.12600  1.0000
  O   O9        1.0  0.62700  0.12700  0.87400  1.0000
  O   O10       1.0  0.12700  0.37300  0.87400  1.0000
  O   O11       1.0  0.87300  0.62700  0.87400  1.0000
  O   O12       1.0  0.37300  0.87300  0.87400  1.0000
  Pb  Pb1       1.0  0.33700  0.16300  0.25300  1.0000
  Pb  Pb2       1.0  0.83700  0.33700  0.25300  1.0000
  Pb  Pb3       1.0  0.16300  0.66300  0.25300  1.0000
  Pb  Pb4       1.0  0.66300  0.83700  0.25300  1.0000
  Pb  Pb5       1.0  0.33700  0.16300  0.74700  1.0000
  Pb  Pb6       1.0  0.83700  0.33700  0.74700  1.0000
  Pb  Pb7       1.0  0.16300  0.66300  0.74700  1.0000
  Pb  Pb8       1.0  0.66300  0.83700  0.74700  1.0000
