data_image0
_chemical_formula_structural       Br4Re12S16
_chemical_formula_sum              "Br4 Re12 S16"
_cell_length_a       6.42232
_cell_length_b       11.5951
_cell_length_c       10.1492
_cell_angle_alpha    90
_cell_angle_beta     99.9893
_cell_angle_gamma    90

_space_group_name_H-M_alt    "P 1"
_space_group_IT_number       1

loop_
  _space_group_symop_operation_xyz
  'x, y, z'

loop_
  _atom_site_type_symbol
  _atom_site_label
  _atom_site_symmetry_multiplicity
  _atom_site_fract_x
  _atom_site_fract_y
  _atom_site_fract_z
  _atom_site_occupancy
  Br  Br1       1.0  0.20700  0.36500  0.09740  1.0000
  Br  Br2       1.0  0.29300  0.86500  0.40300  1.0000
  Br  Br3       1.0  0.70700  0.13500  0.59700  1.0000
  Br  Br4       1.0  0.79300  0.63500  0.90300  1.0000
  Re  Re1       1.0  0.08950  0.14700  0.05350  1.0000
  Re  Re2       1.0  0.75200  0.02420  0.06320  1.0000
  Re  Re3       1.0  0.12300  0.94100  0.16400  1.0000
  Re  Re4       1.0  0.37700  0.44100  0.33600  1.0000
  Re  Re5       1.0  0.74800  0.52400  0.43700  1.0000
  Re  Re6       1.0  0.41000  0.64700  0.44600  1.0000
  Re  Re7       1.0  0.59000  0.35300  0.55400  1.0000
  Re  Re8       1.0  0.25200  0.47600  0.56300  1.0000
  Re  Re9       1.0  0.62300  0.55900  0.66400  1.0000
  Re  Re10      1.0  0.87700  0.05930  0.83600  1.0000
  Re  Re11      1.0  0.24800  0.97600  0.93700  1.0000
  Re  Re12      1.0  0.91000  0.85300  0.94600  1.0000
  S   S1        1.0  0.25800  0.78900  0.04100  1.0000
  S   S2        1.0  0.42400  0.06420  0.15700  1.0000
  S   S3        1.0  0.80300  0.83500  0.16200  1.0000
  S   S4        1.0  0.53500  0.60200  0.24000  1.0000
  S   S5        1.0  0.96500  0.10200  0.26000  1.0000
  S   S6        1.0  0.69700  0.33500  0.33800  1.0000
  S   S7        1.0  0.07610  0.56400  0.34300  1.0000
  S   S8        1.0  0.24200  0.28900  0.45900  1.0000
  S   S9        1.0  0.75800  0.71100  0.54100  1.0000
  S   S10       1.0  0.92400  0.43600  0.65700  1.0000
  S   S11       1.0  0.30300  0.66500  0.66200  1.0000
  S   S12       1.0  0.03520  0.89800  0.74000  1.0000
  S   S13       1.0  0.46500  0.39800  0.76000  1.0000
  S   S14       1.0  0.19700  0.16500  0.83800  1.0000
  S   S15       1.0  0.57600  0.93600  0.84300  1.0000
  S   S16       1.0  0.74200  0.21100  0.95900  1.0000
