data_image0
_chemical_formula_structural       Ce8O16Se4Si4
_chemical_formula_sum              "Ce8 O16 Se4 Si4"
_cell_length_a       6.27568
_cell_length_b       7.28001
_cell_length_c       11.1359
_cell_angle_alpha    90
_cell_angle_beta     90
_cell_angle_gamma    90

_space_group_name_H-M_alt    "P 1"
_space_group_IT_number       1

loop_
  _space_group_symop_operation_xyz
  'x, y, z'

loop_
  _atom_site_type_symbol
  _atom_site_label
  _atom_site_symmetry_multiplicity
  _atom_site_fract_x
  _atom_site_fract_y
  _atom_site_fract_z
  _atom_site_occupancy
  Ce  Ce1       1.0  0.60700  0.25000  0.00000  1.0000
  Ce  Ce2       1.0  0.39300  0.75000  0.00000  1.0000
  Ce  Ce3       1.0  0.12700  0.03660  0.25000  1.0000
  Ce  Ce4       1.0  0.87300  0.53700  0.25000  1.0000
  Ce  Ce5       1.0  0.60700  0.25000  0.50000  1.0000
  Ce  Ce6       1.0  0.39300  0.75000  0.50000  1.0000
  Ce  Ce7       1.0  0.12700  0.46300  0.75000  1.0000
  Ce  Ce8       1.0  0.87300  0.96300  0.75000  1.0000
  O   O1        1.0  0.26700  0.07590  0.03240  1.0000
  O   O2        1.0  0.73300  0.57600  0.03240  1.0000
  O   O3        1.0  0.95100  0.26700  0.11700  1.0000
  O   O4        1.0  0.04910  0.76700  0.11700  1.0000
  O   O5        1.0  0.95100  0.26700  0.38300  1.0000
  O   O6        1.0  0.04910  0.76700  0.38300  1.0000
  O   O7        1.0  0.26700  0.07590  0.46800  1.0000
  O   O8        1.0  0.73300  0.57600  0.46800  1.0000
  O   O9        1.0  0.26700  0.42400  0.53200  1.0000
  O   O10       1.0  0.73300  0.92400  0.53200  1.0000
  O   O11       1.0  0.95100  0.23300  0.61700  1.0000
  O   O12       1.0  0.04910  0.73300  0.61700  1.0000
  O   O13       1.0  0.95100  0.23300  0.88300  1.0000
  O   O14       1.0  0.04910  0.73300  0.88300  1.0000
  O   O15       1.0  0.26700  0.42400  0.96800  1.0000
  O   O16       1.0  0.73300  0.92400  0.96800  1.0000
  Se  Se1       1.0  0.41800  0.39800  0.25000  1.0000
  Se  Se2       1.0  0.58200  0.89800  0.25000  1.0000
  Se  Se3       1.0  0.41800  0.10200  0.75000  1.0000
  Se  Se4       1.0  0.58200  0.60200  0.75000  1.0000
  Si  Si1       1.0  0.11100  0.25000  0.00000  1.0000
  Si  Si2       1.0  0.88900  0.75000  0.00000  1.0000
  Si  Si3       1.0  0.11100  0.25000  0.50000  1.0000
  Si  Si4       1.0  0.88900  0.75000  0.50000  1.0000
