data_image0
_chemical_formula_structural       Cr2H12K6O12
_chemical_formula_sum              "Cr2 H12 K6 O12"
_cell_length_a       7.10437
_cell_length_b       7.10437
_cell_length_c       7.10437
_cell_angle_alpha    96.1394
_cell_angle_beta     96.1393
_cell_angle_gamma    96.1394

_space_group_name_H-M_alt    "P 1"
_space_group_IT_number       1

loop_
  _space_group_symop_operation_xyz
  'x, y, z'

loop_
  _atom_site_type_symbol
  _atom_site_label
  _atom_site_symmetry_multiplicity
  _atom_site_fract_x
  _atom_site_fract_y
  _atom_site_fract_z
  _atom_site_occupancy
  Cr  Cr1       1.0  0.00000  0.00000  0.00000  1.0000
  Cr  Cr2       1.0  0.50000  0.50000  0.50000  1.0000
  H   H1        1.0  0.34000  0.12200  0.08790  1.0000
  H   H2        1.0  0.08790  0.34000  0.12200  1.0000
  H   H3        1.0  0.41200  0.37800  0.16000  1.0000
  H   H4        1.0  0.12200  0.08790  0.34000  1.0000
  H   H5        1.0  0.16000  0.41200  0.37800  1.0000
  H   H6        1.0  0.37800  0.16000  0.41200  1.0000
  H   H7        1.0  0.62200  0.84000  0.58800  1.0000
  H   H8        1.0  0.84000  0.58800  0.62200  1.0000
  H   H9        1.0  0.87800  0.91200  0.66000  1.0000
  H   H10       1.0  0.58800  0.62200  0.84000  1.0000
  H   H11       1.0  0.91200  0.66000  0.87800  1.0000
  H   H12       1.0  0.66000  0.87800  0.91200  1.0000
  K   K1        1.0  0.37100  0.75000  0.12900  1.0000
  K   K2        1.0  0.87100  0.62900  0.25000  1.0000
  K   K3        1.0  0.75000  0.12900  0.37100  1.0000
  K   K4        1.0  0.25000  0.87100  0.62900  1.0000
  K   K5        1.0  0.12900  0.37100  0.75000  1.0000
  K   K6        1.0  0.62900  0.25000  0.87100  1.0000
  O   O1        1.0  0.72900  0.90200  0.03980  1.0000
  O   O2        1.0  0.96000  0.27100  0.09760  1.0000
  O   O3        1.0  0.54000  0.40200  0.22900  1.0000
  O   O4        1.0  0.09760  0.96000  0.27100  1.0000
  O   O5        1.0  0.22900  0.54000  0.40200  1.0000
  O   O6        1.0  0.59800  0.77100  0.46000  1.0000
  O   O7        1.0  0.40200  0.22900  0.54000  1.0000
  O   O8        1.0  0.77100  0.46000  0.59800  1.0000
  O   O9        1.0  0.90200  0.03980  0.72900  1.0000
  O   O10       1.0  0.46000  0.59800  0.77100  1.0000
  O   O11       1.0  0.03980  0.72900  0.90200  1.0000
  O   O12       1.0  0.27100  0.09760  0.96000  1.0000
