data_image0
_chemical_formula_structural       As4Na8O18Ti2
_chemical_formula_sum              "As4 Na8 O18 Ti2"
_cell_length_a       7.21115
_cell_length_b       7.6714
_cell_length_c       8.6629
_cell_angle_alpha    90.2959
_cell_angle_beta     114.595
_cell_angle_gamma    90

_space_group_name_H-M_alt    "P 1"
_space_group_IT_number       1

loop_
  _space_group_symop_operation_xyz
  'x, y, z'

loop_
  _atom_site_type_symbol
  _atom_site_label
  _atom_site_symmetry_multiplicity
  _atom_site_fract_x
  _atom_site_fract_y
  _atom_site_fract_z
  _atom_site_occupancy
  As  As1       1.0  0.61000  0.24300  0.22000  1.0000
  As  As2       1.0  0.12800  0.71800  0.25600  1.0000
  As  As3       1.0  0.87200  0.28200  0.74400  1.0000
  As  As4       1.0  0.39000  0.75700  0.78000  1.0000
  Na  Na1       1.0  0.25500  0.00000  0.00000  1.0000
  Na  Na2       1.0  0.74500  0.00000  0.00000  1.0000
  Na  Na3       1.0  0.10900  0.22800  0.21800  1.0000
  Na  Na4       1.0  0.63100  0.72800  0.26300  1.0000
  Na  Na5       1.0  0.00000  0.50000  0.50000  1.0000
  Na  Na6       1.0  0.50000  0.50000  0.50000  1.0000
  Na  Na7       1.0  0.36900  0.27200  0.73700  1.0000
  Na  Na8       1.0  0.89100  0.77200  0.78200  1.0000
  O   O1        1.0  0.50300  0.22000  0.00653  1.0000
  O   O2        1.0  0.03240  0.81700  0.06490  1.0000
  O   O3        1.0  0.14000  0.50000  0.28000  1.0000
  O   O4        1.0  0.44300  0.12800  0.28200  1.0000
  O   O5        1.0  0.83900  0.12800  0.28200  1.0000
  O   O6        1.0  0.65600  0.44200  0.31300  1.0000
  O   O7        1.0  0.38200  0.78400  0.36500  1.0000
  O   O8        1.0  0.98300  0.78400  0.36500  1.0000
  O   O9        1.0  0.24100  0.07430  0.48300  1.0000
  O   O10       1.0  0.75900  0.92600  0.51700  1.0000
  O   O11       1.0  0.01740  0.21600  0.63500  1.0000
  O   O12       1.0  0.61800  0.21600  0.63500  1.0000
  O   O13       1.0  0.34400  0.55800  0.68700  1.0000
  O   O14       1.0  0.16100  0.87200  0.71800  1.0000
  O   O15       1.0  0.55700  0.87200  0.71800  1.0000
  O   O16       1.0  0.86000  0.50000  0.72000  1.0000
  O   O17       1.0  0.96800  0.18300  0.93500  1.0000
  O   O18       1.0  0.49700  0.78000  0.99300  1.0000
  Ti  Ti1       1.0  0.00000  0.00000  0.50000  1.0000
  Ti  Ti2       1.0  0.50000  0.00000  0.50000  1.0000
