data_image0
_chemical_formula_structural       Cs2N6O22U2
_chemical_formula_sum              "Cs2 N6 O22 U2"
_cell_length_a       8.1954
_cell_length_b       8.1954
_cell_length_c       8.19541
_cell_angle_alpha    69.3083
_cell_angle_beta     110.692
_cell_angle_gamma    110.692

_space_group_name_H-M_alt    "P 1"
_space_group_IT_number       1

loop_
  _space_group_symop_operation_xyz
  'x, y, z'

loop_
  _atom_site_type_symbol
  _atom_site_label
  _atom_site_symmetry_multiplicity
  _atom_site_fract_x
  _atom_site_fract_y
  _atom_site_fract_z
  _atom_site_occupancy
  Cs  Cs1       1.0  0.00000  0.00000  0.00000  1.0000
  Cs  Cs2       1.0  0.50000  0.50000  0.50000  1.0000
  N   N1        1.0  0.56400  0.75000  0.06400  1.0000
  N   N2        1.0  0.06400  0.56400  0.25000  1.0000
  N   N3        1.0  0.25000  0.06400  0.43600  1.0000
  N   N4        1.0  0.75000  0.93600  0.56400  1.0000
  N   N5        1.0  0.93600  0.43600  0.75000  1.0000
  N   N6        1.0  0.43600  0.25000  0.93600  1.0000
  O   O1        1.0  0.42000  0.61700  0.06050  1.0000
  O   O2        1.0  0.43900  0.11700  0.08010  1.0000
  O   O3        1.0  0.92000  0.56100  0.11700  1.0000
  O   O4        1.0  0.84500  0.15500  0.15500  1.0000
  O   O5        1.0  0.69600  0.75000  0.19600  1.0000
  O   O6        1.0  0.19600  0.69600  0.25000  1.0000
  O   O7        1.0  0.25000  0.19600  0.30400  1.0000
  O   O8        1.0  0.65500  0.34500  0.34500  1.0000
  O   O9        1.0  0.06050  0.42000  0.38300  1.0000
  O   O10       1.0  0.61700  0.93900  0.42000  1.0000
  O   O11       1.0  0.11700  0.92000  0.43900  1.0000
  O   O12       1.0  0.88300  0.08010  0.56100  1.0000
  O   O13       1.0  0.38300  0.06050  0.58000  1.0000
  O   O14       1.0  0.93900  0.58000  0.61700  1.0000
  O   O15       1.0  0.34500  0.65500  0.65500  1.0000
  O   O16       1.0  0.75000  0.80400  0.69600  1.0000
  O   O17       1.0  0.80400  0.30400  0.75000  1.0000
  O   O18       1.0  0.30400  0.25000  0.80400  1.0000
  O   O19       1.0  0.15500  0.84500  0.84500  1.0000
  O   O20       1.0  0.08010  0.43900  0.88300  1.0000
  O   O21       1.0  0.56100  0.88300  0.92000  1.0000
  O   O22       1.0  0.58000  0.38300  0.93900  1.0000
  U   U1        1.0  0.75000  0.25000  0.25000  1.0000
  U   U2        1.0  0.25000  0.75000  0.75000  1.0000
