data_image0
_chemical_formula_structural       CoH8O16P4Rb2
_chemical_formula_sum              "Co1 H8 O16 P4 Rb2"
_cell_length_a       6.83509
_cell_length_b       7.18801
_cell_length_c       7.59533
_cell_angle_alpha    80.9442
_cell_angle_beta     70.2509
_cell_angle_gamma    85.6772

_space_group_name_H-M_alt    "P 1"
_space_group_IT_number       1

loop_
  _space_group_symop_operation_xyz
  'x, y, z'

loop_
  _atom_site_type_symbol
  _atom_site_label
  _atom_site_symmetry_multiplicity
  _atom_site_fract_x
  _atom_site_fract_y
  _atom_site_fract_z
  _atom_site_occupancy
  Co  Co1       1.0  0.00000  0.50000  0.00000  1.0000
  H   H1        1.0  0.24200  0.97200  0.04000  1.0000
  H   H2        1.0  0.88000  0.17200  0.20300  1.0000
  H   H3        1.0  0.88400  0.31200  0.34800  1.0000
  H   H4        1.0  0.40400  0.73200  0.43300  1.0000
  H   H5        1.0  0.59600  0.26800  0.56700  1.0000
  H   H6        1.0  0.11600  0.68800  0.65200  1.0000
  H   H7        1.0  0.12000  0.82800  0.79700  1.0000
  H   H8        1.0  0.75800  0.02780  0.96000  1.0000
  O   O1        1.0  0.19200  0.61600  0.11100  1.0000
  O   O2        1.0  0.76000  0.00000  0.15000  1.0000
  O   O3        1.0  0.73100  0.64700  0.15100  1.0000
  O   O4        1.0  0.24900  0.93500  0.17900  1.0000
  O   O5        1.0  0.95100  0.28200  0.21700  1.0000
  O   O6        1.0  0.90500  0.77000  0.36500  1.0000
  O   O7        1.0  0.22700  0.65300  0.42900  1.0000
  O   O8        1.0  0.53200  0.79900  0.44400  1.0000
  O   O9        1.0  0.46800  0.20100  0.55600  1.0000
  O   O10       1.0  0.77300  0.34700  0.57100  1.0000
  O   O11       1.0  0.09490  0.23000  0.63500  1.0000
  O   O12       1.0  0.04920  0.71800  0.78300  1.0000
  O   O13       1.0  0.75100  0.06490  0.82100  1.0000
  O   O14       1.0  0.26900  0.35300  0.84900  1.0000
  O   O15       1.0  0.24000  0.00000  0.85000  1.0000
  O   O16       1.0  0.80800  0.38400  0.88900  1.0000
  P   P1        1.0  0.72700  0.80300  0.26400  1.0000
  P   P2        1.0  0.15200  0.73700  0.26600  1.0000
  P   P3        1.0  0.84800  0.26300  0.73400  1.0000
  P   P4        1.0  0.27300  0.19700  0.73600  1.0000
  Rb  Rb1       1.0  0.40800  0.28400  0.20500  1.0000
  Rb  Rb2       1.0  0.59200  0.71600  0.79500  1.0000
