data_image0
_chemical_formula_structural       Ca2H12O14P4
_chemical_formula_sum              "Ca2 H12 O14 P4"
_cell_length_a       6.92437
_cell_length_b       7.91047
_cell_length_c       6.69649
_cell_angle_alpha    84.6779
_cell_angle_beta     95.6791
_cell_angle_gamma    112.058

_space_group_name_H-M_alt    "P 1"
_space_group_IT_number       1

loop_
  _space_group_symop_operation_xyz
  'x, y, z'

loop_
  _atom_site_type_symbol
  _atom_site_label
  _atom_site_symmetry_multiplicity
  _atom_site_fract_x
  _atom_site_fract_y
  _atom_site_fract_z
  _atom_site_occupancy
  Ca  Ca1       1.0  0.64100  0.74100  0.36600  1.0000
  Ca  Ca2       1.0  0.35900  0.25900  0.63400  1.0000
  H   H1        1.0  0.87200  0.73400  0.02090  1.0000
  H   H2        1.0  0.66400  0.30600  0.14200  1.0000
  H   H3        1.0  0.86500  0.12100  0.17000  1.0000
  H   H4        1.0  0.07260  0.49300  0.26100  1.0000
  H   H5        1.0  0.36800  0.97600  0.30300  1.0000
  H   H6        1.0  0.89700  0.14100  0.40500  1.0000
  H   H7        1.0  0.10300  0.85900  0.59500  1.0000
  H   H8        1.0  0.63200  0.02370  0.69700  1.0000
  H   H9        1.0  0.92700  0.50700  0.73900  1.0000
  H   H10       1.0  0.13500  0.87900  0.83000  1.0000
  H   H11       1.0  0.33600  0.69400  0.85800  1.0000
  H   H12       1.0  0.12800  0.26600  0.97900  1.0000
  O   O1        1.0  0.67100  0.74700  0.01590  1.0000
  O   O2        1.0  0.02040  0.72500  0.03270  1.0000
  O   O3        1.0  0.33100  0.78800  0.28200  1.0000
  O   O4        1.0  0.82400  0.05430  0.30000  1.0000
  O   O5        1.0  0.45800  0.43200  0.30700  1.0000
  O   O6        1.0  0.38000  0.10800  0.33500  1.0000
  O   O7        1.0  0.96300  0.70500  0.40600  1.0000
  O   O8        1.0  0.03650  0.29500  0.59400  1.0000
  O   O9        1.0  0.62000  0.89200  0.66500  1.0000
  O   O10       1.0  0.54200  0.56800  0.69300  1.0000
  O   O11       1.0  0.17600  0.94600  0.70000  1.0000
  O   O12       1.0  0.66900  0.21200  0.71800  1.0000
  O   O13       1.0  0.98000  0.27500  0.96700  1.0000
  O   O14       1.0  0.32900  0.25300  0.98400  1.0000
  P   P1        1.0  0.46000  0.28100  0.18400  1.0000
  P   P2        1.0  0.09640  0.67700  0.25500  1.0000
  P   P3        1.0  0.90400  0.32300  0.74500  1.0000
  P   P4        1.0  0.54000  0.71900  0.81600  1.0000
