data_image0
_chemical_formula_structural       F20Na8Sb4
_chemical_formula_sum              "F20 Na8 Sb4"
_cell_length_a       5.28775
_cell_length_b       10.6827
_cell_length_c       7.65534
_cell_angle_alpha    90
_cell_angle_beta     90
_cell_angle_gamma    90

_space_group_name_H-M_alt    "P 1"
_space_group_IT_number       1

loop_
  _space_group_symop_operation_xyz
  'x, y, z'

loop_
  _atom_site_type_symbol
  _atom_site_label
  _atom_site_symmetry_multiplicity
  _atom_site_fract_x
  _atom_site_fract_y
  _atom_site_fract_z
  _atom_site_occupancy
  F   F1        1.0  0.06090  0.98200  0.10800  1.0000
  F   F2        1.0  0.09270  0.37200  0.11500  1.0000
  F   F3        1.0  0.90600  0.70400  0.14400  1.0000
  F   F4        1.0  0.55400  0.31700  0.17000  1.0000
  F   F5        1.0  0.38300  0.55200  0.24400  1.0000
  F   F6        1.0  0.61700  0.05230  0.25600  1.0000
  F   F7        1.0  0.44600  0.81700  0.33000  1.0000
  F   F8        1.0  0.09390  0.20400  0.35600  1.0000
  F   F9        1.0  0.90700  0.87200  0.38500  1.0000
  F   F10       1.0  0.93900  0.48200  0.39200  1.0000
  F   F11       1.0  0.43900  0.01820  0.60800  1.0000
  F   F12       1.0  0.40700  0.62800  0.61500  1.0000
  F   F13       1.0  0.59400  0.29600  0.64400  1.0000
  F   F14       1.0  0.94600  0.68300  0.67000  1.0000
  F   F15       1.0  0.11700  0.44800  0.74400  1.0000
  F   F16       1.0  0.88300  0.94800  0.75600  1.0000
  F   F17       1.0  0.05410  0.18300  0.83000  1.0000
  F   F18       1.0  0.40600  0.79600  0.85600  1.0000
  F   F19       1.0  0.59300  0.12800  0.88500  1.0000
  F   F20       1.0  0.56100  0.51800  0.89200  1.0000
  Na  Na1       1.0  0.86600  0.18500  0.10700  1.0000
  Na  Na2       1.0  0.76300  0.50900  0.13600  1.0000
  Na  Na3       1.0  0.23700  0.00864  0.36400  1.0000
  Na  Na4       1.0  0.13400  0.68500  0.39300  1.0000
  Na  Na5       1.0  0.63400  0.81500  0.60700  1.0000
  Na  Na6       1.0  0.73700  0.49100  0.63600  1.0000
  Na  Na7       1.0  0.26300  0.99100  0.86400  1.0000
  Na  Na8       1.0  0.36600  0.31500  0.89300  1.0000
  Sb  Sb1       1.0  0.72200  0.87900  0.15200  1.0000
  Sb  Sb2       1.0  0.27800  0.37900  0.34800  1.0000
  Sb  Sb3       1.0  0.77800  0.12100  0.65200  1.0000
  Sb  Sb4       1.0  0.22200  0.62100  0.84800  1.0000
