data_image0
_chemical_formula_structural       EuMn28
_chemical_formula_sum              "Eu1 Mn28"
_cell_length_a       7.52627
_cell_length_b       7.52627
_cell_length_c       7.52627
_cell_angle_alpha    109.471
_cell_angle_beta     109.471
_cell_angle_gamma    109.471

_space_group_name_H-M_alt    "P 1"
_space_group_IT_number       1

loop_
  _space_group_symop_operation_xyz
  'x, y, z'

loop_
  _atom_site_type_symbol
  _atom_site_label
  _atom_site_symmetry_multiplicity
  _atom_site_fract_x
  _atom_site_fract_y
  _atom_site_fract_z
  _atom_site_occupancy
  Eu  Eu1       1.0  0.00000  0.00000  0.00000  1.0000
  Mn  Mn1       1.0  0.37400  0.00000  0.00000  1.0000
  Mn  Mn2       1.0  0.61200  0.32400  0.00000  1.0000
  Mn  Mn3       1.0  0.00000  0.37400  0.00000  1.0000
  Mn  Mn4       1.0  0.32400  0.61200  0.00000  1.0000
  Mn  Mn5       1.0  0.79800  0.61800  0.00000  1.0000
  Mn  Mn6       1.0  0.61800  0.79800  0.00000  1.0000
  Mn  Mn7       1.0  0.38200  0.38200  0.17900  1.0000
  Mn  Mn8       1.0  0.82100  0.20200  0.20200  1.0000
  Mn  Mn9       1.0  0.20200  0.82100  0.20200  1.0000
  Mn  Mn10      1.0  0.67600  0.67600  0.28900  1.0000
  Mn  Mn11      1.0  0.61200  0.00000  0.32400  1.0000
  Mn  Mn12      1.0  0.00000  0.61200  0.32400  1.0000
  Mn  Mn13      1.0  0.00000  0.00000  0.37400  1.0000
  Mn  Mn14      1.0  0.38200  0.17900  0.38200  1.0000
  Mn  Mn15      1.0  0.17900  0.38200  0.38200  1.0000
  Mn  Mn16      1.0  0.71100  0.38800  0.38800  1.0000
  Mn  Mn17      1.0  0.38800  0.71100  0.38800  1.0000
  Mn  Mn18      1.0  0.32400  0.00000  0.61200  1.0000
  Mn  Mn19      1.0  0.00000  0.32400  0.61200  1.0000
  Mn  Mn20      1.0  0.79800  0.00000  0.61800  1.0000
  Mn  Mn21      1.0  0.00000  0.79800  0.61800  1.0000
  Mn  Mn22      1.0  0.62600  0.62600  0.62600  1.0000
  Mn  Mn23      1.0  0.67600  0.28900  0.67600  1.0000
  Mn  Mn24      1.0  0.28900  0.67600  0.67600  1.0000
  Mn  Mn25      1.0  0.38800  0.38800  0.71100  1.0000
  Mn  Mn26      1.0  0.61800  0.00000  0.79800  1.0000
  Mn  Mn27      1.0  0.00000  0.61800  0.79800  1.0000
  Mn  Mn28      1.0  0.20200  0.20200  0.82100  1.0000
