data_image0
_chemical_formula_structural       Ge4Li4Nb4O20
_chemical_formula_sum              "Ge4 Li4 Nb4 O20"
_cell_length_a       7.76311
_cell_length_b       7.48882
_cell_length_c       6.72839
_cell_angle_alpha    90
_cell_angle_beta     90
_cell_angle_gamma    90

_space_group_name_H-M_alt    "P 1"
_space_group_IT_number       1

loop_
  _space_group_symop_operation_xyz
  'x, y, z'

loop_
  _atom_site_type_symbol
  _atom_site_label
  _atom_site_symmetry_multiplicity
  _atom_site_fract_x
  _atom_site_fract_y
  _atom_site_fract_z
  _atom_site_occupancy
  Ge  Ge1       1.0  0.36900  0.13600  0.25000  1.0000
  Ge  Ge2       1.0  0.86900  0.36400  0.25000  1.0000
  Ge  Ge3       1.0  0.13100  0.63600  0.75000  1.0000
  Ge  Ge4       1.0  0.63100  0.86400  0.75000  1.0000
  Li  Li1       1.0  0.00000  0.00000  0.00000  1.0000
  Li  Li2       1.0  0.50000  0.50000  0.00000  1.0000
  Li  Li3       1.0  0.00000  0.00000  0.50000  1.0000
  Li  Li4       1.0  0.50000  0.50000  0.50000  1.0000
  Nb  Nb1       1.0  0.16300  0.72700  0.25000  1.0000
  Nb  Nb2       1.0  0.66300  0.77300  0.25000  1.0000
  Nb  Nb3       1.0  0.33700  0.22700  0.75000  1.0000
  Nb  Nb4       1.0  0.83700  0.27300  0.75000  1.0000
  O   O1        1.0  0.87400  0.22700  0.04060  1.0000
  O   O2        1.0  0.37400  0.27300  0.04060  1.0000
  O   O3        1.0  0.18200  0.00437  0.25000  1.0000
  O   O4        1.0  0.55900  0.00568  0.25000  1.0000
  O   O5        1.0  0.05900  0.49400  0.25000  1.0000
  O   O6        1.0  0.68200  0.49600  0.25000  1.0000
  O   O7        1.0  0.38900  0.66200  0.25000  1.0000
  O   O8        1.0  0.88900  0.83800  0.25000  1.0000
  O   O9        1.0  0.87400  0.22700  0.45900  1.0000
  O   O10       1.0  0.37400  0.27300  0.45900  1.0000
  O   O11       1.0  0.62600  0.72700  0.54100  1.0000
  O   O12       1.0  0.12600  0.77300  0.54100  1.0000
  O   O13       1.0  0.11100  0.16200  0.75000  1.0000
  O   O14       1.0  0.61100  0.33800  0.75000  1.0000
  O   O15       1.0  0.31800  0.50400  0.75000  1.0000
  O   O16       1.0  0.94100  0.50600  0.75000  1.0000
  O   O17       1.0  0.44100  0.99400  0.75000  1.0000
  O   O18       1.0  0.81800  0.99600  0.75000  1.0000
  O   O19       1.0  0.62600  0.72700  0.95900  1.0000
  O   O20       1.0  0.12600  0.77300  0.95900  1.0000
