data_image0
_chemical_formula_structural       Ni2O20P4Ti4
_chemical_formula_sum              "Ni2 O20 P4 Ti4"
_cell_length_a       7.39542
_cell_length_b       7.3003
_cell_length_c       7.25729
_cell_angle_alpha    90
_cell_angle_beta     119.792
_cell_angle_gamma    90

_space_group_name_H-M_alt    "P 1"
_space_group_IT_number       1

loop_
  _space_group_symop_operation_xyz
  'x, y, z'

loop_
  _atom_site_type_symbol
  _atom_site_label
  _atom_site_symmetry_multiplicity
  _atom_site_fract_x
  _atom_site_fract_y
  _atom_site_fract_z
  _atom_site_occupancy
  Ni  Ni1       1.0  0.00000  0.00000  0.00000  1.0000
  Ni  Ni2       1.0  0.00000  0.50000  0.50000  1.0000
  O   O1        1.0  0.25600  0.48400  0.07700  1.0000
  O   O2        1.0  0.77700  0.99900  0.09120  1.0000
  O   O3        1.0  0.55800  0.75400  0.13200  1.0000
  O   O4        1.0  0.05770  0.24100  0.15300  1.0000
  O   O5        1.0  0.23000  0.83800  0.22300  1.0000
  O   O6        1.0  0.77000  0.33800  0.27700  1.0000
  O   O7        1.0  0.94200  0.74100  0.34700  1.0000
  O   O8        1.0  0.44200  0.25400  0.36800  1.0000
  O   O9        1.0  0.22300  0.49900  0.40900  1.0000
  O   O10       1.0  0.74400  0.98400  0.42300  1.0000
  O   O11       1.0  0.25600  0.01650  0.57700  1.0000
  O   O12       1.0  0.77700  0.50100  0.59100  1.0000
  O   O13       1.0  0.55800  0.74600  0.63200  1.0000
  O   O14       1.0  0.05770  0.25900  0.65300  1.0000
  O   O15       1.0  0.23000  0.66200  0.72300  1.0000
  O   O16       1.0  0.77000  0.16200  0.77700  1.0000
  O   O17       1.0  0.94200  0.75900  0.84700  1.0000
  O   O18       1.0  0.44200  0.24600  0.86800  1.0000
  O   O19       1.0  0.22300  0.00117  0.90900  1.0000
  O   O20       1.0  0.74400  0.51600  0.92300  1.0000
  P   P1        1.0  0.75400  0.87100  0.24900  1.0000
  P   P2        1.0  0.24600  0.37100  0.25100  1.0000
  P   P3        1.0  0.75400  0.62900  0.74900  1.0000
  P   P4        1.0  0.24600  0.12900  0.75100  1.0000
  Ti  Ti1       1.0  0.73500  0.27700  0.02210  1.0000
  Ti  Ti2       1.0  0.26500  0.77700  0.47800  1.0000
  Ti  Ti3       1.0  0.73500  0.22300  0.52200  1.0000
  Ti  Ti4       1.0  0.26500  0.72300  0.97800  1.0000
