data_image0
_chemical_formula_structural       B4Ge4Nd4O20
_chemical_formula_sum              "B4 Ge4 Nd4 O20"
_cell_length_a       10.0322
_cell_length_b       7.59849
_cell_length_c       4.94901
_cell_angle_alpha    90
_cell_angle_beta     92.097
_cell_angle_gamma    90

_space_group_name_H-M_alt    "P 1"
_space_group_IT_number       1

loop_
  _space_group_symop_operation_xyz
  'x, y, z'

loop_
  _atom_site_type_symbol
  _atom_site_label
  _atom_site_symmetry_multiplicity
  _atom_site_fract_x
  _atom_site_fract_y
  _atom_site_fract_z
  _atom_site_occupancy
  B   B1        1.0  0.66900  0.40400  0.45200  1.0000
  B   B2        1.0  0.16900  0.09600  0.45200  1.0000
  B   B3        1.0  0.33100  0.59600  0.54800  1.0000
  B   B4        1.0  0.83100  0.90400  0.54800  1.0000
  Ge  Ge1       1.0  0.07490  0.73300  0.47300  1.0000
  Ge  Ge2       1.0  0.57500  0.76700  0.47300  1.0000
  Ge  Ge3       1.0  0.42500  0.23300  0.52700  1.0000
  Ge  Ge4       1.0  0.92500  0.26700  0.52700  1.0000
  Nd  Nd1       1.0  0.18100  0.39100  0.00571  1.0000
  Nd  Nd2       1.0  0.68100  0.10900  0.00571  1.0000
  Nd  Nd3       1.0  0.31900  0.89100  0.99400  1.0000
  Nd  Nd4       1.0  0.81900  0.60900  0.99400  1.0000
  O   O1        1.0  0.02690  0.58600  0.22300  1.0000
  O   O2        1.0  0.52700  0.91400  0.22300  1.0000
  O   O3        1.0  0.81200  0.89600  0.26600  1.0000
  O   O4        1.0  0.31200  0.60400  0.26600  1.0000
  O   O5        1.0  0.29500  0.15900  0.29400  1.0000
  O   O6        1.0  0.79500  0.34100  0.29400  1.0000
  O   O7        1.0  0.14900  0.92000  0.32700  1.0000
  O   O8        1.0  0.64900  0.58000  0.32700  1.0000
  O   O9        1.0  0.56300  0.28600  0.33200  1.0000
  O   O10       1.0  0.06310  0.21400  0.33200  1.0000
  O   O11       1.0  0.43700  0.71400  0.66800  1.0000
  O   O12       1.0  0.93700  0.78600  0.66800  1.0000
  O   O13       1.0  0.35100  0.42000  0.67300  1.0000
  O   O14       1.0  0.85100  0.08040  0.67300  1.0000
  O   O15       1.0  0.20500  0.65900  0.70600  1.0000
  O   O16       1.0  0.70500  0.84100  0.70600  1.0000
  O   O17       1.0  0.18800  0.10400  0.73400  1.0000
  O   O18       1.0  0.68800  0.39600  0.73400  1.0000
  O   O19       1.0  0.47300  0.08560  0.77700  1.0000
  O   O20       1.0  0.97300  0.41400  0.77700  1.0000
