data_image0
_chemical_formula_structural       P4Se16Tl12
_chemical_formula_sum              "P4 Se16 Tl12"
_cell_length_a       9.55753
_cell_length_b       11.2566
_cell_length_c       9.35794
_cell_angle_alpha    90
_cell_angle_beta     90.0023
_cell_angle_gamma    90

_space_group_name_H-M_alt    "P 1"
_space_group_IT_number       1

loop_
  _space_group_symop_operation_xyz
  'x, y, z'

loop_
  _atom_site_type_symbol
  _atom_site_label
  _atom_site_symmetry_multiplicity
  _atom_site_fract_x
  _atom_site_fract_y
  _atom_site_fract_z
  _atom_site_occupancy
  P   P1        1.0  0.97200  0.75000  0.21900  1.0000
  P   P2        1.0  0.47200  0.25000  0.28100  1.0000
  P   P3        1.0  0.52800  0.75000  0.71900  1.0000
  P   P4        1.0  0.02820  0.25000  0.78100  1.0000
  Se  Se1       1.0  0.06450  0.75000  0.00020  1.0000
  Se  Se2       1.0  0.53400  0.08710  0.16000  1.0000
  Se  Se3       1.0  0.53400  0.41300  0.16000  1.0000
  Se  Se4       1.0  0.73700  0.75000  0.19400  1.0000
  Se  Se5       1.0  0.23700  0.25000  0.30600  1.0000
  Se  Se6       1.0  0.03370  0.58700  0.34000  1.0000
  Se  Se7       1.0  0.03370  0.91300  0.34000  1.0000
  Se  Se8       1.0  0.56500  0.25000  0.50000  1.0000
  Se  Se9       1.0  0.43500  0.75000  0.50000  1.0000
  Se  Se10      1.0  0.96600  0.08710  0.66000  1.0000
  Se  Se11      1.0  0.96600  0.41300  0.66000  1.0000
  Se  Se12      1.0  0.76300  0.75000  0.69400  1.0000
  Se  Se13      1.0  0.26300  0.25000  0.80600  1.0000
  Se  Se14      1.0  0.46600  0.58700  0.84000  1.0000
  Se  Se15      1.0  0.46600  0.91300  0.84000  1.0000
  Se  Se16      1.0  0.93500  0.25000  0.00000  1.0000
  Tl  Tl1       1.0  0.19600  0.05230  0.06340  1.0000
  Tl  Tl2       1.0  0.19600  0.44800  0.06340  1.0000
  Tl  Tl3       1.0  0.38800  0.75000  0.10000  1.0000
  Tl  Tl4       1.0  0.88800  0.25000  0.40000  1.0000
  Tl  Tl5       1.0  0.69600  0.55200  0.43700  1.0000
  Tl  Tl6       1.0  0.69600  0.94800  0.43700  1.0000
  Tl  Tl7       1.0  0.30400  0.05230  0.56300  1.0000
  Tl  Tl8       1.0  0.30400  0.44800  0.56300  1.0000
  Tl  Tl9       1.0  0.11200  0.75000  0.60000  1.0000
  Tl  Tl10      1.0  0.61200  0.25000  0.90000  1.0000
  Tl  Tl11      1.0  0.80400  0.55200  0.93700  1.0000
  Tl  Tl12      1.0  0.80400  0.94800  0.93700  1.0000
