data_image0
_chemical_formula_structural       Fe4H6Na2O16S4
_chemical_formula_sum              "Fe4 H6 Na2 O16 S4"
_cell_length_a       8.94587
_cell_length_b       7.72983
_cell_length_c       6.32995
_cell_angle_alpha    112.345
_cell_angle_beta     109.584
_cell_angle_gamma    100.576

_space_group_name_H-M_alt    "P 1"
_space_group_IT_number       1

loop_
  _space_group_symop_operation_xyz
  'x, y, z'

loop_
  _atom_site_type_symbol
  _atom_site_label
  _atom_site_symmetry_multiplicity
  _atom_site_fract_x
  _atom_site_fract_y
  _atom_site_fract_z
  _atom_site_occupancy
  Fe  Fe1       1.0  0.50000  0.00000  0.00000  1.0000
  Fe  Fe2       1.0  0.19000  0.17200  0.18300  1.0000
  Fe  Fe3       1.0  0.50000  0.00000  0.50000  1.0000
  Fe  Fe4       1.0  0.81000  0.82800  0.81700  1.0000
  H   H1        1.0  0.27200  0.55800  0.30200  1.0000
  H   H2        1.0  0.50800  0.28800  0.39300  1.0000
  H   H3        1.0  0.72800  0.43800  0.44200  1.0000
  H   H4        1.0  0.27200  0.56200  0.55800  1.0000
  H   H5        1.0  0.49200  0.71200  0.60700  1.0000
  H   H6        1.0  0.72800  0.44200  0.69800  1.0000
  Na  Na1       1.0  0.08680  0.81600  0.43000  1.0000
  Na  Na2       1.0  0.91300  0.18400  0.57000  1.0000
  O   O1        1.0  0.92900  0.14800  0.03800  1.0000
  O   O2        1.0  0.80300  0.74500  0.08960  1.0000
  O   O3        1.0  0.73100  0.26700  0.18500  1.0000
  O   O4        1.0  0.26000  0.73500  0.20300  1.0000
  O   O5        1.0  0.64000  0.92100  0.27400  1.0000
  O   O6        1.0  0.43100  0.14600  0.29100  1.0000
  O   O7        1.0  0.30400  0.49800  0.41700  1.0000
  O   O8        1.0  0.15100  0.17500  0.48900  1.0000
  O   O9        1.0  0.84900  0.82500  0.51100  1.0000
  O   O10       1.0  0.69600  0.50200  0.58300  1.0000
  O   O11       1.0  0.56900  0.85400  0.70900  1.0000
  O   O12       1.0  0.36000  0.07890  0.72600  1.0000
  O   O13       1.0  0.74000  0.26500  0.79700  1.0000
  O   O14       1.0  0.26900  0.73300  0.81500  1.0000
  O   O15       1.0  0.19700  0.25500  0.91000  1.0000
  O   O16       1.0  0.07060  0.85200  0.96200  1.0000
  S   S1        1.0  0.85300  0.31600  0.07370  1.0000
  S   S2        1.0  0.70200  0.74000  0.24000  1.0000
  S   S3        1.0  0.29800  0.26000  0.76000  1.0000
  S   S4        1.0  0.14700  0.68400  0.92600  1.0000
