data_image0
_chemical_formula_structural       Ag4Cs6S16Sb6
_chemical_formula_sum              "Ag4 Cs6 S16 Sb6"
_cell_length_a       10.7761
_cell_length_b       7.39067
_cell_length_c       12.953
_cell_angle_alpha    90
_cell_angle_beta     103.183
_cell_angle_gamma    90

_space_group_name_H-M_alt    "P 1"
_space_group_IT_number       1

loop_
  _space_group_symop_operation_xyz
  'x, y, z'

loop_
  _atom_site_type_symbol
  _atom_site_label
  _atom_site_symmetry_multiplicity
  _atom_site_fract_x
  _atom_site_fract_y
  _atom_site_fract_z
  _atom_site_occupancy
  Ag  Ag1       1.0  0.12800  0.52800  0.10200  1.0000
  Ag  Ag2       1.0  0.12800  0.97200  0.10200  1.0000
  Ag  Ag3       1.0  0.87200  0.02830  0.89800  1.0000
  Ag  Ag4       1.0  0.87200  0.47200  0.89800  1.0000
  Cs  Cs1       1.0  0.42300  0.25000  0.07410  1.0000
  Cs  Cs2       1.0  0.45700  0.75000  0.34400  1.0000
  Cs  Cs3       1.0  0.85300  0.25000  0.44700  1.0000
  Cs  Cs4       1.0  0.14700  0.75000  0.55300  1.0000
  Cs  Cs5       1.0  0.54300  0.25000  0.65600  1.0000
  Cs  Cs6       1.0  0.57700  0.75000  0.92600  1.0000
  S   S1        1.0  0.91000  0.75000  0.02570  1.0000
  S   S2        1.0  0.30600  0.75000  0.06500  1.0000
  S   S3        1.0  0.70800  0.00237  0.18600  1.0000
  S   S4        1.0  0.70800  0.49800  0.18600  1.0000
  S   S5        1.0  0.12100  0.51700  0.29400  1.0000
  S   S6        1.0  0.12100  0.98300  0.29400  1.0000
  S   S7        1.0  0.44300  0.25000  0.36200  1.0000
  S   S8        1.0  0.79700  0.75000  0.45100  1.0000
  S   S9        1.0  0.20300  0.25000  0.54900  1.0000
  S   S10       1.0  0.55700  0.75000  0.63800  1.0000
  S   S11       1.0  0.87900  0.01650  0.70600  1.0000
  S   S12       1.0  0.87900  0.48300  0.70600  1.0000
  S   S13       1.0  0.29200  0.50200  0.81400  1.0000
  S   S14       1.0  0.29200  0.99800  0.81400  1.0000
  S   S15       1.0  0.69400  0.25000  0.93500  1.0000
  S   S16       1.0  0.08990  0.25000  0.97400  1.0000
  Sb  Sb1       1.0  0.82800  0.25000  0.11400  1.0000
  Sb  Sb2       1.0  0.87200  0.75000  0.21100  1.0000
  Sb  Sb3       1.0  0.22800  0.25000  0.37300  1.0000
  Sb  Sb4       1.0  0.77200  0.75000  0.62700  1.0000
  Sb  Sb5       1.0  0.12800  0.25000  0.78900  1.0000
  Sb  Sb6       1.0  0.17200  0.75000  0.88600  1.0000
