data_image0
_chemical_formula_structural       H6Na2O16S4Zn4
_chemical_formula_sum              "H6 Na2 O16 S4 Zn4"
_cell_length_a       8.82032
_cell_length_b       7.69558
_cell_length_c       6.29359
_cell_angle_alpha    112.296
_cell_angle_beta     109.728
_cell_angle_gamma    100.574

_space_group_name_H-M_alt    "P 1"
_space_group_IT_number       1

loop_
  _space_group_symop_operation_xyz
  'x, y, z'

loop_
  _atom_site_type_symbol
  _atom_site_label
  _atom_site_symmetry_multiplicity
  _atom_site_fract_x
  _atom_site_fract_y
  _atom_site_fract_z
  _atom_site_occupancy
  H   H1        1.0  0.27100  0.55600  0.29700  1.0000
  H   H2        1.0  0.51000  0.28700  0.39100  1.0000
  H   H3        1.0  0.73200  0.44100  0.44600  1.0000
  H   H4        1.0  0.26800  0.55900  0.55400  1.0000
  H   H5        1.0  0.49000  0.71300  0.60900  1.0000
  H   H6        1.0  0.72900  0.44400  0.70300  1.0000
  Na  Na1       1.0  0.08740  0.81600  0.43000  1.0000
  Na  Na2       1.0  0.91300  0.18400  0.57000  1.0000
  O   O1        1.0  0.93100  0.14300  0.03190  1.0000
  O   O2        1.0  0.80000  0.73700  0.08650  1.0000
  O   O3        1.0  0.73600  0.26800  0.19200  1.0000
  O   O4        1.0  0.26200  0.73500  0.20300  1.0000
  O   O5        1.0  0.63300  0.91700  0.26800  1.0000
  O   O6        1.0  0.43100  0.14500  0.28800  1.0000
  O   O7        1.0  0.30300  0.49700  0.41500  1.0000
  O   O8        1.0  0.15100  0.17500  0.48700  1.0000
  O   O9        1.0  0.84900  0.82500  0.51300  1.0000
  O   O10       1.0  0.69700  0.50300  0.58500  1.0000
  O   O11       1.0  0.56900  0.85500  0.71200  1.0000
  O   O12       1.0  0.36700  0.08330  0.73200  1.0000
  O   O13       1.0  0.73800  0.26500  0.79700  1.0000
  O   O14       1.0  0.26400  0.73200  0.80800  1.0000
  O   O15       1.0  0.20000  0.26300  0.91400  1.0000
  O   O16       1.0  0.06900  0.85700  0.96800  1.0000
  S   S1        1.0  0.85600  0.31300  0.07410  1.0000
  S   S2        1.0  0.69900  0.73600  0.24100  1.0000
  S   S3        1.0  0.30100  0.26400  0.75900  1.0000
  S   S4        1.0  0.14400  0.68700  0.92600  1.0000
  Zn  Zn1       1.0  0.50000  0.00000  0.00000  1.0000
  Zn  Zn2       1.0  0.19600  0.17600  0.18600  1.0000
  Zn  Zn3       1.0  0.50000  0.00000  0.50000  1.0000
  Zn  Zn4       1.0  0.80400  0.82400  0.81400  1.0000
