data_image0
_chemical_formula_structural       K12S16Ta4
_chemical_formula_sum              "K12 S16 Ta4"
_cell_length_a       9.32194
_cell_length_b       10.8511
_cell_length_c       9.47293
_cell_angle_alpha    90
_cell_angle_beta     90
_cell_angle_gamma    90

_space_group_name_H-M_alt    "P 1"
_space_group_IT_number       1

loop_
  _space_group_symop_operation_xyz
  'x, y, z'

loop_
  _atom_site_type_symbol
  _atom_site_label
  _atom_site_symmetry_multiplicity
  _atom_site_fract_x
  _atom_site_fract_y
  _atom_site_fract_z
  _atom_site_occupancy
  K   K1        1.0  0.63600  0.25000  0.08180  1.0000
  K   K2        1.0  0.05710  0.54600  0.21100  1.0000
  K   K3        1.0  0.05710  0.95400  0.21100  1.0000
  K   K4        1.0  0.55700  0.54600  0.28900  1.0000
  K   K5        1.0  0.55700  0.95400  0.28900  1.0000
  K   K6        1.0  0.13600  0.25000  0.41800  1.0000
  K   K7        1.0  0.86400  0.75000  0.58200  1.0000
  K   K8        1.0  0.44300  0.04590  0.71100  1.0000
  K   K9        1.0  0.44300  0.45400  0.71100  1.0000
  K   K10       1.0  0.94300  0.04590  0.78900  1.0000
  K   K11       1.0  0.94300  0.45400  0.78900  1.0000
  K   K12       1.0  0.36400  0.75000  0.91800  1.0000
  S   S1        1.0  0.33500  0.07590  0.05340  1.0000
  S   S2        1.0  0.33500  0.42400  0.05340  1.0000
  S   S3        1.0  0.99100  0.25000  0.08590  1.0000
  S   S4        1.0  0.30700  0.75000  0.24600  1.0000
  S   S5        1.0  0.80700  0.75000  0.25400  1.0000
  S   S6        1.0  0.49100  0.25000  0.41400  1.0000
  S   S7        1.0  0.83500  0.07590  0.44700  1.0000
  S   S8        1.0  0.83500  0.42400  0.44700  1.0000
  S   S9        1.0  0.16500  0.57600  0.55300  1.0000
  S   S10       1.0  0.16500  0.92400  0.55300  1.0000
  S   S11       1.0  0.50900  0.75000  0.58600  1.0000
  S   S12       1.0  0.19300  0.25000  0.74600  1.0000
  S   S13       1.0  0.69300  0.25000  0.75400  1.0000
  S   S14       1.0  0.00903  0.75000  0.91400  1.0000
  S   S15       1.0  0.66500  0.57600  0.94700  1.0000
  S   S16       1.0  0.66500  0.92400  0.94700  1.0000
  Ta  Ta1       1.0  0.78500  0.75000  0.01310  1.0000
  Ta  Ta2       1.0  0.28500  0.75000  0.48700  1.0000
  Ta  Ta3       1.0  0.71500  0.25000  0.51300  1.0000
  Ta  Ta4       1.0  0.21500  0.25000  0.98700  1.0000
