data_image0
_chemical_formula_structural       Gd8O20Si4
_chemical_formula_sum              "Gd8 O20 Si4"
_cell_length_a       9.09406
_cell_length_b       6.99318
_cell_length_c       6.71328
_cell_angle_alpha    90
_cell_angle_beta     107.356
_cell_angle_gamma    90

_space_group_name_H-M_alt    "P 1"
_space_group_IT_number       1

loop_
  _space_group_symop_operation_xyz
  'x, y, z'

loop_
  _atom_site_type_symbol
  _atom_site_label
  _atom_site_symmetry_multiplicity
  _atom_site_fract_x
  _atom_site_fract_y
  _atom_site_fract_z
  _atom_site_occupancy
  Gd  Gd1       1.0  0.88500  0.64600  0.08250  1.0000
  Gd  Gd2       1.0  0.52700  0.62400  0.23300  1.0000
  Gd  Gd3       1.0  0.47300  0.12400  0.26700  1.0000
  Gd  Gd4       1.0  0.11500  0.14600  0.41800  1.0000
  Gd  Gd5       1.0  0.88500  0.85400  0.58200  1.0000
  Gd  Gd6       1.0  0.52700  0.87600  0.73300  1.0000
  Gd  Gd7       1.0  0.47300  0.37600  0.76700  1.0000
  Gd  Gd8       1.0  0.11500  0.35400  0.91800  1.0000
  O   O1        1.0  0.38700  0.86200  0.00803  1.0000
  O   O2        1.0  0.90400  0.27300  0.04940  1.0000
  O   O3        1.0  0.38200  0.38100  0.05170  1.0000
  O   O4        1.0  0.20400  0.07040  0.14400  1.0000
  O   O5        1.0  0.86700  0.95700  0.24700  1.0000
  O   O6        1.0  0.13300  0.45700  0.25300  1.0000
  O   O7        1.0  0.79600  0.57000  0.35600  1.0000
  O   O8        1.0  0.61800  0.88100  0.44800  1.0000
  O   O9        1.0  0.09620  0.77300  0.45100  1.0000
  O   O10       1.0  0.61300  0.36200  0.49200  1.0000
  O   O11       1.0  0.38700  0.63800  0.50800  1.0000
  O   O12       1.0  0.90400  0.22700  0.54900  1.0000
  O   O13       1.0  0.38200  0.11900  0.55200  1.0000
  O   O14       1.0  0.20400  0.43000  0.64400  1.0000
  O   O15       1.0  0.86700  0.54300  0.74700  1.0000
  O   O16       1.0  0.13300  0.04290  0.75300  1.0000
  O   O17       1.0  0.79600  0.93000  0.85600  1.0000
  O   O18       1.0  0.61800  0.61900  0.94800  1.0000
  O   O19       1.0  0.09620  0.72700  0.95100  1.0000
  O   O20       1.0  0.61300  0.13800  0.99200  1.0000
  Si  Si1       1.0  0.79700  0.08850  0.03930  1.0000
  Si  Si2       1.0  0.20300  0.58900  0.46100  1.0000
  Si  Si3       1.0  0.79700  0.41100  0.53900  1.0000
  Si  Si4       1.0  0.20300  0.91100  0.96100  1.0000
