data_image0
_chemical_formula_structural       CoH8O16P4Tl2
_chemical_formula_sum              "Co1 H8 O16 P4 Tl2"
_cell_length_a       6.83006
_cell_length_b       7.18866
_cell_length_c       7.54664
_cell_angle_alpha    80.3928
_cell_angle_beta     71.5913
_cell_angle_gamma    85.9592

_space_group_name_H-M_alt    "P 1"
_space_group_IT_number       1

loop_
  _space_group_symop_operation_xyz
  'x, y, z'

loop_
  _atom_site_type_symbol
  _atom_site_label
  _atom_site_symmetry_multiplicity
  _atom_site_fract_x
  _atom_site_fract_y
  _atom_site_fract_z
  _atom_site_occupancy
  Co  Co1       1.0  0.50000  0.50000  0.00000  1.0000
  H   H1        1.0  0.75300  0.97100  0.03810  1.0000
  H   H2        1.0  0.38900  0.16500  0.19700  1.0000
  H   H3        1.0  0.38700  0.30200  0.34700  1.0000
  H   H4        1.0  0.91400  0.72600  0.43500  1.0000
  H   H5        1.0  0.08640  0.27400  0.56500  1.0000
  H   H6        1.0  0.61300  0.69800  0.65300  1.0000
  H   H7        1.0  0.61100  0.83500  0.80300  1.0000
  H   H8        1.0  0.24700  0.02910  0.96200  1.0000
  O   O1        1.0  0.69300  0.61300  0.11600  1.0000
  O   O2        1.0  0.26300  0.99800  0.14700  1.0000
  O   O3        1.0  0.23800  0.64300  0.15100  1.0000
  O   O4        1.0  0.76100  0.93200  0.17800  1.0000
  O   O5        1.0  0.45700  0.27500  0.21700  1.0000
  O   O6        1.0  0.41600  0.77300  0.36300  1.0000
  O   O7        1.0  0.73300  0.65200  0.43500  1.0000
  O   O8        1.0  0.04460  0.79300  0.44200  1.0000
  O   O9        1.0  0.95500  0.20700  0.55800  1.0000
  O   O10       1.0  0.26700  0.34800  0.56500  1.0000
  O   O11       1.0  0.58400  0.22700  0.63700  1.0000
  O   O12       1.0  0.54300  0.72500  0.78300  1.0000
  O   O13       1.0  0.23900  0.06830  0.82200  1.0000
  O   O14       1.0  0.76200  0.35700  0.84900  1.0000
  O   O15       1.0  0.73700  0.00226  0.85300  1.0000
  O   O16       1.0  0.30700  0.38700  0.88400  1.0000
  P   P1        1.0  0.23500  0.80000  0.26200  1.0000
  P   P2        1.0  0.65900  0.73600  0.26800  1.0000
  P   P3        1.0  0.34100  0.26400  0.73200  1.0000
  P   P4        1.0  0.76500  0.20000  0.73800  1.0000
  Tl  Tl1       1.0  0.90900  0.28600  0.20200  1.0000
  Tl  Tl2       1.0  0.09080  0.71400  0.79800  1.0000
