data_image0
_chemical_formula_structural       B4C4Ca12Cl8N4
_chemical_formula_sum              "B4 C4 Ca12 Cl8 N4"
_cell_length_a       13.9514
_cell_length_b       3.82962
_cell_length_c       11.1926
_cell_angle_alpha    90
_cell_angle_beta     90
_cell_angle_gamma    90

_space_group_name_H-M_alt    "P 1"
_space_group_IT_number       1

loop_
  _space_group_symop_operation_xyz
  'x, y, z'

loop_
  _atom_site_type_symbol
  _atom_site_label
  _atom_site_symmetry_multiplicity
  _atom_site_fract_x
  _atom_site_fract_y
  _atom_site_fract_z
  _atom_site_occupancy
  B   B1        1.0  0.75600  0.75000  0.10100  1.0000
  B   B2        1.0  0.25600  0.75000  0.39900  1.0000
  B   B3        1.0  0.74400  0.25000  0.60100  1.0000
  B   B4        1.0  0.24400  0.25000  0.89900  1.0000
  C   C1        1.0  0.79500  0.75000  0.22100  1.0000
  C   C2        1.0  0.29500  0.75000  0.27900  1.0000
  C   C3        1.0  0.70500  0.25000  0.72100  1.0000
  C   C4        1.0  0.20500  0.25000  0.77900  1.0000
  Ca  Ca1       1.0  0.36300  0.75000  0.06860  1.0000
  Ca  Ca2       1.0  0.89800  0.25000  0.14200  1.0000
  Ca  Ca3       1.0  0.18800  0.25000  0.20000  1.0000
  Ca  Ca4       1.0  0.68800  0.25000  0.30000  1.0000
  Ca  Ca5       1.0  0.39800  0.25000  0.35800  1.0000
  Ca  Ca6       1.0  0.86300  0.75000  0.43100  1.0000
  Ca  Ca7       1.0  0.13700  0.25000  0.56900  1.0000
  Ca  Ca8       1.0  0.60200  0.75000  0.64200  1.0000
  Ca  Ca9       1.0  0.31200  0.75000  0.70000  1.0000
  Ca  Ca10      1.0  0.81200  0.75000  0.80000  1.0000
  Ca  Ca11      1.0  0.10200  0.75000  0.85800  1.0000
  Ca  Ca12      1.0  0.63700  0.25000  0.93100  1.0000
  Cl  Cl1       1.0  0.05560  0.75000  0.10500  1.0000
  Cl  Cl2       1.0  0.51100  0.25000  0.14000  1.0000
  Cl  Cl3       1.0  0.01120  0.25000  0.36000  1.0000
  Cl  Cl4       1.0  0.55600  0.75000  0.39500  1.0000
  Cl  Cl5       1.0  0.44400  0.25000  0.60500  1.0000
  Cl  Cl6       1.0  0.98900  0.75000  0.64000  1.0000
  Cl  Cl7       1.0  0.48900  0.75000  0.86000  1.0000
  Cl  Cl8       1.0  0.94400  0.25000  0.89500  1.0000
  N   N1        1.0  0.27100  0.25000  0.01560  1.0000
  N   N2        1.0  0.77100  0.25000  0.48400  1.0000
  N   N3        1.0  0.22900  0.75000  0.51600  1.0000
  N   N4        1.0  0.72900  0.75000  0.98400  1.0000
