data_image0
_chemical_formula_structural       B16C8Lu8
_chemical_formula_sum              "B16 C8 Lu8"
_cell_length_a       6.73137
_cell_length_b       6.73137
_cell_length_c       7.17914
_cell_angle_alpha    90
_cell_angle_beta     90
_cell_angle_gamma    90

_space_group_name_H-M_alt    "P 1"
_space_group_IT_number       1

loop_
  _space_group_symop_operation_xyz
  'x, y, z'

loop_
  _atom_site_type_symbol
  _atom_site_label
  _atom_site_symmetry_multiplicity
  _atom_site_fract_x
  _atom_site_fract_y
  _atom_site_fract_z
  _atom_site_occupancy
  B   B1        1.0  0.15300  0.03420  0.00000  1.0000
  B   B2        1.0  0.40300  0.09320  0.00000  1.0000
  B   B3        1.0  0.90300  0.40700  0.00000  1.0000
  B   B4        1.0  0.65300  0.46600  0.00000  1.0000
  B   B5        1.0  0.34700  0.53400  0.00000  1.0000
  B   B6        1.0  0.09670  0.59300  0.00000  1.0000
  B   B7        1.0  0.59700  0.90700  0.00000  1.0000
  B   B8        1.0  0.84700  0.96600  0.00000  1.0000
  B   B9        1.0  0.40700  0.09670  0.50000  1.0000
  B   B10       1.0  0.96600  0.15300  0.50000  1.0000
  B   B11       1.0  0.46600  0.34700  0.50000  1.0000
  B   B12       1.0  0.90700  0.40300  0.50000  1.0000
  B   B13       1.0  0.09320  0.59700  0.50000  1.0000
  B   B14       1.0  0.53400  0.65300  0.50000  1.0000
  B   B15       1.0  0.03420  0.84700  0.50000  1.0000
  B   B16       1.0  0.59300  0.90300  0.50000  1.0000
  C   C1        1.0  0.96000  0.17800  0.00000  1.0000
  C   C2        1.0  0.46000  0.32200  0.00000  1.0000
  C   C3        1.0  0.54000  0.67800  0.00000  1.0000
  C   C4        1.0  0.04010  0.82200  0.00000  1.0000
  C   C5        1.0  0.17800  0.04010  0.50000  1.0000
  C   C6        1.0  0.67800  0.46000  0.50000  1.0000
  C   C7        1.0  0.32200  0.54000  0.50000  1.0000
  C   C8        1.0  0.82200  0.96000  0.50000  1.0000
  Lu  Lu1       1.0  0.69100  0.19100  0.25000  1.0000
  Lu  Lu2       1.0  0.19100  0.30900  0.25000  1.0000
  Lu  Lu3       1.0  0.80900  0.69100  0.25000  1.0000
  Lu  Lu4       1.0  0.30900  0.80900  0.25000  1.0000
  Lu  Lu5       1.0  0.69100  0.19100  0.75000  1.0000
  Lu  Lu6       1.0  0.19100  0.30900  0.75000  1.0000
  Lu  Lu7       1.0  0.80900  0.69100  0.75000  1.0000
  Lu  Lu8       1.0  0.30900  0.80900  0.75000  1.0000
