data_image0
_chemical_formula_structural       O21Tl2V8
_chemical_formula_sum              "O21 Tl2 V8"
_cell_length_a       3.59947
_cell_length_b       7.64789
_cell_length_c       14.8733
_cell_angle_alpha    89.8744
_cell_angle_beta     90
_cell_angle_gamma    103.611

_space_group_name_H-M_alt    "P 1"
_space_group_IT_number       1

loop_
  _space_group_symop_operation_xyz
  'x, y, z'

loop_
  _atom_site_type_symbol
  _atom_site_label
  _atom_site_symmetry_multiplicity
  _atom_site_fract_x
  _atom_site_fract_y
  _atom_site_fract_z
  _atom_site_occupancy
  O   O1        1.0  0.00000  0.00000  0.00000  1.0000
  O   O2        1.0  0.80700  0.61400  0.03360  1.0000
  O   O3        1.0  0.61700  0.23400  0.04960  1.0000
  O   O4        1.0  0.21600  0.43200  0.14000  1.0000
  O   O5        1.0  0.39500  0.78900  0.14400  1.0000
  O   O6        1.0  0.04610  0.09230  0.17700  1.0000
  O   O7        1.0  0.66800  0.33500  0.25800  1.0000
  O   O8        1.0  0.29000  0.58100  0.31500  1.0000
  O   O9        1.0  0.11200  0.22400  0.37200  1.0000
  O   O10       1.0  0.91000  0.82100  0.44900  1.0000
  O   O11       1.0  0.70900  0.41800  0.46800  1.0000
  O   O12       1.0  0.29100  0.58200  0.53200  1.0000
  O   O13       1.0  0.08960  0.17900  0.55100  1.0000
  O   O14       1.0  0.88800  0.77600  0.62800  1.0000
  O   O15       1.0  0.71000  0.41900  0.68500  1.0000
  O   O16       1.0  0.33200  0.66500  0.74200  1.0000
  O   O17       1.0  0.95400  0.90800  0.82300  1.0000
  O   O18       1.0  0.60500  0.21100  0.85600  1.0000
  O   O19       1.0  0.78400  0.56800  0.86000  1.0000
  O   O20       1.0  0.38300  0.76600  0.95000  1.0000
  O   O21       1.0  0.19300  0.38600  0.96600  1.0000
  Tl  Tl1       1.0  0.47400  0.94900  0.31400  1.0000
  Tl  Tl2       1.0  0.52600  0.05110  0.68600  1.0000
  V   V1        1.0  0.31600  0.63200  0.06960  1.0000
  V   V2        1.0  0.09250  0.18500  0.07690  1.0000
  V   V3        1.0  0.19200  0.38300  0.26900  1.0000
  V   V4        1.0  0.16900  0.33800  0.47600  1.0000
  V   V5        1.0  0.83100  0.66200  0.52400  1.0000
  V   V6        1.0  0.80800  0.61700  0.73100  1.0000
  V   V7        1.0  0.90800  0.81500  0.92300  1.0000
  V   V8        1.0  0.68400  0.36800  0.93000  1.0000
