data_image0
_chemical_formula_structural       Li4O20Si4Ta4
_chemical_formula_sum              "Li4 O20 Si4 Ta4"
_cell_length_a       7.42537
_cell_length_b       7.88883
_cell_length_c       7.45241
_cell_angle_alpha    90
_cell_angle_beta     119.201
_cell_angle_gamma    90

_space_group_name_H-M_alt    "P 1"
_space_group_IT_number       1

loop_
  _space_group_symop_operation_xyz
  'x, y, z'

loop_
  _atom_site_type_symbol
  _atom_site_label
  _atom_site_symmetry_multiplicity
  _atom_site_fract_x
  _atom_site_fract_y
  _atom_site_fract_z
  _atom_site_occupancy
  Li  Li1       1.0  0.24900  0.93400  0.19200  1.0000
  Li  Li2       1.0  0.75100  0.43400  0.30800  1.0000
  Li  Li3       1.0  0.24900  0.56600  0.69200  1.0000
  Li  Li4       1.0  0.75100  0.06610  0.80800  1.0000
  O   O1        1.0  0.75800  0.99300  0.06640  1.0000
  O   O2        1.0  0.26500  0.49100  0.08840  1.0000
  O   O3        1.0  0.55800  0.24600  0.14400  1.0000
  O   O4        1.0  0.05550  0.74100  0.14600  1.0000
  O   O5        1.0  0.24800  0.17200  0.24600  1.0000
  O   O6        1.0  0.75200  0.67200  0.25400  1.0000
  O   O7        1.0  0.94400  0.24100  0.35400  1.0000
  O   O8        1.0  0.44200  0.74600  0.35600  1.0000
  O   O9        1.0  0.73500  0.99100  0.41200  1.0000
  O   O10       1.0  0.24200  0.49300  0.43400  1.0000
  O   O11       1.0  0.75800  0.50700  0.56600  1.0000
  O   O12       1.0  0.26500  0.00895  0.58800  1.0000
  O   O13       1.0  0.55800  0.25400  0.64400  1.0000
  O   O14       1.0  0.05550  0.75900  0.64600  1.0000
  O   O15       1.0  0.24800  0.32800  0.74600  1.0000
  O   O16       1.0  0.75200  0.82800  0.75400  1.0000
  O   O17       1.0  0.94400  0.25900  0.85400  1.0000
  O   O18       1.0  0.44200  0.75400  0.85600  1.0000
  O   O19       1.0  0.73500  0.50900  0.91200  1.0000
  O   O20       1.0  0.24200  0.00734  0.93400  1.0000
  Si  Si1       1.0  0.74900  0.11100  0.24100  1.0000
  Si  Si2       1.0  0.25100  0.61100  0.25900  1.0000
  Si  Si3       1.0  0.74900  0.38900  0.74100  1.0000
  Si  Si4       1.0  0.25100  0.88900  0.75900  1.0000
  Ta  Ta1       1.0  0.74800  0.73900  0.00592  1.0000
  Ta  Ta2       1.0  0.25200  0.23900  0.49400  1.0000
  Ta  Ta3       1.0  0.74800  0.76100  0.50600  1.0000
  Ta  Ta4       1.0  0.25200  0.26100  0.99400  1.0000
