data_image0
_chemical_formula_structural       K2O21V8
_chemical_formula_sum              "K2 O21 V8"
_cell_length_a       3.60174
_cell_length_b       7.57595
_cell_length_c       14.711
_cell_angle_alpha    90.9956
_cell_angle_beta     90.0185
_cell_angle_gamma    103.758

_space_group_name_H-M_alt    "P 1"
_space_group_IT_number       1

loop_
  _space_group_symop_operation_xyz
  'x, y, z'

loop_
  _atom_site_type_symbol
  _atom_site_label
  _atom_site_symmetry_multiplicity
  _atom_site_fract_x
  _atom_site_fract_y
  _atom_site_fract_z
  _atom_site_occupancy
  K   K1        1.0  0.52300  0.04990  0.31300  1.0000
  K   K2        1.0  0.47300  0.95000  0.68700  1.0000
  O   O1        1.0  0.99400  0.00017  0.00012  1.0000
  O   O2        1.0  0.19400  0.38700  0.03370  1.0000
  O   O3        1.0  0.38400  0.76900  0.05140  1.0000
  O   O4        1.0  0.78700  0.57300  0.14100  1.0000
  O   O5        1.0  0.60900  0.21300  0.14500  1.0000
  O   O6        1.0  0.96100  0.91700  0.18000  1.0000
  O   O7        1.0  0.33600  0.67100  0.26100  1.0000
  O   O8        1.0  0.71100  0.42000  0.31600  1.0000
  O   O9        1.0  0.89200  0.78300  0.37700  1.0000
  O   O10       1.0  0.08940  0.17900  0.44000  1.0000
  O   O11       1.0  0.29300  0.58600  0.47200  1.0000
  O   O12       1.0  0.70700  0.41400  0.52800  1.0000
  O   O13       1.0  0.91200  0.82100  0.56000  1.0000
  O   O14       1.0  0.10900  0.21700  0.62300  1.0000
  O   O15       1.0  0.29000  0.58000  0.68400  1.0000
  O   O16       1.0  0.66600  0.32900  0.73800  1.0000
  O   O17       1.0  0.04010  0.08280  0.82000  1.0000
  O   O18       1.0  0.39300  0.78700  0.85600  1.0000
  O   O19       1.0  0.21400  0.42700  0.85900  1.0000
  O   O20       1.0  0.61500  0.23100  0.94900  1.0000
  O   O21       1.0  0.80700  0.61300  0.96600  1.0000
  V   V1        1.0  0.68500  0.36900  0.06940  1.0000
  V   V2        1.0  0.90900  0.81900  0.07940  1.0000
  V   V3        1.0  0.81100  0.62000  0.27200  1.0000
  V   V4        1.0  0.83300  0.66500  0.48000  1.0000
  V   V5        1.0  0.16700  0.33500  0.52000  1.0000
  V   V6        1.0  0.18700  0.37900  0.72800  1.0000
  V   V7        1.0  0.09080  0.18200  0.92100  1.0000
  V   V8        1.0  0.31600  0.63100  0.93100  1.0000
