data_image0
_chemical_formula_structural       H10O16P4Tl2
_chemical_formula_sum              "H10 O16 P4 Tl2"
_cell_length_a       6.24895
_cell_length_b       6.24895
_cell_length_c       9.45248
_cell_angle_alpha    99.6464
_cell_angle_beta     99.6464
_cell_angle_gamma    74.6569

_space_group_name_H-M_alt    "P 1"
_space_group_IT_number       1

loop_
  _space_group_symop_operation_xyz
  'x, y, z'

loop_
  _atom_site_type_symbol
  _atom_site_label
  _atom_site_symmetry_multiplicity
  _atom_site_fract_x
  _atom_site_fract_y
  _atom_site_fract_z
  _atom_site_occupancy
  H   H1        1.0  0.38800  0.29000  0.02580  1.0000
  H   H2        1.0  0.09770  0.55100  0.17400  1.0000
  H   H3        1.0  0.70300  0.29700  0.25000  1.0000
  H   H4        1.0  0.44900  0.90200  0.32600  1.0000
  H   H5        1.0  0.71000  0.61200  0.47400  1.0000
  H   H6        1.0  0.29000  0.38800  0.52600  1.0000
  H   H7        1.0  0.55100  0.09770  0.67400  1.0000
  H   H8        1.0  0.29700  0.70300  0.75000  1.0000
  H   H9        1.0  0.90200  0.44900  0.82600  1.0000
  H   H10       1.0  0.61200  0.71000  0.97400  1.0000
  O   O1        1.0  0.55800  0.74600  0.07450  1.0000
  O   O2        1.0  0.27100  0.35100  0.16200  1.0000
  O   O3        1.0  0.78500  0.37400  0.17100  1.0000
  O   O4        1.0  0.96200  0.69400  0.18200  1.0000
  O   O5        1.0  0.30600  0.03840  0.31800  1.0000
  O   O6        1.0  0.62600  0.21500  0.32900  1.0000
  O   O7        1.0  0.64900  0.72900  0.33800  1.0000
  O   O8        1.0  0.25400  0.44200  0.42600  1.0000
  O   O9        1.0  0.74600  0.55800  0.57400  1.0000
  O   O10       1.0  0.35100  0.27100  0.66200  1.0000
  O   O11       1.0  0.37400  0.78500  0.67100  1.0000
  O   O12       1.0  0.69400  0.96200  0.68200  1.0000
  O   O13       1.0  0.03840  0.30600  0.81800  1.0000
  O   O14       1.0  0.21500  0.62600  0.82900  1.0000
  O   O15       1.0  0.72900  0.64900  0.83800  1.0000
  O   O16       1.0  0.44200  0.25400  0.92600  1.0000
  P   P1        1.0  0.73800  0.63100  0.19300  1.0000
  P   P2        1.0  0.36900  0.26200  0.30700  1.0000
  P   P3        1.0  0.63100  0.73800  0.69300  1.0000
  P   P4        1.0  0.26200  0.36900  0.80700  1.0000
  Tl  Tl1       1.0  0.00000  0.00000  0.00000  1.0000
  Tl  Tl2       1.0  0.00000  0.00000  0.50000  1.0000
