data_image0
_chemical_formula_structural       O20Sr8U4
_chemical_formula_sum              "O20 Sr8 U4"
_cell_length_a       8.13165
_cell_length_b       5.66341
_cell_length_c       11.9429
_cell_angle_alpha    90
_cell_angle_beta     108.692
_cell_angle_gamma    90

_space_group_name_H-M_alt    "P 1"
_space_group_IT_number       1

loop_
  _space_group_symop_operation_xyz
  'x, y, z'

loop_
  _atom_site_type_symbol
  _atom_site_label
  _atom_site_symmetry_multiplicity
  _atom_site_fract_x
  _atom_site_fract_y
  _atom_site_fract_z
  _atom_site_occupancy
  O   O1        1.0  0.75000  0.84300  0.00193  1.0000
  O   O2        1.0  0.60600  0.29800  0.07560  1.0000
  O   O3        1.0  0.01630  0.26500  0.12100  1.0000
  O   O4        1.0  0.11100  0.79100  0.14400  1.0000
  O   O5        1.0  0.55600  0.82700  0.16800  1.0000
  O   O6        1.0  0.44400  0.32700  0.33200  1.0000
  O   O7        1.0  0.88900  0.29100  0.35600  1.0000
  O   O8        1.0  0.98400  0.76500  0.37900  1.0000
  O   O9        1.0  0.39400  0.79800  0.42400  1.0000
  O   O10       1.0  0.25000  0.34300  0.49800  1.0000
  O   O11       1.0  0.75000  0.65700  0.50200  1.0000
  O   O12       1.0  0.60600  0.20200  0.57600  1.0000
  O   O13       1.0  0.01630  0.23500  0.62100  1.0000
  O   O14       1.0  0.11100  0.70900  0.64400  1.0000
  O   O15       1.0  0.55600  0.67300  0.66800  1.0000
  O   O16       1.0  0.44400  0.17300  0.83200  1.0000
  O   O17       1.0  0.88900  0.20900  0.85600  1.0000
  O   O18       1.0  0.98400  0.73500  0.87900  1.0000
  O   O19       1.0  0.39400  0.70200  0.92400  1.0000
  O   O20       1.0  0.25000  0.15700  0.99800  1.0000
  Sr  Sr1       1.0  0.33800  0.50100  0.13900  1.0000
  Sr  Sr2       1.0  0.84200  0.57100  0.18200  1.0000
  Sr  Sr3       1.0  0.15800  0.07110  0.31800  1.0000
  Sr  Sr4       1.0  0.66200  0.00114  0.36100  1.0000
  Sr  Sr5       1.0  0.33800  0.99900  0.63900  1.0000
  Sr  Sr6       1.0  0.84200  0.92900  0.68200  1.0000
  Sr  Sr7       1.0  0.15800  0.42900  0.81800  1.0000
  Sr  Sr8       1.0  0.66200  0.49900  0.86100  1.0000
  U   U1        1.0  0.00000  0.00000  0.00000  1.0000
  U   U2        1.0  0.50000  0.00000  0.00000  1.0000
  U   U3        1.0  0.50000  0.50000  0.50000  1.0000
  U   U4        1.0  0.00000  0.50000  0.50000  1.0000
