data_image0
_chemical_formula_structural       B2H16Na2O12
_chemical_formula_sum              "B2 H16 Na2 O12"
_cell_length_a       6.11565
_cell_length_b       8.30122
_cell_length_c       6.018
_cell_angle_alpha    69.8649
_cell_angle_beta     109.838
_cell_angle_gamma    108.58

_space_group_name_H-M_alt    "P 1"
_space_group_IT_number       1

loop_
  _space_group_symop_operation_xyz
  'x, y, z'

loop_
  _atom_site_type_symbol
  _atom_site_label
  _atom_site_symmetry_multiplicity
  _atom_site_fract_x
  _atom_site_fract_y
  _atom_site_fract_z
  _atom_site_occupancy
  B   B1        1.0  0.76500  0.62700  0.26100  1.0000
  B   B2        1.0  0.23500  0.37300  0.73900  1.0000
  H   H1        1.0  0.69100  0.43600  0.10000  1.0000
  H   H2        1.0  0.72100  0.11700  0.11800  1.0000
  H   H3        1.0  0.76100  0.94800  0.13800  1.0000
  H   H4        1.0  0.39700  0.73100  0.14300  1.0000
  H   H5        1.0  0.98800  0.80800  0.17000  1.0000
  H   H6        1.0  0.36900  0.77600  0.20200  1.0000
  H   H7        1.0  0.06100  0.41500  0.37100  1.0000
  H   H8        1.0  0.67500  0.31100  0.47900  1.0000
  H   H9        1.0  0.32500  0.68900  0.52100  1.0000
  H   H10       1.0  0.93900  0.58500  0.62900  1.0000
  H   H11       1.0  0.63100  0.22400  0.79800  1.0000
  H   H12       1.0  0.01230  0.19200  0.83000  1.0000
  H   H13       1.0  0.60300  0.26900  0.85700  1.0000
  H   H14       1.0  0.23900  0.05190  0.86200  1.0000
  H   H15       1.0  0.27900  0.88300  0.88200  1.0000
  H   H16       1.0  0.30900  0.56400  0.90000  1.0000
  Na  Na1       1.0  0.20200  0.18700  0.30200  1.0000
  Na  Na2       1.0  0.79800  0.81300  0.69800  1.0000
  O   O1        1.0  0.70800  0.74700  0.04870  1.0000
  O   O2        1.0  0.83600  0.04810  0.21700  1.0000
  O   O3        1.0  0.76700  0.46000  0.25800  1.0000
  O   O4        1.0  0.17500  0.87000  0.34700  1.0000
  O   O5        1.0  0.40400  0.81400  0.46700  1.0000
  O   O6        1.0  0.20000  0.37600  0.49300  1.0000
  O   O7        1.0  0.80000  0.62400  0.50700  1.0000
  O   O8        1.0  0.59600  0.18600  0.53300  1.0000
  O   O9        1.0  0.82500  0.13000  0.65300  1.0000
  O   O10       1.0  0.23300  0.54000  0.74200  1.0000
  O   O11       1.0  0.16400  0.95200  0.78300  1.0000
  O   O12       1.0  0.29200  0.25300  0.95100  1.0000
