data_image0
_chemical_formula_structural       Ce8O16Si4Te4
_chemical_formula_sum              "Ce8 O16 Si4 Te4"
_cell_length_a       6.4026
_cell_length_b       7.30923
_cell_length_c       11.3025
_cell_angle_alpha    90
_cell_angle_beta     90
_cell_angle_gamma    90

_space_group_name_H-M_alt    "P 1"
_space_group_IT_number       1

loop_
  _space_group_symop_operation_xyz
  'x, y, z'

loop_
  _atom_site_type_symbol
  _atom_site_label
  _atom_site_symmetry_multiplicity
  _atom_site_fract_x
  _atom_site_fract_y
  _atom_site_fract_z
  _atom_site_occupancy
  Ce  Ce1       1.0  0.61000  0.25000  0.00000  1.0000
  Ce  Ce2       1.0  0.39000  0.75000  0.00000  1.0000
  Ce  Ce3       1.0  0.11400  0.04050  0.25000  1.0000
  Ce  Ce4       1.0  0.88600  0.54000  0.25000  1.0000
  Ce  Ce5       1.0  0.61000  0.25000  0.50000  1.0000
  Ce  Ce6       1.0  0.39000  0.75000  0.50000  1.0000
  Ce  Ce7       1.0  0.11400  0.46000  0.75000  1.0000
  Ce  Ce8       1.0  0.88600  0.96000  0.75000  1.0000
  O   O1        1.0  0.26600  0.07860  0.03600  1.0000
  O   O2        1.0  0.73400  0.57900  0.03600  1.0000
  O   O3        1.0  0.95300  0.27100  0.11500  1.0000
  O   O4        1.0  0.04740  0.77100  0.11500  1.0000
  O   O5        1.0  0.95300  0.27100  0.38500  1.0000
  O   O6        1.0  0.04740  0.77100  0.38500  1.0000
  O   O7        1.0  0.26600  0.07860  0.46400  1.0000
  O   O8        1.0  0.73400  0.57900  0.46400  1.0000
  O   O9        1.0  0.26600  0.42100  0.53600  1.0000
  O   O10       1.0  0.73400  0.92100  0.53600  1.0000
  O   O11       1.0  0.95300  0.22900  0.61500  1.0000
  O   O12       1.0  0.04740  0.72900  0.61500  1.0000
  O   O13       1.0  0.95300  0.22900  0.88500  1.0000
  O   O14       1.0  0.04740  0.72900  0.88500  1.0000
  O   O15       1.0  0.26600  0.42100  0.96400  1.0000
  O   O16       1.0  0.73400  0.92100  0.96400  1.0000
  Si  Si1       1.0  0.11300  0.25000  0.00000  1.0000
  Si  Si2       1.0  0.88700  0.75000  0.00000  1.0000
  Si  Si3       1.0  0.11300  0.25000  0.50000  1.0000
  Si  Si4       1.0  0.88700  0.75000  0.50000  1.0000
  Te  Te1       1.0  0.40100  0.42900  0.25000  1.0000
  Te  Te2       1.0  0.59900  0.92900  0.25000  1.0000
  Te  Te3       1.0  0.40100  0.07090  0.75000  1.0000
  Te  Te4       1.0  0.59900  0.57100  0.75000  1.0000
