data_image0
_chemical_formula_structural       Br4H16Na4O8
_chemical_formula_sum              "Br4 H16 Na4 O8"
_cell_length_a       6.47339
_cell_length_b       10.103
_cell_length_c       6.60787
_cell_angle_alpha    90
_cell_angle_beta     113.431
_cell_angle_gamma    90

_space_group_name_H-M_alt    "P 1"
_space_group_IT_number       1

loop_
  _space_group_symop_operation_xyz
  'x, y, z'

loop_
  _atom_site_type_symbol
  _atom_site_label
  _atom_site_symmetry_multiplicity
  _atom_site_fract_x
  _atom_site_fract_y
  _atom_site_fract_z
  _atom_site_occupancy
  Br  Br1       1.0  0.79900  0.61500  0.21300  1.0000
  Br  Br2       1.0  0.20100  0.11500  0.28700  1.0000
  Br  Br3       1.0  0.79900  0.88500  0.71300  1.0000
  Br  Br4       1.0  0.20100  0.38500  0.78700  1.0000
  H   H1        1.0  0.13500  0.78300  0.07510  1.0000
  H   H2        1.0  0.26300  0.46400  0.12700  1.0000
  H   H3        1.0  0.26300  0.90300  0.21300  1.0000
  H   H4        1.0  0.87000  0.01890  0.23900  1.0000
  H   H5        1.0  0.13000  0.51900  0.26100  1.0000
  H   H6        1.0  0.73700  0.40300  0.28700  1.0000
  H   H7        1.0  0.73700  0.96400  0.37300  1.0000
  H   H8        1.0  0.86500  0.28300  0.42500  1.0000
  H   H9        1.0  0.13500  0.71700  0.57500  1.0000
  H   H10       1.0  0.26300  0.03620  0.62700  1.0000
  H   H11       1.0  0.26300  0.59700  0.71300  1.0000
  H   H12       1.0  0.87000  0.48100  0.73900  1.0000
  H   H13       1.0  0.13000  0.98100  0.76100  1.0000
  H   H14       1.0  0.73700  0.09700  0.78700  1.0000
  H   H15       1.0  0.73700  0.53600  0.87300  1.0000
  H   H16       1.0  0.86500  0.21700  0.92500  1.0000
  Na  Na1       1.0  0.48600  0.16900  0.04080  1.0000
  Na  Na2       1.0  0.51400  0.66900  0.45900  1.0000
  Na  Na3       1.0  0.48600  0.33100  0.54100  1.0000
  Na  Na4       1.0  0.51400  0.83100  0.95900  1.0000
  O   O1        1.0  0.28600  0.81100  0.17300  1.0000
  O   O2        1.0  0.71800  0.99000  0.22300  1.0000
  O   O3        1.0  0.28200  0.49000  0.27700  1.0000
  O   O4        1.0  0.71400  0.31100  0.32700  1.0000
  O   O5        1.0  0.28600  0.68900  0.67300  1.0000
  O   O6        1.0  0.71800  0.51000  0.72300  1.0000
  O   O7        1.0  0.28200  0.00990  0.77700  1.0000
  O   O8        1.0  0.71400  0.18900  0.82700  1.0000
