data_image0
_chemical_formula_structural       Cd4H8O16Se4
_chemical_formula_sum              "Cd4 H8 O16 Se4"
_cell_length_a       12.7821
_cell_length_b       5.88551
_cell_length_c       4.99437
_cell_angle_alpha    90
_cell_angle_beta     90
_cell_angle_gamma    90

_space_group_name_H-M_alt    "P 1"
_space_group_IT_number       1

loop_
  _space_group_symop_operation_xyz
  'x, y, z'

loop_
  _atom_site_type_symbol
  _atom_site_label
  _atom_site_symmetry_multiplicity
  _atom_site_fract_x
  _atom_site_fract_y
  _atom_site_fract_z
  _atom_site_occupancy
  Cd  Cd1       1.0  0.77400  0.25000  0.09710  1.0000
  Cd  Cd2       1.0  0.27400  0.25000  0.40300  1.0000
  Cd  Cd3       1.0  0.72600  0.75000  0.59700  1.0000
  Cd  Cd4       1.0  0.22600  0.75000  0.90300  1.0000
  H   H1        1.0  0.60700  0.61700  0.04890  1.0000
  H   H2        1.0  0.60700  0.88300  0.04890  1.0000
  H   H3        1.0  0.10700  0.61700  0.45100  1.0000
  H   H4        1.0  0.10700  0.88300  0.45100  1.0000
  H   H5        1.0  0.89300  0.11700  0.54900  1.0000
  H   H6        1.0  0.89300  0.38300  0.54900  1.0000
  H   H7        1.0  0.39300  0.11700  0.95100  1.0000
  H   H8        1.0  0.39300  0.38300  0.95100  1.0000
  O   O1        1.0  0.40000  0.25000  0.07290  1.0000
  O   O2        1.0  0.15200  0.02840  0.15600  1.0000
  O   O3        1.0  0.15200  0.47200  0.15600  1.0000
  O   O4        1.0  0.37000  0.75000  0.18400  1.0000
  O   O5        1.0  0.87000  0.75000  0.31600  1.0000
  O   O6        1.0  0.65200  0.02840  0.34400  1.0000
  O   O7        1.0  0.65200  0.47200  0.34400  1.0000
  O   O8        1.0  0.90000  0.25000  0.42700  1.0000
  O   O9        1.0  0.09970  0.75000  0.57300  1.0000
  O   O10       1.0  0.34800  0.52800  0.65600  1.0000
  O   O11       1.0  0.34800  0.97200  0.65600  1.0000
  O   O12       1.0  0.13000  0.25000  0.68400  1.0000
  O   O13       1.0  0.63000  0.25000  0.81600  1.0000
  O   O14       1.0  0.84800  0.52800  0.84400  1.0000
  O   O15       1.0  0.84800  0.97200  0.84400  1.0000
  O   O16       1.0  0.60000  0.75000  0.92700  1.0000
  Se  Se1       1.0  0.91700  0.75000  0.00213  1.0000
  Se  Se2       1.0  0.41700  0.75000  0.49800  1.0000
  Se  Se3       1.0  0.58300  0.25000  0.50200  1.0000
  Se  Se4       1.0  0.08270  0.25000  0.99800  1.0000
