data_image0
_chemical_formula_structural       Li4O20P4V4
_chemical_formula_sum              "Li4 O20 P4 V4"
_cell_length_a       6.66077
_cell_length_b       6.97223
_cell_length_c       7.94633
_cell_angle_alpha    89.4932
_cell_angle_beta     91.8164
_cell_angle_gamma    115.387

_space_group_name_H-M_alt    "P 1"
_space_group_IT_number       1

loop_
  _space_group_symop_operation_xyz
  'x, y, z'

loop_
  _atom_site_type_symbol
  _atom_site_label
  _atom_site_symmetry_multiplicity
  _atom_site_fract_x
  _atom_site_fract_y
  _atom_site_fract_z
  _atom_site_occupancy
  Li  Li1       1.0  0.22000  0.29600  0.07580  1.0000
  Li  Li2       1.0  0.29900  0.82100  0.42700  1.0000
  Li  Li3       1.0  0.70100  0.17900  0.57300  1.0000
  Li  Li4       1.0  0.78000  0.70400  0.92400  1.0000
  O   O1        1.0  0.71400  0.40900  0.01310  1.0000
  O   O2        1.0  0.88100  0.14500  0.02900  1.0000
  O   O3        1.0  0.73100  0.74100  0.16600  1.0000
  O   O4        1.0  0.44300  0.92600  0.17500  1.0000
  O   O5        1.0  0.08580  0.64000  0.23700  1.0000
  O   O6        1.0  0.43000  0.37700  0.28100  1.0000
  O   O7        1.0  0.06810  0.07910  0.30900  1.0000
  O   O8        1.0  0.76600  0.25300  0.32700  1.0000
  O   O9        1.0  0.63500  0.87700  0.47000  1.0000
  O   O10       1.0  0.81400  0.61900  0.48300  1.0000
  O   O11       1.0  0.18600  0.38100  0.51700  1.0000
  O   O12       1.0  0.36500  0.12300  0.53000  1.0000
  O   O13       1.0  0.23400  0.74700  0.67300  1.0000
  O   O14       1.0  0.93200  0.92100  0.69100  1.0000
  O   O15       1.0  0.57000  0.62300  0.71900  1.0000
  O   O16       1.0  0.91400  0.36000  0.76300  1.0000
  O   O17       1.0  0.55700  0.07440  0.82500  1.0000
  O   O18       1.0  0.26900  0.25900  0.83400  1.0000
  O   O19       1.0  0.11900  0.85500  0.97100  1.0000
  O   O20       1.0  0.28600  0.59100  0.98700  1.0000
  P   P1        1.0  0.23600  0.75200  0.08850  1.0000
  P   P2        1.0  0.26300  0.24200  0.41300  1.0000
  P   P3        1.0  0.73700  0.75800  0.58700  1.0000
  P   P4        1.0  0.76400  0.24800  0.91200  1.0000
  V   V1        1.0  0.75400  0.98300  0.23600  1.0000
  V   V2        1.0  0.75900  0.48700  0.26200  1.0000
  V   V3        1.0  0.24100  0.51300  0.73800  1.0000
  V   V4        1.0  0.24600  0.01660  0.76400  1.0000
