data_image0
_chemical_formula_structural       Al4Ge4O20Y4
_chemical_formula_sum              "Al4 Ge4 O20 Y4"
_cell_length_a       7.23094
_cell_length_b       8.34651
_cell_length_c       5.62493
_cell_angle_alpha    90
_cell_angle_beta     90
_cell_angle_gamma    90

_space_group_name_H-M_alt    "P 1"
_space_group_IT_number       1

loop_
  _space_group_symop_operation_xyz
  'x, y, z'

loop_
  _atom_site_type_symbol
  _atom_site_label
  _atom_site_symmetry_multiplicity
  _atom_site_fract_x
  _atom_site_fract_y
  _atom_site_fract_z
  _atom_site_occupancy
  Al  Al1       1.0  0.50000  0.00000  0.24900  1.0000
  Al  Al2       1.0  0.00000  0.50000  0.24900  1.0000
  Al  Al3       1.0  0.50000  0.00000  0.75100  1.0000
  Al  Al4       1.0  0.00000  0.50000  0.75100  1.0000
  Ge  Ge1       1.0  0.12000  0.14500  0.50000  1.0000
  Ge  Ge2       1.0  0.62000  0.35500  0.50000  1.0000
  Ge  Ge3       1.0  0.38000  0.64500  0.50000  1.0000
  Ge  Ge4       1.0  0.88000  0.85500  0.50000  1.0000
  O   O1        1.0  0.33700  0.05360  0.00000  1.0000
  O   O2        1.0  0.83700  0.44600  0.00000  1.0000
  O   O3        1.0  0.16300  0.55400  0.00000  1.0000
  O   O4        1.0  0.66300  0.94600  0.00000  1.0000
  O   O5        1.0  0.60600  0.21200  0.25200  1.0000
  O   O6        1.0  0.10600  0.28800  0.25200  1.0000
  O   O7        1.0  0.89400  0.71200  0.25200  1.0000
  O   O8        1.0  0.39400  0.78800  0.25200  1.0000
  O   O9        1.0  0.00000  0.00000  0.28500  1.0000
  O   O10       1.0  0.50000  0.50000  0.28500  1.0000
  O   O11       1.0  0.34700  0.06940  0.50000  1.0000
  O   O12       1.0  0.84700  0.43100  0.50000  1.0000
  O   O13       1.0  0.15300  0.56900  0.50000  1.0000
  O   O14       1.0  0.65300  0.93100  0.50000  1.0000
  O   O15       1.0  0.00000  0.00000  0.71500  1.0000
  O   O16       1.0  0.50000  0.50000  0.71500  1.0000
  O   O17       1.0  0.60600  0.21200  0.74800  1.0000
  O   O18       1.0  0.10600  0.28800  0.74800  1.0000
  O   O19       1.0  0.89400  0.71200  0.74800  1.0000
  O   O20       1.0  0.39400  0.78800  0.74800  1.0000
  Y   Y1        1.0  0.85900  0.17300  0.00000  1.0000
  Y   Y2        1.0  0.35900  0.32700  0.00000  1.0000
  Y   Y3        1.0  0.64100  0.67300  0.00000  1.0000
  Y   Y4        1.0  0.14100  0.82700  0.00000  1.0000
