data_image0
_chemical_formula_structural       Eu8I20Rb4
_chemical_formula_sum              "Eu8 I20 Rb4"
_cell_length_a       10.0641
_cell_length_b       8.99093
_cell_length_c       14.2764
_cell_angle_alpha    90
_cell_angle_beta     90.127
_cell_angle_gamma    90

_space_group_name_H-M_alt    "P 1"
_space_group_IT_number       1

loop_
  _space_group_symop_operation_xyz
  'x, y, z'

loop_
  _atom_site_type_symbol
  _atom_site_label
  _atom_site_symmetry_multiplicity
  _atom_site_fract_x
  _atom_site_fract_y
  _atom_site_fract_z
  _atom_site_occupancy
  Eu  Eu1       1.0  0.24500  0.42800  0.00579  1.0000
  Eu  Eu2       1.0  0.99700  0.97500  0.18100  1.0000
  Eu  Eu3       1.0  0.00340  0.47500  0.31900  1.0000
  Eu  Eu4       1.0  0.75500  0.92800  0.49400  1.0000
  Eu  Eu5       1.0  0.24500  0.07210  0.50600  1.0000
  Eu  Eu6       1.0  0.99700  0.52500  0.68100  1.0000
  Eu  Eu7       1.0  0.00340  0.02520  0.81900  1.0000
  Eu  Eu8       1.0  0.75500  0.57200  0.99400  1.0000
  I   I1        1.0  0.20800  0.04610  0.00353  1.0000
  I   I2        1.0  0.53500  0.32600  0.07870  1.0000
  I   I3        1.0  0.95800  0.33900  0.10000  1.0000
  I   I4        1.0  0.21400  0.66200  0.18200  1.0000
  I   I5        1.0  0.77700  0.68800  0.21500  1.0000
  I   I6        1.0  0.22300  0.18800  0.28500  1.0000
  I   I7        1.0  0.78600  0.16200  0.31800  1.0000
  I   I8        1.0  0.04170  0.83900  0.40000  1.0000
  I   I9        1.0  0.46500  0.82600  0.42100  1.0000
  I   I10       1.0  0.79200  0.54600  0.49600  1.0000
  I   I11       1.0  0.20800  0.45400  0.50400  1.0000
  I   I12       1.0  0.53500  0.17400  0.57900  1.0000
  I   I13       1.0  0.95800  0.16100  0.60000  1.0000
  I   I14       1.0  0.21400  0.83800  0.68200  1.0000
  I   I15       1.0  0.77700  0.81200  0.71500  1.0000
  I   I16       1.0  0.22300  0.31200  0.78500  1.0000
  I   I17       1.0  0.78600  0.33800  0.81800  1.0000
  I   I18       1.0  0.04170  0.66100  0.90000  1.0000
  I   I19       1.0  0.46500  0.67400  0.92100  1.0000
  I   I20       1.0  0.79200  0.95400  0.99600  1.0000
  Rb  Rb1       1.0  0.49200  0.94600  0.16800  1.0000
  Rb  Rb2       1.0  0.50800  0.44600  0.33200  1.0000
  Rb  Rb3       1.0  0.49200  0.55400  0.66800  1.0000
  Rb  Rb4       1.0  0.50800  0.05390  0.83200  1.0000
