data_image0
_chemical_formula_structural       B8O16Tl8
_chemical_formula_sum              "B8 O16 Tl8"
_cell_length_a       7.26832
_cell_length_b       7.26832
_cell_length_c       9.37925
_cell_angle_alpha    90
_cell_angle_beta     90
_cell_angle_gamma    90

_space_group_name_H-M_alt    "P 1"
_space_group_IT_number       1

loop_
  _space_group_symop_operation_xyz
  'x, y, z'

loop_
  _atom_site_type_symbol
  _atom_site_label
  _atom_site_symmetry_multiplicity
  _atom_site_fract_x
  _atom_site_fract_y
  _atom_site_fract_z
  _atom_site_occupancy
  B   B1        1.0  0.54400  0.59600  0.01840  1.0000
  B   B2        1.0  0.45700  0.87000  0.17100  1.0000
  B   B3        1.0  0.40400  0.54400  0.26800  1.0000
  B   B4        1.0  0.13000  0.45700  0.42100  1.0000
  B   B5        1.0  0.45600  0.40400  0.51800  1.0000
  B   B6        1.0  0.54300  0.13000  0.67100  1.0000
  B   B7        1.0  0.59600  0.45600  0.76800  1.0000
  B   B8        1.0  0.87000  0.54300  0.92100  1.0000
  O   O1        1.0  0.74800  0.57500  0.03370  1.0000
  O   O2        1.0  0.49900  0.79600  0.03800  1.0000
  O   O3        1.0  0.45600  0.48300  0.12600  1.0000
  O   O4        1.0  0.44100  0.05260  0.19400  1.0000
  O   O5        1.0  0.42500  0.74800  0.28400  1.0000
  O   O6        1.0  0.20400  0.49900  0.28800  1.0000
  O   O7        1.0  0.51700  0.45600  0.37600  1.0000
  O   O8        1.0  0.94700  0.44100  0.44400  1.0000
  O   O9        1.0  0.25200  0.42500  0.53400  1.0000
  O   O10       1.0  0.50100  0.20400  0.53800  1.0000
  O   O11       1.0  0.54400  0.51700  0.62600  1.0000
  O   O12       1.0  0.55900  0.94700  0.69400  1.0000
  O   O13       1.0  0.57500  0.25200  0.78400  1.0000
  O   O14       1.0  0.79600  0.50100  0.78800  1.0000
  O   O15       1.0  0.48300  0.54400  0.87600  1.0000
  O   O16       1.0  0.05260  0.55900  0.94400  1.0000
  Tl  Tl1       1.0  0.02010  0.75200  0.15900  1.0000
  Tl  Tl2       1.0  0.74600  0.25800  0.24500  1.0000
  Tl  Tl3       1.0  0.24800  0.02010  0.40900  1.0000
  Tl  Tl4       1.0  0.74200  0.74600  0.49500  1.0000
  Tl  Tl5       1.0  0.98000  0.24800  0.65900  1.0000
  Tl  Tl6       1.0  0.25400  0.74200  0.74500  1.0000
  Tl  Tl7       1.0  0.75200  0.98000  0.90900  1.0000
  Tl  Tl8       1.0  0.25800  0.25400  0.99500  1.0000
