data_image0
_chemical_formula_structural       Be4Na8O16Si4
_chemical_formula_sum              "Be4 Na8 O16 Si4"
_cell_length_a       7.05871
_cell_length_b       9.8704
_cell_length_c       4.9269
_cell_angle_alpha    90
_cell_angle_beta     90
_cell_angle_gamma    89.9281

_space_group_name_H-M_alt    "P 1"
_space_group_IT_number       1

loop_
  _space_group_symop_operation_xyz
  'x, y, z'

loop_
  _atom_site_type_symbol
  _atom_site_label
  _atom_site_symmetry_multiplicity
  _atom_site_fract_x
  _atom_site_fract_y
  _atom_site_fract_z
  _atom_site_occupancy
  Be  Be1       1.0  0.50100  0.08800  0.15900  1.0000
  Be  Be2       1.0  0.50100  0.58800  0.34100  1.0000
  Be  Be3       1.0  0.49900  0.41200  0.65900  1.0000
  Be  Be4       1.0  0.49900  0.91200  0.84100  1.0000
  Na  Na1       1.0  0.73600  0.36000  0.18300  1.0000
  Na  Na2       1.0  0.00182  0.11000  0.20900  1.0000
  Na  Na3       1.0  0.00182  0.61000  0.29100  1.0000
  Na  Na4       1.0  0.73600  0.86000  0.31700  1.0000
  Na  Na5       1.0  0.26400  0.14000  0.68300  1.0000
  Na  Na6       1.0  0.99800  0.39000  0.70900  1.0000
  Na  Na7       1.0  0.99800  0.89000  0.79100  1.0000
  Na  Na8       1.0  0.26400  0.64000  0.81700  1.0000
  O   O1        1.0  0.68700  0.62100  0.16600  1.0000
  O   O2        1.0  0.43900  0.92500  0.16900  1.0000
  O   O3        1.0  0.31600  0.17900  0.20900  1.0000
  O   O4        1.0  0.05890  0.37600  0.23500  1.0000
  O   O5        1.0  0.05890  0.87600  0.26500  1.0000
  O   O6        1.0  0.31600  0.67900  0.29100  1.0000
  O   O7        1.0  0.43900  0.42500  0.33100  1.0000
  O   O8        1.0  0.68700  0.12100  0.33400  1.0000
  O   O9        1.0  0.31300  0.87900  0.66600  1.0000
  O   O10       1.0  0.56100  0.57500  0.66900  1.0000
  O   O11       1.0  0.68400  0.32100  0.70900  1.0000
  O   O12       1.0  0.94100  0.12400  0.73500  1.0000
  O   O13       1.0  0.94100  0.62400  0.76500  1.0000
  O   O14       1.0  0.68400  0.82100  0.79100  1.0000
  O   O15       1.0  0.56100  0.07490  0.83100  1.0000
  O   O16       1.0  0.31300  0.37900  0.83400  1.0000
  Si  Si1       1.0  0.27700  0.34200  0.15600  1.0000
  Si  Si2       1.0  0.27700  0.84200  0.34400  1.0000
  Si  Si3       1.0  0.72300  0.15800  0.65600  1.0000
  Si  Si4       1.0  0.72300  0.65800  0.84400  1.0000
