data_image0
_chemical_formula_structural       Na4O20P4V4
_chemical_formula_sum              "Na4 O20 P4 V4"
_cell_length_a       6.47636
_cell_length_b       8.48215
_cell_length_c       6.92561
_cell_angle_alpha    90
_cell_angle_beta     114.124
_cell_angle_gamma    90

_space_group_name_H-M_alt    "P 1"
_space_group_IT_number       1

loop_
  _space_group_symop_operation_xyz
  'x, y, z'

loop_
  _atom_site_type_symbol
  _atom_site_label
  _atom_site_symmetry_multiplicity
  _atom_site_fract_x
  _atom_site_fract_y
  _atom_site_fract_z
  _atom_site_occupancy
  Na  Na1       1.0  0.24600  0.91500  0.22100  1.0000
  Na  Na2       1.0  0.75400  0.41500  0.27900  1.0000
  Na  Na3       1.0  0.24600  0.58500  0.72100  1.0000
  Na  Na4       1.0  0.75400  0.08460  0.77900  1.0000
  O   O1        1.0  0.06480  0.67300  0.08670  1.0000
  O   O2        1.0  0.57600  0.18100  0.09440  1.0000
  O   O3        1.0  0.85300  0.96200  0.12900  1.0000
  O   O4        1.0  0.36200  0.46500  0.13200  1.0000
  O   O5        1.0  0.25000  0.18200  0.24600  1.0000
  O   O6        1.0  0.75000  0.68200  0.25400  1.0000
  O   O7        1.0  0.63800  0.96500  0.36800  1.0000
  O   O8        1.0  0.14700  0.46200  0.37100  1.0000
  O   O9        1.0  0.42400  0.68100  0.40600  1.0000
  O   O10       1.0  0.93500  0.17300  0.41300  1.0000
  O   O11       1.0  0.06480  0.82700  0.58700  1.0000
  O   O12       1.0  0.57600  0.31900  0.59400  1.0000
  O   O13       1.0  0.85300  0.53800  0.62900  1.0000
  O   O14       1.0  0.36200  0.03470  0.63200  1.0000
  O   O15       1.0  0.25000  0.31800  0.74600  1.0000
  O   O16       1.0  0.75000  0.81800  0.75400  1.0000
  O   O17       1.0  0.63800  0.53500  0.86800  1.0000
  O   O18       1.0  0.14700  0.03800  0.87100  1.0000
  O   O19       1.0  0.42400  0.81900  0.90600  1.0000
  O   O20       1.0  0.93500  0.32700  0.91300  1.0000
  P   P1        1.0  0.24900  0.56700  0.24800  1.0000
  P   P2        1.0  0.75100  0.06750  0.25200  1.0000
  P   P3        1.0  0.24900  0.93300  0.74800  1.0000
  P   P4        1.0  0.75100  0.43300  0.75200  1.0000
  V   V1        1.0  0.74600  0.74200  0.01240  1.0000
  V   V2        1.0  0.25400  0.24200  0.48800  1.0000
  V   V3        1.0  0.74600  0.75800  0.51200  1.0000
  V   V4        1.0  0.25400  0.25800  0.98800  1.0000
