data_image0
_chemical_formula_structural       Bi4Mn8O20
_chemical_formula_sum              "Bi4 Mn8 O20"
_cell_length_a       7.50736
_cell_length_b       8.59014
_cell_length_c       5.83572
_cell_angle_alpha    90
_cell_angle_beta     90
_cell_angle_gamma    90

_space_group_name_H-M_alt    "P 1"
_space_group_IT_number       1

loop_
  _space_group_symop_operation_xyz
  'x, y, z'

loop_
  _atom_site_type_symbol
  _atom_site_label
  _atom_site_symmetry_multiplicity
  _atom_site_fract_x
  _atom_site_fract_y
  _atom_site_fract_z
  _atom_site_occupancy
  Bi  Bi1       1.0  0.14900  0.16600  0.00000  1.0000
  Bi  Bi2       1.0  0.64900  0.33400  0.00000  1.0000
  Bi  Bi3       1.0  0.35100  0.66600  0.00000  1.0000
  Bi  Bi4       1.0  0.85100  0.83400  0.00000  1.0000
  Mn  Mn1       1.0  0.50000  0.00000  0.25800  1.0000
  Mn  Mn2       1.0  0.00000  0.50000  0.25800  1.0000
  Mn  Mn3       1.0  0.90600  0.15200  0.50000  1.0000
  Mn  Mn4       1.0  0.40600  0.34800  0.50000  1.0000
  Mn  Mn5       1.0  0.59400  0.65200  0.50000  1.0000
  Mn  Mn6       1.0  0.09360  0.84800  0.50000  1.0000
  Mn  Mn7       1.0  0.50000  0.00000  0.74200  1.0000
  Mn  Mn8       1.0  0.00000  0.50000  0.74200  1.0000
  O   O1        1.0  0.65700  0.05760  0.00000  1.0000
  O   O2        1.0  0.15700  0.44200  0.00000  1.0000
  O   O3        1.0  0.84300  0.55800  0.00000  1.0000
  O   O4        1.0  0.34300  0.94200  0.00000  1.0000
  O   O5        1.0  0.38500  0.20100  0.25000  1.0000
  O   O6        1.0  0.88500  0.29900  0.25000  1.0000
  O   O7        1.0  0.11500  0.70100  0.25000  1.0000
  O   O8        1.0  0.61500  0.79900  0.25000  1.0000
  O   O9        1.0  0.00000  0.00000  0.28400  1.0000
  O   O10       1.0  0.50000  0.50000  0.28400  1.0000
  O   O11       1.0  0.64600  0.07500  0.50000  1.0000
  O   O12       1.0  0.14600  0.42500  0.50000  1.0000
  O   O13       1.0  0.85400  0.57500  0.50000  1.0000
  O   O14       1.0  0.35400  0.92500  0.50000  1.0000
  O   O15       1.0  0.00000  0.00000  0.71600  1.0000
  O   O16       1.0  0.50000  0.50000  0.71600  1.0000
  O   O17       1.0  0.38500  0.20100  0.75000  1.0000
  O   O18       1.0  0.88500  0.29900  0.75000  1.0000
  O   O19       1.0  0.11500  0.70100  0.75000  1.0000
  O   O20       1.0  0.61500  0.79900  0.75000  1.0000
