data_image0
_chemical_formula_structural       Cl22Cs2Nb8
_chemical_formula_sum              "Cl22 Cs2 Nb8"
_cell_length_a       16.2689
_cell_length_b       7.01104
_cell_length_c       6.84474
_cell_angle_alpha    90
_cell_angle_beta     90
_cell_angle_gamma    90

_space_group_name_H-M_alt    "P 1"
_space_group_IT_number       1

loop_
  _space_group_symop_operation_xyz
  'x, y, z'

loop_
  _atom_site_type_symbol
  _atom_site_label
  _atom_site_symmetry_multiplicity
  _atom_site_fract_x
  _atom_site_fract_y
  _atom_site_fract_z
  _atom_site_occupancy
  Cl  Cl1       1.0  0.25000  0.23200  0.01400  1.0000
  Cl  Cl2       1.0  0.25000  0.76800  0.01400  1.0000
  Cl  Cl3       1.0  0.08290  0.50000  0.13600  1.0000
  Cl  Cl4       1.0  0.41700  0.50000  0.13600  1.0000
  Cl  Cl5       1.0  0.08580  0.00000  0.21200  1.0000
  Cl  Cl6       1.0  0.41400  0.00000  0.21200  1.0000
  Cl  Cl7       1.0  0.57800  0.25100  0.31500  1.0000
  Cl  Cl8       1.0  0.92200  0.25100  0.31500  1.0000
  Cl  Cl9       1.0  0.57800  0.74900  0.31500  1.0000
  Cl  Cl10      1.0  0.92200  0.74900  0.31500  1.0000
  Cl  Cl11      1.0  0.75000  0.00000  0.40500  1.0000
  Cl  Cl12      1.0  0.25000  0.00000  0.59500  1.0000
  Cl  Cl13      1.0  0.07770  0.25100  0.68500  1.0000
  Cl  Cl14      1.0  0.42200  0.25100  0.68500  1.0000
  Cl  Cl15      1.0  0.07770  0.74900  0.68500  1.0000
  Cl  Cl16      1.0  0.42200  0.74900  0.68500  1.0000
  Cl  Cl17      1.0  0.58600  0.00000  0.78800  1.0000
  Cl  Cl18      1.0  0.91400  0.00000  0.78800  1.0000
  Cl  Cl19      1.0  0.58300  0.50000  0.86400  1.0000
  Cl  Cl20      1.0  0.91700  0.50000  0.86400  1.0000
  Cl  Cl21      1.0  0.75000  0.23200  0.98600  1.0000
  Cl  Cl22      1.0  0.75000  0.76800  0.98600  1.0000
  Cs  Cs1       1.0  0.25000  0.50000  0.48600  1.0000
  Cs  Cs2       1.0  0.75000  0.50000  0.51400  1.0000
  Nb  Nb1       1.0  0.00000  0.21500  0.00000  1.0000
  Nb  Nb2       1.0  0.50000  0.21500  0.00000  1.0000
  Nb  Nb3       1.0  0.00000  0.78500  0.00000  1.0000
  Nb  Nb4       1.0  0.50000  0.78500  0.00000  1.0000
  Nb  Nb5       1.0  0.64100  0.00000  0.12200  1.0000
  Nb  Nb6       1.0  0.85900  0.00000  0.12200  1.0000
  Nb  Nb7       1.0  0.14100  0.00000  0.87800  1.0000
  Nb  Nb8       1.0  0.35900  0.00000  0.87800  1.0000
