data_image0
_chemical_formula_structural       B16C8Tb8
_chemical_formula_sum              "B16 C8 Tb8"
_cell_length_a       6.80301
_cell_length_b       6.80301
_cell_length_c       7.53465
_cell_angle_alpha    90
_cell_angle_beta     90
_cell_angle_gamma    90

_space_group_name_H-M_alt    "P 1"
_space_group_IT_number       1

loop_
  _space_group_symop_operation_xyz
  'x, y, z'

loop_
  _atom_site_type_symbol
  _atom_site_label
  _atom_site_symmetry_multiplicity
  _atom_site_fract_x
  _atom_site_fract_y
  _atom_site_fract_z
  _atom_site_occupancy
  B   B1        1.0  0.15100  0.03480  0.00000  1.0000
  B   B2        1.0  0.40300  0.09520  0.00000  1.0000
  B   B3        1.0  0.90300  0.40500  0.00000  1.0000
  B   B4        1.0  0.65100  0.46500  0.00000  1.0000
  B   B5        1.0  0.34900  0.53500  0.00000  1.0000
  B   B6        1.0  0.09710  0.59500  0.00000  1.0000
  B   B7        1.0  0.59700  0.90500  0.00000  1.0000
  B   B8        1.0  0.84900  0.96500  0.00000  1.0000
  B   B9        1.0  0.40500  0.09710  0.50000  1.0000
  B   B10       1.0  0.96500  0.15100  0.50000  1.0000
  B   B11       1.0  0.46500  0.34900  0.50000  1.0000
  B   B12       1.0  0.90500  0.40300  0.50000  1.0000
  B   B13       1.0  0.09520  0.59700  0.50000  1.0000
  B   B14       1.0  0.53500  0.65100  0.50000  1.0000
  B   B15       1.0  0.03480  0.84900  0.50000  1.0000
  B   B16       1.0  0.59500  0.90300  0.50000  1.0000
  C   C1        1.0  0.95900  0.17700  0.00000  1.0000
  C   C2        1.0  0.45900  0.32300  0.00000  1.0000
  C   C3        1.0  0.54100  0.67700  0.00000  1.0000
  C   C4        1.0  0.04080  0.82300  0.00000  1.0000
  C   C5        1.0  0.17700  0.04080  0.50000  1.0000
  C   C6        1.0  0.67700  0.45900  0.50000  1.0000
  C   C7        1.0  0.32300  0.54100  0.50000  1.0000
  C   C8        1.0  0.82300  0.95900  0.50000  1.0000
  Tb  Tb1       1.0  0.69000  0.19000  0.25000  1.0000
  Tb  Tb2       1.0  0.19000  0.31000  0.25000  1.0000
  Tb  Tb3       1.0  0.81000  0.69000  0.25000  1.0000
  Tb  Tb4       1.0  0.31000  0.81000  0.25000  1.0000
  Tb  Tb5       1.0  0.69000  0.19000  0.75000  1.0000
  Tb  Tb6       1.0  0.19000  0.31000  0.75000  1.0000
  Tb  Tb7       1.0  0.81000  0.69000  0.75000  1.0000
  Tb  Tb8       1.0  0.31000  0.81000  0.75000  1.0000
