data_image0
_chemical_formula_structural       C8Cs4H4O16
_chemical_formula_sum              "C8 Cs4 H4 O16"
_cell_length_a       10.5634
_cell_length_b       6.50207
_cell_length_c       6.48967
_cell_angle_alpha    90
_cell_angle_beta     95.9474
_cell_angle_gamma    90

_space_group_name_H-M_alt    "P 1"
_space_group_IT_number       1

loop_
  _space_group_symop_operation_xyz
  'x, y, z'

loop_
  _atom_site_type_symbol
  _atom_site_label
  _atom_site_symmetry_multiplicity
  _atom_site_fract_x
  _atom_site_fract_y
  _atom_site_fract_z
  _atom_site_occupancy
  C   C1        1.0  0.94200  0.46200  0.05580  1.0000
  C   C2        1.0  0.49900  0.41400  0.08170  1.0000
  C   C3        1.0  0.50100  0.91400  0.41800  1.0000
  C   C4        1.0  0.05770  0.96200  0.44400  1.0000
  C   C5        1.0  0.94200  0.03790  0.55600  1.0000
  C   C6        1.0  0.49900  0.08610  0.58200  1.0000
  C   C7        1.0  0.50100  0.58600  0.91800  1.0000
  C   C8        1.0  0.05770  0.53800  0.94400  1.0000
  Cs  Cs1       1.0  0.79500  0.00428  0.00809  1.0000
  Cs  Cs2       1.0  0.20500  0.50400  0.49200  1.0000
  Cs  Cs3       1.0  0.79500  0.49600  0.50800  1.0000
  Cs  Cs4       1.0  0.20500  0.99600  0.99200  1.0000
  H   H1        1.0  0.30800  0.44100  0.05440  1.0000
  H   H2        1.0  0.69200  0.94100  0.44600  1.0000
  H   H3        1.0  0.30800  0.05890  0.55400  1.0000
  H   H4        1.0  0.69200  0.55900  0.94600  1.0000
  O   O1        1.0  0.16600  0.46600  0.01630  1.0000
  O   O2        1.0  0.38500  0.36400  0.13100  1.0000
  O   O3        1.0  0.59700  0.33000  0.15800  1.0000
  O   O4        1.0  0.96300  0.33800  0.20400  1.0000
  O   O5        1.0  0.03700  0.83800  0.29600  1.0000
  O   O6        1.0  0.40300  0.83000  0.34200  1.0000
  O   O7        1.0  0.61500  0.86400  0.36900  1.0000
  O   O8        1.0  0.83400  0.96600  0.48400  1.0000
  O   O9        1.0  0.16600  0.03380  0.51600  1.0000
  O   O10       1.0  0.38500  0.13600  0.63100  1.0000
  O   O11       1.0  0.59700  0.17000  0.65800  1.0000
  O   O12       1.0  0.96300  0.16200  0.70400  1.0000
  O   O13       1.0  0.03700  0.66200  0.79600  1.0000
  O   O14       1.0  0.40300  0.67000  0.84200  1.0000
  O   O15       1.0  0.61500  0.63600  0.86900  1.0000
  O   O16       1.0  0.83400  0.53400  0.98400  1.0000
