data_image0
_chemical_formula_structural       As4H8Li4O16
_chemical_formula_sum              "As4 H8 Li4 O16"
_cell_length_a       6.3067
_cell_length_b       7.65176
_cell_length_c       7.23781
_cell_angle_alpha    90
_cell_angle_beta     90
_cell_angle_gamma    90

_space_group_name_H-M_alt    "P 1"
_space_group_IT_number       1

loop_
  _space_group_symop_operation_xyz
  'x, y, z'

loop_
  _atom_site_type_symbol
  _atom_site_label
  _atom_site_symmetry_multiplicity
  _atom_site_fract_x
  _atom_site_fract_y
  _atom_site_fract_z
  _atom_site_occupancy
  As  As1       1.0  0.80000  0.07950  0.16600  1.0000
  As  As2       1.0  0.30000  0.42100  0.16600  1.0000
  As  As3       1.0  0.70000  0.57900  0.66600  1.0000
  As  As4       1.0  0.20000  0.92100  0.66600  1.0000
  H   H1        1.0  0.47500  0.12500  0.04820  1.0000
  H   H2        1.0  0.97500  0.37500  0.04820  1.0000
  H   H3        1.0  0.49700  0.63900  0.32600  1.0000
  H   H4        1.0  0.99700  0.86100  0.32600  1.0000
  H   H5        1.0  0.02500  0.62500  0.54800  1.0000
  H   H6        1.0  0.52500  0.87500  0.54800  1.0000
  H   H7        1.0  0.00270  0.13900  0.82600  1.0000
  H   H8        1.0  0.50300  0.36100  0.82600  1.0000
  Li  Li1       1.0  0.52400  0.21400  0.49500  1.0000
  Li  Li2       1.0  0.02380  0.28600  0.49500  1.0000
  Li  Li3       1.0  0.97600  0.71400  0.99500  1.0000
  Li  Li4       1.0  0.47600  0.78600  0.99500  1.0000
  O   O1        1.0  0.54800  0.01060  0.09480  1.0000
  O   O2        1.0  0.04810  0.48900  0.09480  1.0000
  O   O3        1.0  0.43000  0.61900  0.19200  1.0000
  O   O4        1.0  0.93000  0.88100  0.19200  1.0000
  O   O5        1.0  0.78400  0.19500  0.36200  1.0000
  O   O6        1.0  0.28400  0.30500  0.36200  1.0000
  O   O7        1.0  0.58500  0.69600  0.49300  1.0000
  O   O8        1.0  0.08470  0.80400  0.49300  1.0000
  O   O9        1.0  0.95200  0.51100  0.59500  1.0000
  O   O10       1.0  0.45200  0.98900  0.59500  1.0000
  O   O11       1.0  0.07040  0.11900  0.69200  1.0000
  O   O12       1.0  0.57000  0.38100  0.69200  1.0000
  O   O13       1.0  0.71600  0.69500  0.86200  1.0000
  O   O14       1.0  0.21600  0.80500  0.86200  1.0000
  O   O15       1.0  0.91500  0.19600  0.99300  1.0000
  O   O16       1.0  0.41500  0.30400  0.99300  1.0000
