data_image0
_chemical_formula_structural       Cs4Cu4S24
_chemical_formula_sum              "Cs4 Cu4 S24"
_cell_length_a       10.8209
_cell_length_b       11.2983
_cell_length_c       7.26229
_cell_angle_alpha    94.7755
_cell_angle_beta     101.627
_cell_angle_gamma    74.1646

_space_group_name_H-M_alt    "P 1"
_space_group_IT_number       1

loop_
  _space_group_symop_operation_xyz
  'x, y, z'

loop_
  _atom_site_type_symbol
  _atom_site_label
  _atom_site_symmetry_multiplicity
  _atom_site_fract_x
  _atom_site_fract_y
  _atom_site_fract_z
  _atom_site_occupancy
  Cs  Cs1       1.0  0.69800  0.57900  0.17000  1.0000
  Cs  Cs2       1.0  0.30100  0.92800  0.32100  1.0000
  Cs  Cs3       1.0  0.69900  0.07160  0.67900  1.0000
  Cs  Cs4       1.0  0.30200  0.42100  0.83000  1.0000
  Cu  Cu1       1.0  0.49400  0.13000  0.14800  1.0000
  Cu  Cu2       1.0  0.49700  0.38800  0.40000  1.0000
  Cu  Cu3       1.0  0.50300  0.61200  0.60000  1.0000
  Cu  Cu4       1.0  0.50600  0.87000  0.85200  1.0000
  S   S1        1.0  0.79300  0.24200  0.10000  1.0000
  S   S2        1.0  0.60300  0.92500  0.15400  1.0000
  S   S3        1.0  0.60300  0.28000  0.15900  1.0000
  S   S4        1.0  0.91600  0.94000  0.16700  1.0000
  S   S5        1.0  0.20200  0.26900  0.19600  1.0000
  S   S6        1.0  0.06750  0.57100  0.21900  1.0000
  S   S7        1.0  0.91800  0.11400  0.28600  1.0000
  S   S8        1.0  0.79700  0.87000  0.29500  1.0000
  S   S9        1.0  0.37800  0.58600  0.30600  1.0000
  S   S10       1.0  0.07050  0.40100  0.32000  1.0000
  S   S11       1.0  0.38500  0.23800  0.37800  1.0000
  S   S12       1.0  0.20200  0.64100  0.40500  1.0000
  S   S13       1.0  0.79800  0.35900  0.59500  1.0000
  S   S14       1.0  0.61500  0.76200  0.62200  1.0000
  S   S15       1.0  0.92900  0.59900  0.68000  1.0000
  S   S16       1.0  0.62200  0.41400  0.69400  1.0000
  S   S17       1.0  0.20300  0.13000  0.70500  1.0000
  S   S18       1.0  0.08150  0.88600  0.71400  1.0000
  S   S19       1.0  0.93300  0.42900  0.78100  1.0000
  S   S20       1.0  0.79800  0.73100  0.80400  1.0000
  S   S21       1.0  0.08400  0.06040  0.83300  1.0000
  S   S22       1.0  0.39700  0.72000  0.84100  1.0000
  S   S23       1.0  0.39700  0.07510  0.84600  1.0000
  S   S24       1.0  0.20700  0.75800  0.90000  1.0000
