data_image0
_chemical_formula_structural       F24Np6
_chemical_formula_sum              "F24 Np6"
_cell_length_a       8.18973
_cell_length_b       8.18973
_cell_length_c       8.21208
_cell_angle_alpha    117.238
_cell_angle_beta     62.7622
_cell_angle_gamma    99.4265

_space_group_name_H-M_alt    "P 1"
_space_group_IT_number       1

loop_
  _space_group_symop_operation_xyz
  'x, y, z'

loop_
  _atom_site_type_symbol
  _atom_site_label
  _atom_site_symmetry_multiplicity
  _atom_site_fract_x
  _atom_site_fract_y
  _atom_site_fract_z
  _atom_site_occupancy
  F   F1        1.0  0.00000  0.50000  0.00000  1.0000
  F   F2        1.0  0.16300  0.93300  0.04900  1.0000
  F   F3        1.0  0.60000  0.82500  0.07550  1.0000
  F   F4        1.0  0.25400  0.68100  0.10700  1.0000
  F   F5        1.0  0.03560  0.27200  0.14000  1.0000
  F   F6        1.0  0.49900  0.25600  0.21300  1.0000
  F   F7        1.0  0.61000  0.61000  0.25000  1.0000
  F   F8        1.0  0.25600  0.49900  0.28700  1.0000
  F   F9        1.0  0.27200  0.03560  0.36000  1.0000
  F   F10       1.0  0.68100  0.25400  0.39300  1.0000
  F   F11       1.0  0.82500  0.60000  0.42400  1.0000
  F   F12       1.0  0.93300  0.16300  0.45100  1.0000
  F   F13       1.0  0.50000  0.00000  0.50000  1.0000
  F   F14       1.0  0.06710  0.83700  0.54900  1.0000
  F   F15       1.0  0.17500  0.40000  0.57600  1.0000
  F   F16       1.0  0.31900  0.74600  0.60700  1.0000
  F   F17       1.0  0.72800  0.96400  0.64000  1.0000
  F   F18       1.0  0.74400  0.50100  0.71300  1.0000
  F   F19       1.0  0.39000  0.39000  0.75000  1.0000
  F   F20       1.0  0.50100  0.74400  0.78700  1.0000
  F   F21       1.0  0.96400  0.72800  0.86000  1.0000
  F   F22       1.0  0.74600  0.31900  0.89300  1.0000
  F   F23       1.0  0.40000  0.17500  0.92400  1.0000
  F   F24       1.0  0.83700  0.06710  0.95100  1.0000
  Np  Np1       1.0  0.77900  0.36800  0.17000  1.0000
  Np  Np2       1.0  0.21200  0.21200  0.25000  1.0000
  Np  Np3       1.0  0.36800  0.77900  0.33000  1.0000
  Np  Np4       1.0  0.63200  0.22100  0.67000  1.0000
  Np  Np5       1.0  0.78800  0.78800  0.75000  1.0000
  Np  Np6       1.0  0.22100  0.63200  0.83000  1.0000
