data_image0
_chemical_formula_structural       Cl24Na4Nb4
_chemical_formula_sum              "Cl24 Na4 Nb4"
_cell_length_a       6.43064
_cell_length_b       6.87111
_cell_length_c       19.0853
_cell_angle_alpha    90
_cell_angle_beta     90.7416
_cell_angle_gamma    90

_space_group_name_H-M_alt    "P 1"
_space_group_IT_number       1

loop_
  _space_group_symop_operation_xyz
  'x, y, z'

loop_
  _atom_site_type_symbol
  _atom_site_label
  _atom_site_symmetry_multiplicity
  _atom_site_fract_x
  _atom_site_fract_y
  _atom_site_fract_z
  _atom_site_occupancy
  Cl  Cl1       1.0  0.10900  0.25300  0.00328  1.0000
  Cl  Cl2       1.0  0.41400  0.92000  0.08980  1.0000
  Cl  Cl3       1.0  0.55000  0.39900  0.09010  1.0000
  Cl  Cl4       1.0  0.07640  0.50700  0.15400  1.0000
  Cl  Cl5       1.0  0.95300  0.03580  0.15400  1.0000
  Cl  Cl6       1.0  0.38000  0.18600  0.23700  1.0000
  Cl  Cl7       1.0  0.62000  0.68600  0.26300  1.0000
  Cl  Cl8       1.0  0.04690  0.53600  0.34600  1.0000
  Cl  Cl9       1.0  0.92400  0.00653  0.34600  1.0000
  Cl  Cl10      1.0  0.45000  0.89900  0.41000  1.0000
  Cl  Cl11      1.0  0.58600  0.42000  0.41000  1.0000
  Cl  Cl12      1.0  0.89100  0.75300  0.49700  1.0000
  Cl  Cl13      1.0  0.10900  0.24700  0.50300  1.0000
  Cl  Cl14      1.0  0.41400  0.58000  0.59000  1.0000
  Cl  Cl15      1.0  0.55000  0.10100  0.59000  1.0000
  Cl  Cl16      1.0  0.07640  0.99300  0.65400  1.0000
  Cl  Cl17      1.0  0.95300  0.46400  0.65400  1.0000
  Cl  Cl18      1.0  0.38000  0.31400  0.73700  1.0000
  Cl  Cl19      1.0  0.62000  0.81400  0.76300  1.0000
  Cl  Cl20      1.0  0.04690  0.96400  0.84600  1.0000
  Cl  Cl21      1.0  0.92400  0.49300  0.84600  1.0000
  Cl  Cl22      1.0  0.45000  0.60100  0.91000  1.0000
  Cl  Cl23      1.0  0.58600  0.08020  0.91000  1.0000
  Cl  Cl24      1.0  0.89100  0.74700  0.99700  1.0000
  Na  Na1       1.0  0.79200  0.30900  0.24900  1.0000
  Na  Na2       1.0  0.20800  0.80900  0.25100  1.0000
  Na  Na3       1.0  0.79200  0.19100  0.74900  1.0000
  Na  Na4       1.0  0.20800  0.69100  0.75100  1.0000
  Nb  Nb1       1.0  0.25700  0.21600  0.11200  1.0000
  Nb  Nb2       1.0  0.74300  0.71600  0.38800  1.0000
  Nb  Nb3       1.0  0.25700  0.28400  0.61200  1.0000
  Nb  Nb4       1.0  0.74300  0.78400  0.88800  1.0000
