data_image0
_chemical_formula_structural       C12Fe2K6N12
_chemical_formula_sum              "C12 Fe2 K6 N12"
_cell_length_a       6.96672
_cell_length_b       10.3389
_cell_length_c       8.23148
_cell_angle_alpha    90
_cell_angle_beta     106.904
_cell_angle_gamma    90

_space_group_name_H-M_alt    "P 1"
_space_group_IT_number       1

loop_
  _space_group_symop_operation_xyz
  'x, y, z'

loop_
  _atom_site_type_symbol
  _atom_site_label
  _atom_site_symmetry_multiplicity
  _atom_site_fract_x
  _atom_site_fract_y
  _atom_site_fract_z
  _atom_site_occupancy
  C   C1        1.0  0.11900  0.83400  0.02920  1.0000
  C   C2        1.0  0.81200  0.94500  0.11300  1.0000
  C   C3        1.0  0.18400  0.05140  0.20900  1.0000
  C   C4        1.0  0.81600  0.55100  0.29100  1.0000
  C   C5        1.0  0.18800  0.44500  0.38700  1.0000
  C   C6        1.0  0.88100  0.33400  0.47100  1.0000
  C   C7        1.0  0.11900  0.66600  0.52900  1.0000
  C   C8        1.0  0.81200  0.55500  0.61300  1.0000
  C   C9        1.0  0.18400  0.44900  0.70900  1.0000
  C   C10       1.0  0.81600  0.94900  0.79100  1.0000
  C   C11       1.0  0.18800  0.05470  0.88700  1.0000
  C   C12       1.0  0.88100  0.16600  0.97100  1.0000
  Fe  Fe1       1.0  0.00000  0.00000  0.00000  1.0000
  Fe  Fe2       1.0  0.00000  0.50000  0.50000  1.0000
  K   K1        1.0  0.00000  0.50000  0.00000  1.0000
  K   K2        1.0  0.50300  0.27100  0.12500  1.0000
  K   K3        1.0  0.49700  0.77100  0.37500  1.0000
  K   K4        1.0  0.00000  0.00000  0.50000  1.0000
  K   K5        1.0  0.50300  0.22900  0.62500  1.0000
  K   K6        1.0  0.49700  0.72900  0.87500  1.0000
  N   N1        1.0  0.20100  0.73300  0.04960  1.0000
  N   N2        1.0  0.70400  0.58400  0.16100  1.0000
  N   N3        1.0  0.69900  0.91100  0.18600  1.0000
  N   N4        1.0  0.30100  0.41100  0.31400  1.0000
  N   N5        1.0  0.29600  0.08350  0.33900  1.0000
  N   N6        1.0  0.79900  0.23300  0.45000  1.0000
  N   N7        1.0  0.20100  0.76700  0.55000  1.0000
  N   N8        1.0  0.70400  0.91600  0.66100  1.0000
  N   N9        1.0  0.69900  0.58900  0.68600  1.0000
  N   N10       1.0  0.30100  0.08940  0.81400  1.0000
  N   N11       1.0  0.29600  0.41600  0.83900  1.0000
  N   N12       1.0  0.79900  0.26700  0.95000  1.0000
