data_image0
_chemical_formula_structural       Ce4H4O20S4
_chemical_formula_sum              "Ce4 H4 O20 S4"
_cell_length_a       4.49677
_cell_length_b       12.5079
_cell_length_c       7.08378
_cell_angle_alpha    90
_cell_angle_beta     111.175
_cell_angle_gamma    90

_space_group_name_H-M_alt    "P 1"
_space_group_IT_number       1

loop_
  _space_group_symop_operation_xyz
  'x, y, z'

loop_
  _atom_site_type_symbol
  _atom_site_label
  _atom_site_symmetry_multiplicity
  _atom_site_fract_x
  _atom_site_fract_y
  _atom_site_fract_z
  _atom_site_occupancy
  Ce  Ce1       1.0  0.33700  0.06520  0.19800  1.0000
  Ce  Ce2       1.0  0.66300  0.56500  0.30200  1.0000
  Ce  Ce3       1.0  0.33700  0.43500  0.69800  1.0000
  Ce  Ce4       1.0  0.66400  0.93500  0.80200  1.0000
  H   H1        1.0  0.28900  0.84100  0.02650  1.0000
  H   H2        1.0  0.71100  0.34100  0.47300  1.0000
  H   H3        1.0  0.28900  0.65900  0.52700  1.0000
  H   H4        1.0  0.71100  0.15900  0.97300  1.0000
  O   O1        1.0  0.73700  0.08900  0.04120  1.0000
  O   O2        1.0  0.29900  0.43200  0.04900  1.0000
  O   O3        1.0  0.19400  0.66900  0.05680  1.0000
  O   O4        1.0  0.28600  0.25700  0.18800  1.0000
  O   O5        1.0  0.97000  0.90500  0.21500  1.0000
  O   O6        1.0  0.03030  0.40500  0.28500  1.0000
  O   O7        1.0  0.71400  0.75700  0.31200  1.0000
  O   O8        1.0  0.80600  0.16900  0.44300  1.0000
  O   O9        1.0  0.70100  0.93200  0.45100  1.0000
  O   O10       1.0  0.26300  0.58900  0.45900  1.0000
  O   O11       1.0  0.73700  0.41100  0.54100  1.0000
  O   O12       1.0  0.29900  0.06790  0.54900  1.0000
  O   O13       1.0  0.19400  0.83100  0.55700  1.0000
  O   O14       1.0  0.28600  0.24300  0.68800  1.0000
  O   O15       1.0  0.97000  0.59500  0.71500  1.0000
  O   O16       1.0  0.03030  0.09510  0.78500  1.0000
  O   O17       1.0  0.71400  0.74300  0.81200  1.0000
  O   O18       1.0  0.80600  0.33100  0.94300  1.0000
  O   O19       1.0  0.70100  0.56800  0.95100  1.0000
  O   O20       1.0  0.26300  0.91100  0.95900  1.0000
  S   S1        1.0  0.09830  0.35400  0.11500  1.0000
  S   S2        1.0  0.90200  0.85400  0.38500  1.0000
  S   S3        1.0  0.09830  0.14600  0.61500  1.0000
  S   S4        1.0  0.90200  0.64600  0.88500  1.0000
