data_image0
_chemical_formula_structural       La8O20Ti4
_chemical_formula_sum              "La8 O20 Ti4"
_cell_length_a       10.9818
_cell_length_b       11.3617
_cell_length_c       3.91533
_cell_angle_alpha    90
_cell_angle_beta     90
_cell_angle_gamma    90

_space_group_name_H-M_alt    "P 1"
_space_group_IT_number       1

loop_
  _space_group_symop_operation_xyz
  'x, y, z'

loop_
  _atom_site_type_symbol
  _atom_site_label
  _atom_site_symmetry_multiplicity
  _atom_site_fract_x
  _atom_site_fract_y
  _atom_site_fract_z
  _atom_site_occupancy
  La  La1       1.0  0.13600  0.06180  0.25000  1.0000
  La  La2       1.0  0.63600  0.43800  0.25000  1.0000
  La  La3       1.0  0.09530  0.71600  0.25000  1.0000
  La  La4       1.0  0.59500  0.78400  0.25000  1.0000
  La  La5       1.0  0.40500  0.21600  0.75000  1.0000
  La  La6       1.0  0.90500  0.28400  0.75000  1.0000
  La  La7       1.0  0.36400  0.56200  0.75000  1.0000
  La  La8       1.0  0.86400  0.93800  0.75000  1.0000
  O   O1        1.0  0.53600  0.17000  0.25000  1.0000
  O   O2        1.0  0.28200  0.22900  0.25000  1.0000
  O   O3        1.0  0.78200  0.27100  0.25000  1.0000
  O   O4        1.0  0.03560  0.33000  0.25000  1.0000
  O   O5        1.0  0.22700  0.53700  0.25000  1.0000
  O   O6        1.0  0.49100  0.60200  0.25000  1.0000
  O   O7        1.0  0.76200  0.62400  0.25000  1.0000
  O   O8        1.0  0.26200  0.87600  0.25000  1.0000
  O   O9        1.0  0.99100  0.89800  0.25000  1.0000
  O   O10       1.0  0.72700  0.96300  0.25000  1.0000
  O   O11       1.0  0.27300  0.03700  0.75000  1.0000
  O   O12       1.0  0.00855  0.10200  0.75000  1.0000
  O   O13       1.0  0.73800  0.12400  0.75000  1.0000
  O   O14       1.0  0.23800  0.37600  0.75000  1.0000
  O   O15       1.0  0.50900  0.39800  0.75000  1.0000
  O   O16       1.0  0.77300  0.46300  0.75000  1.0000
  O   O17       1.0  0.96400  0.67000  0.75000  1.0000
  O   O18       1.0  0.21800  0.72900  0.75000  1.0000
  O   O19       1.0  0.71800  0.77100  0.75000  1.0000
  O   O20       1.0  0.46400  0.83000  0.75000  1.0000
  Ti  Ti1       1.0  0.69400  0.12700  0.25000  1.0000
  Ti  Ti2       1.0  0.19400  0.37300  0.25000  1.0000
  Ti  Ti3       1.0  0.80600  0.62700  0.75000  1.0000
  Ti  Ti4       1.0  0.30600  0.87300  0.75000  1.0000
