data_image0
_chemical_formula_structural       Ge12Ni19
_chemical_formula_sum              "Ge12 Ni19"
_cell_length_a       6.72897
_cell_length_b       6.73895
_cell_length_c       10.0853
_cell_angle_alpha    90.3178
_cell_angle_beta     90
_cell_angle_gamma    60.049

_space_group_name_H-M_alt    "P 1"
_space_group_IT_number       1

loop_
  _space_group_symop_operation_xyz
  'x, y, z'

loop_
  _atom_site_type_symbol
  _atom_site_label
  _atom_site_symmetry_multiplicity
  _atom_site_fract_x
  _atom_site_fract_y
  _atom_site_fract_z
  _atom_site_occupancy
  Ge  Ge1       1.0  0.96500  0.00000  0.00000  1.0000
  Ge  Ge2       1.0  0.67300  0.69300  0.00357  1.0000
  Ge  Ge3       1.0  0.02420  0.33300  0.24800  1.0000
  Ge  Ge4       1.0  0.64000  0.03070  0.25400  1.0000
  Ge  Ge5       1.0  0.34000  0.62100  0.25800  1.0000
  Ge  Ge6       1.0  0.66700  0.65000  0.49900  1.0000
  Ge  Ge7       1.0  0.01990  0.00000  0.50000  1.0000
  Ge  Ge8       1.0  0.31700  0.35000  0.50100  1.0000
  Ge  Ge9       1.0  0.96000  0.37900  0.74200  1.0000
  Ge  Ge10      1.0  0.67000  0.96900  0.74600  1.0000
  Ge  Ge11      1.0  0.35700  0.66700  0.75200  1.0000
  Ge  Ge12      1.0  0.36500  0.30700  0.99600  1.0000
  Ni  Ni1       1.0  0.33400  0.67300  0.01130  1.0000
  Ni  Ni2       1.0  0.00588  0.65500  0.12500  1.0000
  Ni  Ni3       1.0  0.34400  0.01900  0.12500  1.0000
  Ni  Ni4       1.0  0.66600  0.31900  0.12600  1.0000
  Ni  Ni5       1.0  0.01210  0.98700  0.24700  1.0000
  Ni  Ni6       1.0  0.66100  0.67200  0.25200  1.0000
  Ni  Ni7       1.0  0.01560  0.64800  0.37600  1.0000
  Ni  Ni8       1.0  0.67700  0.33100  0.37700  1.0000
  Ni  Ni9       1.0  0.31900  0.02230  0.37700  1.0000
  Ni  Ni10      1.0  0.66700  0.00000  0.50000  1.0000
  Ni  Ni11      1.0  0.34100  0.97800  0.62300  1.0000
  Ni  Ni12      1.0  0.00739  0.66900  0.62300  1.0000
  Ni  Ni13      1.0  0.66300  0.35200  0.62400  1.0000
  Ni  Ni14      1.0  0.33300  0.32800  0.74800  1.0000
  Ni  Ni15      1.0  0.99900  0.01300  0.75300  1.0000
  Ni  Ni16      1.0  0.98500  0.68100  0.87400  1.0000
  Ni  Ni17      1.0  0.36300  0.98100  0.87500  1.0000
  Ni  Ni18      1.0  0.66100  0.34500  0.87500  1.0000
  Ni  Ni19      1.0  0.00708  0.32700  0.98900  1.0000
