data_image0
_chemical_formula_structural       Ag12O16Ru4
_chemical_formula_sum              "Ag12 O16 Ru4"
_cell_length_a       7.08082
_cell_length_b       7.08082
_cell_length_c       8.52951
_cell_angle_alpha    90
_cell_angle_beta     90
_cell_angle_gamma    90

_space_group_name_H-M_alt    "P 1"
_space_group_IT_number       1

loop_
  _space_group_symop_operation_xyz
  'x, y, z'

loop_
  _atom_site_type_symbol
  _atom_site_label
  _atom_site_symmetry_multiplicity
  _atom_site_fract_x
  _atom_site_fract_y
  _atom_site_fract_z
  _atom_site_occupancy
  Ag  Ag1       1.0  0.00000  0.19000  0.00000  1.0000
  Ag  Ag2       1.0  0.00000  0.75300  0.00000  1.0000
  Ag  Ag3       1.0  0.50000  0.79600  0.00000  1.0000
  Ag  Ag4       1.0  0.24700  0.00000  0.25000  1.0000
  Ag  Ag5       1.0  0.81000  0.00000  0.25000  1.0000
  Ag  Ag6       1.0  0.20400  0.50000  0.25000  1.0000
  Ag  Ag7       1.0  0.50000  0.20400  0.50000  1.0000
  Ag  Ag8       1.0  0.00000  0.24700  0.50000  1.0000
  Ag  Ag9       1.0  0.00000  0.81000  0.50000  1.0000
  Ag  Ag10      1.0  0.19000  0.00000  0.75000  1.0000
  Ag  Ag11      1.0  0.75300  0.00000  0.75000  1.0000
  Ag  Ag12      1.0  0.79600  0.50000  0.75000  1.0000
  O   O1        1.0  0.30700  0.08870  0.01180  1.0000
  O   O2        1.0  0.69600  0.48900  0.01800  1.0000
  O   O3        1.0  0.51100  0.30400  0.23200  1.0000
  O   O4        1.0  0.91100  0.69300  0.23800  1.0000
  O   O5        1.0  0.91100  0.30700  0.26200  1.0000
  O   O6        1.0  0.51100  0.69600  0.26800  1.0000
  O   O7        1.0  0.69600  0.51100  0.48200  1.0000
  O   O8        1.0  0.30700  0.91100  0.48800  1.0000
  O   O9        1.0  0.69300  0.91100  0.51200  1.0000
  O   O10       1.0  0.30400  0.51100  0.51800  1.0000
  O   O11       1.0  0.48900  0.69600  0.73200  1.0000
  O   O12       1.0  0.08870  0.30700  0.73800  1.0000
  O   O13       1.0  0.08870  0.69300  0.76200  1.0000
  O   O14       1.0  0.48900  0.30400  0.76800  1.0000
  O   O15       1.0  0.30400  0.48900  0.98200  1.0000
  O   O16       1.0  0.69300  0.08870  0.98800  1.0000
  Ru  Ru1       1.0  0.50000  0.28300  0.00000  1.0000
  Ru  Ru2       1.0  0.71700  0.50000  0.25000  1.0000
  Ru  Ru3       1.0  0.50000  0.71700  0.50000  1.0000
  Ru  Ru4       1.0  0.28300  0.50000  0.75000  1.0000
