data_image0
_chemical_formula_structural       Cu4F20Pd4Rb4
_chemical_formula_sum              "Cu4 F20 Pd4 Rb4"
_cell_length_a       5.74567
_cell_length_b       7.43214
_cell_length_c       10.5646
_cell_angle_alpha    90
_cell_angle_beta     90
_cell_angle_gamma    90

_space_group_name_H-M_alt    "P 1"
_space_group_IT_number       1

loop_
  _space_group_symop_operation_xyz
  'x, y, z'

loop_
  _atom_site_type_symbol
  _atom_site_label
  _atom_site_symmetry_multiplicity
  _atom_site_fract_x
  _atom_site_fract_y
  _atom_site_fract_z
  _atom_site_occupancy
  Cu  Cu1       1.0  0.00000  0.00000  0.00000  1.0000
  Cu  Cu2       1.0  0.00000  0.50000  0.00000  1.0000
  Cu  Cu3       1.0  0.50000  0.00000  0.50000  1.0000
  Cu  Cu4       1.0  0.50000  0.50000  0.50000  1.0000
  F   F1        1.0  0.96300  0.25000  0.06340  1.0000
  F   F2        1.0  0.69000  0.56300  0.07700  1.0000
  F   F3        1.0  0.69000  0.93700  0.07700  1.0000
  F   F4        1.0  0.17500  0.54900  0.16400  1.0000
  F   F5        1.0  0.17500  0.95100  0.16400  1.0000
  F   F6        1.0  0.67500  0.54900  0.33600  1.0000
  F   F7        1.0  0.67500  0.95100  0.33600  1.0000
  F   F8        1.0  0.19000  0.56300  0.42300  1.0000
  F   F9        1.0  0.19000  0.93700  0.42300  1.0000
  F   F10       1.0  0.46300  0.25000  0.43700  1.0000
  F   F11       1.0  0.53700  0.75000  0.56300  1.0000
  F   F12       1.0  0.81000  0.06300  0.57700  1.0000
  F   F13       1.0  0.81000  0.43700  0.57700  1.0000
  F   F14       1.0  0.32500  0.04920  0.66400  1.0000
  F   F15       1.0  0.32500  0.45100  0.66400  1.0000
  F   F16       1.0  0.82500  0.04920  0.83600  1.0000
  F   F17       1.0  0.82500  0.45100  0.83600  1.0000
  F   F18       1.0  0.31000  0.06300  0.92300  1.0000
  F   F19       1.0  0.31000  0.43700  0.92300  1.0000
  F   F20       1.0  0.03660  0.75000  0.93700  1.0000
  Pd  Pd1       1.0  0.68100  0.75000  0.21200  1.0000
  Pd  Pd2       1.0  0.18100  0.75000  0.28800  1.0000
  Pd  Pd3       1.0  0.81900  0.25000  0.71200  1.0000
  Pd  Pd4       1.0  0.31900  0.25000  0.78800  1.0000
  Rb  Rb1       1.0  0.47800  0.25000  0.14600  1.0000
  Rb  Rb2       1.0  0.97800  0.25000  0.35400  1.0000
  Rb  Rb3       1.0  0.02200  0.75000  0.64600  1.0000
  Rb  Rb4       1.0  0.52200  0.75000  0.85400  1.0000
