data_image0
_chemical_formula_structural       C12Cs4K2Mn2N12
_chemical_formula_sum              "C12 Cs4 K2 Mn2 N12"
_cell_length_a       7.58914
_cell_length_b       8.08929
_cell_length_c       11.1103
_cell_angle_alpha    90
_cell_angle_beta     90.3797
_cell_angle_gamma    90

_space_group_name_H-M_alt    "P 1"
_space_group_IT_number       1

loop_
  _space_group_symop_operation_xyz
  'x, y, z'

loop_
  _atom_site_type_symbol
  _atom_site_label
  _atom_site_symmetry_multiplicity
  _atom_site_fract_x
  _atom_site_fract_y
  _atom_site_fract_z
  _atom_site_occupancy
  C   C1        1.0  0.79000  0.13100  0.03350  1.0000
  C   C2        1.0  0.87400  0.79600  0.04080  1.0000
  C   C3        1.0  0.06890  0.02140  0.16900  1.0000
  C   C4        1.0  0.43100  0.52100  0.33100  1.0000
  C   C5        1.0  0.62600  0.29600  0.45900  1.0000
  C   C6        1.0  0.71000  0.63100  0.46700  1.0000
  C   C7        1.0  0.29000  0.36900  0.53300  1.0000
  C   C8        1.0  0.37400  0.70400  0.54100  1.0000
  C   C9        1.0  0.56900  0.47900  0.66900  1.0000
  C   C10       1.0  0.93100  0.97900  0.83100  1.0000
  C   C11       1.0  0.12600  0.20400  0.95900  1.0000
  C   C12       1.0  0.21000  0.86900  0.96700  1.0000
  Cs  Cs1       1.0  0.52000  0.93200  0.25000  1.0000
  Cs  Cs2       1.0  0.98000  0.43200  0.25000  1.0000
  Cs  Cs3       1.0  0.02040  0.56800  0.75000  1.0000
  Cs  Cs4       1.0  0.48000  0.06800  0.75000  1.0000
  K   K1        1.0  0.50000  0.50000  0.00000  1.0000
  K   K2        1.0  0.00000  0.00000  0.50000  1.0000
  Mn  Mn1       1.0  0.00000  0.00000  0.00000  1.0000
  Mn  Mn2       1.0  0.50000  0.50000  0.50000  1.0000
  N   N1        1.0  0.66100  0.20600  0.05510  1.0000
  N   N2        1.0  0.79700  0.67500  0.06680  1.0000
  N   N3        1.0  0.38400  0.53800  0.23000  1.0000
  N   N4        1.0  0.11600  0.03790  0.27000  1.0000
  N   N5        1.0  0.70300  0.17500  0.43300  1.0000
  N   N6        1.0  0.83900  0.70600  0.44500  1.0000
  N   N7        1.0  0.16100  0.29400  0.55500  1.0000
  N   N8        1.0  0.29700  0.82500  0.56700  1.0000
  N   N9        1.0  0.88400  0.96200  0.73000  1.0000
  N   N10       1.0  0.61600  0.46200  0.77000  1.0000
  N   N11       1.0  0.20300  0.32500  0.93300  1.0000
  N   N12       1.0  0.33900  0.79400  0.94500  1.0000
