data_image0
_chemical_formula_structural       Cl4O16Sr8V4
_chemical_formula_sum              "Cl4 O16 Sr8 V4"
_cell_length_a       6.55141
_cell_length_b       7.4905
_cell_length_c       11.4573
_cell_angle_alpha    90
_cell_angle_beta     90
_cell_angle_gamma    90

_space_group_name_H-M_alt    "P 1"
_space_group_IT_number       1

loop_
  _space_group_symop_operation_xyz
  'x, y, z'

loop_
  _atom_site_type_symbol
  _atom_site_label
  _atom_site_symmetry_multiplicity
  _atom_site_fract_x
  _atom_site_fract_y
  _atom_site_fract_z
  _atom_site_occupancy
  Cl  Cl1       1.0  0.48900  0.19100  0.25000  1.0000
  Cl  Cl2       1.0  0.51100  0.69100  0.25000  1.0000
  Cl  Cl3       1.0  0.48900  0.30900  0.75000  1.0000
  Cl  Cl4       1.0  0.51100  0.80900  0.75000  1.0000
  O   O1        1.0  0.28600  0.42800  0.03000  1.0000
  O   O2        1.0  0.71400  0.92800  0.03000  1.0000
  O   O3        1.0  0.96900  0.22700  0.12100  1.0000
  O   O4        1.0  0.03110  0.72700  0.12100  1.0000
  O   O5        1.0  0.96900  0.22700  0.37900  1.0000
  O   O6        1.0  0.03110  0.72700  0.37900  1.0000
  O   O7        1.0  0.28600  0.42800  0.47000  1.0000
  O   O8        1.0  0.71400  0.92800  0.47000  1.0000
  O   O9        1.0  0.28600  0.07170  0.53000  1.0000
  O   O10       1.0  0.71400  0.57200  0.53000  1.0000
  O   O11       1.0  0.96900  0.27300  0.62100  1.0000
  O   O12       1.0  0.03110  0.77300  0.62100  1.0000
  O   O13       1.0  0.96900  0.27300  0.87900  1.0000
  O   O14       1.0  0.03110  0.77300  0.87900  1.0000
  O   O15       1.0  0.28600  0.07170  0.97000  1.0000
  O   O16       1.0  0.71400  0.57200  0.97000  1.0000
  Sr  Sr1       1.0  0.62400  0.25000  0.00000  1.0000
  Sr  Sr2       1.0  0.37600  0.75000  0.00000  1.0000
  Sr  Sr3       1.0  0.13800  0.46600  0.25000  1.0000
  Sr  Sr4       1.0  0.86200  0.96600  0.25000  1.0000
  Sr  Sr5       1.0  0.62400  0.25000  0.50000  1.0000
  Sr  Sr6       1.0  0.37600  0.75000  0.50000  1.0000
  Sr  Sr7       1.0  0.13800  0.03350  0.75000  1.0000
  Sr  Sr8       1.0  0.86200  0.53400  0.75000  1.0000
  V   V1        1.0  0.12700  0.25000  0.00000  1.0000
  V   V2        1.0  0.87300  0.75000  0.00000  1.0000
  V   V3        1.0  0.12700  0.25000  0.50000  1.0000
  V   V4        1.0  0.87300  0.75000  0.50000  1.0000
