data_image0
_chemical_formula_structural       Ag4H8O16V4
_chemical_formula_sum              "Ag4 H8 O16 V4"
_cell_length_a       6.70779
_cell_length_b       3.6921
_cell_length_c       15.0183
_cell_angle_alpha    90
_cell_angle_beta     90
_cell_angle_gamma    90

_space_group_name_H-M_alt    "P 1"
_space_group_IT_number       1

loop_
  _space_group_symop_operation_xyz
  'x, y, z'

loop_
  _atom_site_type_symbol
  _atom_site_label
  _atom_site_symmetry_multiplicity
  _atom_site_fract_x
  _atom_site_fract_y
  _atom_site_fract_z
  _atom_site_occupancy
  Ag  Ag1       1.0  0.08540  0.75000  0.09910  1.0000
  Ag  Ag2       1.0  0.58500  0.75000  0.40100  1.0000
  Ag  Ag3       1.0  0.41500  0.25000  0.59900  1.0000
  Ag  Ag4       1.0  0.91500  0.25000  0.90100  1.0000
  H   H1        1.0  0.67700  0.54200  0.23700  1.0000
  H   H2        1.0  0.67700  0.95800  0.23700  1.0000
  H   H3        1.0  0.17700  0.54200  0.26300  1.0000
  H   H4        1.0  0.17700  0.95800  0.26300  1.0000
  H   H5        1.0  0.82300  0.04180  0.73700  1.0000
  H   H6        1.0  0.82300  0.45800  0.73700  1.0000
  H   H7        1.0  0.32300  0.04180  0.76300  1.0000
  H   H8        1.0  0.32300  0.45800  0.76300  1.0000
  O   O1        1.0  0.59100  0.75000  0.02980  1.0000
  O   O2        1.0  0.88200  0.25000  0.05490  1.0000
  O   O3        1.0  0.56800  0.25000  0.16900  1.0000
  O   O4        1.0  0.23500  0.75000  0.22900  1.0000
  O   O5        1.0  0.73500  0.75000  0.27100  1.0000
  O   O6        1.0  0.06830  0.25000  0.33100  1.0000
  O   O7        1.0  0.38200  0.25000  0.44500  1.0000
  O   O8        1.0  0.09070  0.75000  0.47000  1.0000
  O   O9        1.0  0.90900  0.25000  0.53000  1.0000
  O   O10       1.0  0.61800  0.75000  0.55500  1.0000
  O   O11       1.0  0.93200  0.75000  0.66900  1.0000
  O   O12       1.0  0.26500  0.25000  0.72900  1.0000
  O   O13       1.0  0.76500  0.25000  0.77100  1.0000
  O   O14       1.0  0.43200  0.75000  0.83100  1.0000
  O   O15       1.0  0.11800  0.75000  0.94500  1.0000
  O   O16       1.0  0.40900  0.25000  0.97000  1.0000
  V   V1        1.0  0.62700  0.25000  0.06110  1.0000
  V   V2        1.0  0.12700  0.25000  0.43900  1.0000
  V   V3        1.0  0.87300  0.75000  0.56100  1.0000
  V   V4        1.0  0.37300  0.75000  0.93900  1.0000
