data_image0
_chemical_formula_structural       As8Rb8Se16
_chemical_formula_sum              "As8 Rb8 Se16"
_cell_length_a       9.61628
_cell_length_b       10.1406
_cell_length_c       12.8518
_cell_angle_alpha    113.236
_cell_angle_beta     100.942
_cell_angle_gamma    90

_space_group_name_H-M_alt    "P 1"
_space_group_IT_number       1

loop_
  _space_group_symop_operation_xyz
  'x, y, z'

loop_
  _atom_site_type_symbol
  _atom_site_label
  _atom_site_symmetry_multiplicity
  _atom_site_fract_x
  _atom_site_fract_y
  _atom_site_fract_z
  _atom_site_occupancy
  As  As1       1.0  0.65000  0.40800  0.21800  1.0000
  As  As2       1.0  0.15000  0.81000  0.21800  1.0000
  As  As3       1.0  0.04420  0.51000  0.30500  1.0000
  As  As4       1.0  0.54400  0.79500  0.30500  1.0000
  As  As5       1.0  0.45600  0.20500  0.69500  1.0000
  As  As6       1.0  0.95600  0.49000  0.69500  1.0000
  As  As7       1.0  0.35000  0.59200  0.78200  1.0000
  As  As8       1.0  0.85000  0.19000  0.78200  1.0000
  Rb  Rb1       1.0  0.25000  0.00327  0.00000  1.0000
  Rb  Rb2       1.0  0.25000  0.46400  0.00000  1.0000
  Rb  Rb3       1.0  0.75000  0.53600  0.00000  1.0000
  Rb  Rb4       1.0  0.75000  0.99700  0.00000  1.0000
  Rb  Rb5       1.0  0.32900  0.27200  0.39600  1.0000
  Rb  Rb6       1.0  0.82900  0.12400  0.39600  1.0000
  Rb  Rb7       1.0  0.67100  0.72800  0.60400  1.0000
  Rb  Rb8       1.0  0.17100  0.87600  0.60400  1.0000
  Se  Se1       1.0  0.99200  0.33800  0.11500  1.0000
  Se  Se2       1.0  0.49200  0.77800  0.11500  1.0000
  Se  Se3       1.0  0.55700  0.18800  0.20600  1.0000
  Se  Se4       1.0  0.05720  0.01840  0.20600  1.0000
  Se  Se5       1.0  0.96400  0.74400  0.30100  1.0000
  Se  Se6       1.0  0.46400  0.55800  0.30100  1.0000
  Se  Se7       1.0  0.84500  0.47900  0.39300  1.0000
  Se  Se8       1.0  0.34500  0.91400  0.39300  1.0000
  Se  Se9       1.0  0.65500  0.08570  0.60700  1.0000
  Se  Se10      1.0  0.15500  0.52100  0.60700  1.0000
  Se  Se11      1.0  0.53600  0.44200  0.69900  1.0000
  Se  Se12      1.0  0.03610  0.25600  0.69900  1.0000
  Se  Se13      1.0  0.44300  0.81200  0.79400  1.0000
  Se  Se14      1.0  0.94300  0.98200  0.79400  1.0000
  Se  Se15      1.0  0.00836  0.66200  0.88500  1.0000
  Se  Se16      1.0  0.50800  0.22200  0.88500  1.0000
