data_image0
_chemical_formula_structural       Cl4H20N8
_chemical_formula_sum              "Cl4 H20 N8"
_cell_length_a       4.3559
_cell_length_b       6.5356
_cell_length_c       10.9337
_cell_angle_alpha    93.8061
_cell_angle_beta     78.51
_cell_angle_gamma    109.466

_space_group_name_H-M_alt    "P 1"
_space_group_IT_number       1

loop_
  _space_group_symop_operation_xyz
  'x, y, z'

loop_
  _atom_site_type_symbol
  _atom_site_label
  _atom_site_symmetry_multiplicity
  _atom_site_fract_x
  _atom_site_fract_y
  _atom_site_fract_z
  _atom_site_occupancy
  Cl  Cl1       1.0  0.87900  0.92500  0.16600  1.0000
  Cl  Cl2       1.0  0.79400  0.42500  0.33400  1.0000
  Cl  Cl3       1.0  0.70400  0.57500  0.66600  1.0000
  Cl  Cl4       1.0  0.11900  0.07500  0.83400  1.0000
  H   H1        1.0  0.23800  0.78900  0.04430  1.0000
  H   H2        1.0  0.71500  0.18400  0.05780  1.0000
  H   H3        1.0  0.38300  0.50100  0.07770  1.0000
  H   H4        1.0  0.20500  0.24300  0.14800  1.0000
  H   H5        1.0  0.54900  0.42100  0.19200  1.0000
  H   H6        1.0  0.49100  0.92100  0.30800  1.0000
  H   H7        1.0  0.10300  0.74300  0.35200  1.0000
  H   H8        1.0  0.21100  0.00086  0.42200  1.0000
  H   H9        1.0  0.52300  0.68400  0.44200  1.0000
  H   H10       1.0  0.03210  0.28900  0.45600  1.0000
  H   H11       1.0  0.19900  0.71100  0.54400  1.0000
  H   H12       1.0  0.28100  0.31600  0.55800  1.0000
  H   H13       1.0  0.63300  0.99900  0.57800  1.0000
  H   H14       1.0  0.71200  0.25700  0.64800  1.0000
  H   H15       1.0  0.87800  0.07860  0.69200  1.0000
  H   H16       1.0  0.32000  0.57900  0.80800  1.0000
  H   H17       1.0  0.11000  0.75700  0.85200  1.0000
  H   H18       1.0  0.96000  0.49900  0.92200  1.0000
  H   H19       1.0  0.58900  0.81600  0.94200  1.0000
  H   H20       1.0  0.49400  0.21100  0.95600  1.0000
  N   N1        1.0  0.64100  0.29500  0.01860  1.0000
  N   N2        1.0  0.42700  0.37000  0.11600  1.0000
  N   N3        1.0  0.29300  0.87000  0.38400  1.0000
  N   N4        1.0  0.41000  0.79500  0.48100  1.0000
  N   N5        1.0  0.09590  0.20500  0.51900  1.0000
  N   N6        1.0  0.80700  0.13000  0.61600  1.0000
  N   N7        1.0  0.17300  0.63000  0.88400  1.0000
  N   N8        1.0  0.36500  0.70500  0.98100  1.0000
