data_image0
_chemical_formula_structural       H16K8O32P8
_chemical_formula_sum              "H16 K8 O32 P8"
_cell_length_a       7.31805
_cell_length_b       7.31805
_cell_length_c       13.2117
_cell_angle_alpha    88.607
_cell_angle_beta     91.393
_cell_angle_gamma    108.144

_space_group_name_H-M_alt    "P 1"
_space_group_IT_number       1

loop_
  _space_group_symop_operation_xyz
  'x, y, z'

loop_
  _atom_site_type_symbol
  _atom_site_label
  _atom_site_symmetry_multiplicity
  _atom_site_fract_x
  _atom_site_fract_y
  _atom_site_fract_z
  _atom_site_occupancy
  H   H1        1.0  0.87500  0.88600  0.78200  1.0000
  H   H2        1.0  0.11400  0.12500  0.28200  1.0000
  H   H3        1.0  0.24400  0.01670  0.58600  1.0000
  H   H4        1.0  0.98300  0.75600  0.08580  1.0000
  H   H5        1.0  0.48900  0.26300  0.08800  1.0000
  H   H6        1.0  0.73700  0.51100  0.58800  1.0000
  H   H7        1.0  0.36800  0.40500  0.79200  1.0000
  H   H8        1.0  0.59500  0.63200  0.29200  1.0000
  H   H9        1.0  0.86900  0.39500  0.89300  1.0000
  H   H10       1.0  0.60500  0.13100  0.39300  1.0000
  H   H11       1.0  0.48500  0.76900  0.58500  1.0000
  H   H12       1.0  0.23100  0.51500  0.08530  1.0000
  H   H13       1.0  0.74200  0.00366  0.09310  1.0000
  H   H14       1.0  0.99600  0.25800  0.59300  1.0000
  H   H15       1.0  0.37900  0.88800  0.88500  1.0000
  H   H16       1.0  0.11200  0.62100  0.38500  1.0000
  K   K1        1.0  0.09720  0.62100  0.70100  1.0000
  K   K2        1.0  0.37900  0.90300  0.20100  1.0000
  K   K3        1.0  0.59300  0.61500  0.97100  1.0000
  K   K4        1.0  0.38500  0.40700  0.47100  1.0000
  K   K5        1.0  0.60900  0.12300  0.71500  1.0000
  K   K6        1.0  0.87700  0.39100  0.21500  1.0000
  K   K7        1.0  0.09540  0.12500  0.96800  1.0000
  K   K8        1.0  0.87500  0.90500  0.46800  1.0000
  O   O1        1.0  0.57100  0.96200  0.90200  1.0000
  O   O2        1.0  0.03790  0.42900  0.40200  1.0000
  O   O3        1.0  0.22400  0.83300  0.87500  1.0000
  O   O4        1.0  0.16700  0.77600  0.37500  1.0000
  O   O5        1.0  0.70800  0.32600  0.89200  1.0000
  O   O6        1.0  0.67400  0.29200  0.39200  1.0000
  O   O7        1.0  0.78200  0.15200  0.04480  1.0000
  O   O8        1.0  0.84800  0.21800  0.54500  1.0000
  O   O9        1.0  0.95600  0.07170  0.77600  1.0000
  O   O10       1.0  0.92800  0.04450  0.27600  1.0000
  O   O11       1.0  0.44700  0.16500  0.01590  1.0000
  O   O12       1.0  0.83500  0.55300  0.51600  1.0000
  O   O13       1.0  0.14400  0.30200  0.64000  1.0000
  O   O14       1.0  0.69800  0.85600  0.14000  1.0000
  O   O15       1.0  0.20500  0.98700  0.67300  1.0000
  O   O16       1.0  0.01340  0.79500  0.17300  1.0000
  O   O17       1.0  0.31000  0.24700  0.80100  1.0000
  O   O18       1.0  0.75300  0.69000  0.30100  1.0000
  O   O19       1.0  0.44200  0.59300  0.77900  1.0000
  O   O20       1.0  0.40700  0.55800  0.27900  1.0000
  O   O21       1.0  0.63700  0.46800  0.66100  1.0000
  O   O22       1.0  0.53200  0.36300  0.16100  1.0000
  O   O23       1.0  0.80700  0.72700  0.78500  1.0000
  O   O24       1.0  0.27300  0.19300  0.28500  1.0000
  O   O25       1.0  0.27400  0.66100  0.03430  1.0000
  O   O26       1.0  0.33900  0.72600  0.53400  1.0000
  O   O27       1.0  0.95600  0.71800  0.99800  1.0000
  O   O28       1.0  0.28200  0.04400  0.49800  1.0000
  O   O29       1.0  0.62700  0.80700  0.63600  1.0000
  O   O30       1.0  0.19300  0.37300  0.13600  1.0000
  O   O31       1.0  0.05120  0.47500  0.89500  1.0000
  O   O32       1.0  0.52500  0.94900  0.39500  1.0000
  P   P1        1.0  0.62600  0.14700  0.96200  1.0000
  P   P2        1.0  0.85300  0.37400  0.46200  1.0000
  P   P3        1.0  0.12400  0.66700  0.95000  1.0000
  P   P4        1.0  0.33300  0.87600  0.45000  1.0000
  P   P5        1.0  0.14900  0.15000  0.72300  1.0000
  P   P6        1.0  0.85000  0.85100  0.22300  1.0000
  P   P7        1.0  0.62400  0.64800  0.71600  1.0000
  P   P8        1.0  0.35200  0.37600  0.21600  1.0000
