data_image0
_chemical_formula_structural       Li8Na4O16P4
_chemical_formula_sum              "Li8 Na4 O16 P4"
_cell_length_a       6.85029
_cell_length_b       9.90762
_cell_length_c       4.89516
_cell_angle_alpha    90
_cell_angle_beta     90
_cell_angle_gamma    90

_space_group_name_H-M_alt    "P 1"
_space_group_IT_number       1

loop_
  _space_group_symop_operation_xyz
  'x, y, z'

loop_
  _atom_site_type_symbol
  _atom_site_label
  _atom_site_symmetry_multiplicity
  _atom_site_fract_x
  _atom_site_fract_y
  _atom_site_fract_z
  _atom_site_occupancy
  Li  Li1       1.0  0.00033  0.34600  0.20900  1.0000
  Li  Li2       1.0  0.50000  0.34600  0.20900  1.0000
  Li  Li3       1.0  0.00033  0.84600  0.29100  1.0000
  Li  Li4       1.0  0.50000  0.84600  0.29100  1.0000
  Li  Li5       1.0  0.50000  0.15400  0.70900  1.0000
  Li  Li6       1.0  0.00000  0.15400  0.70900  1.0000
  Li  Li7       1.0  0.50000  0.65400  0.79100  1.0000
  Li  Li8       1.0  0.00000  0.65400  0.79100  1.0000
  Na  Na1       1.0  0.75000  0.11400  0.23600  1.0000
  Na  Na2       1.0  0.75000  0.61400  0.26400  1.0000
  Na  Na3       1.0  0.25000  0.38600  0.73600  1.0000
  Na  Na4       1.0  0.25000  0.88600  0.76400  1.0000
  O   O1        1.0  0.75000  0.88000  0.11300  1.0000
  O   O2        1.0  0.06420  0.66300  0.17400  1.0000
  O   O3        1.0  0.43600  0.66300  0.17400  1.0000
  O   O4        1.0  0.25000  0.44300  0.24100  1.0000
  O   O5        1.0  0.25000  0.94300  0.25900  1.0000
  O   O6        1.0  0.06420  0.16300  0.32600  1.0000
  O   O7        1.0  0.43600  0.16300  0.32600  1.0000
  O   O8        1.0  0.75000  0.38000  0.38700  1.0000
  O   O9        1.0  0.25000  0.62000  0.61300  1.0000
  O   O10       1.0  0.56400  0.83700  0.67400  1.0000
  O   O11       1.0  0.93600  0.83700  0.67400  1.0000
  O   O12       1.0  0.75000  0.05670  0.74100  1.0000
  O   O13       1.0  0.75000  0.55700  0.75900  1.0000
  O   O14       1.0  0.56400  0.33700  0.82600  1.0000
  O   O15       1.0  0.93600  0.33700  0.82600  1.0000
  O   O16       1.0  0.25000  0.12000  0.88700  1.0000
  P   P1        1.0  0.25000  0.09810  0.20200  1.0000
  P   P2        1.0  0.25000  0.59800  0.29800  1.0000
  P   P3        1.0  0.75000  0.40200  0.70200  1.0000
  P   P4        1.0  0.75000  0.90200  0.79800  1.0000
