data_image0
_chemical_formula_structural       Ba8O20W4
_chemical_formula_sum              "Ba8 O20 W4"
_cell_length_a       7.40017
_cell_length_b       5.73367
_cell_length_c       11.509
_cell_angle_alpha    90
_cell_angle_beta     90
_cell_angle_gamma    90

_space_group_name_H-M_alt    "P 1"
_space_group_IT_number       1

loop_
  _space_group_symop_operation_xyz
  'x, y, z'

loop_
  _atom_site_type_symbol
  _atom_site_label
  _atom_site_symmetry_multiplicity
  _atom_site_fract_x
  _atom_site_fract_y
  _atom_site_fract_z
  _atom_site_occupancy
  Ba  Ba1       1.0  0.67600  0.75000  0.08460  1.0000
  Ba  Ba2       1.0  0.02240  0.25000  0.21500  1.0000
  Ba  Ba3       1.0  0.52200  0.25000  0.28500  1.0000
  Ba  Ba4       1.0  0.17600  0.75000  0.41500  1.0000
  Ba  Ba5       1.0  0.82400  0.25000  0.58500  1.0000
  Ba  Ba6       1.0  0.47800  0.75000  0.71500  1.0000
  Ba  Ba7       1.0  0.97800  0.75000  0.78500  1.0000
  Ba  Ba8       1.0  0.32400  0.25000  0.91500  1.0000
  O   O1        1.0  0.00000  0.00000  0.00000  1.0000
  O   O2        1.0  0.00000  0.50000  0.00000  1.0000
  O   O3        1.0  0.72200  0.25000  0.09140  1.0000
  O   O4        1.0  0.32600  0.50800  0.11600  1.0000
  O   O5        1.0  0.32600  0.99200  0.11600  1.0000
  O   O6        1.0  0.02420  0.75000  0.19700  1.0000
  O   O7        1.0  0.52400  0.75000  0.30300  1.0000
  O   O8        1.0  0.82600  0.50800  0.38400  1.0000
  O   O9        1.0  0.82600  0.99200  0.38400  1.0000
  O   O10       1.0  0.22200  0.25000  0.40900  1.0000
  O   O11       1.0  0.50000  0.00000  0.50000  1.0000
  O   O12       1.0  0.50000  0.50000  0.50000  1.0000
  O   O13       1.0  0.77800  0.75000  0.59100  1.0000
  O   O14       1.0  0.17400  0.00799  0.61600  1.0000
  O   O15       1.0  0.17400  0.49200  0.61600  1.0000
  O   O16       1.0  0.47600  0.25000  0.69700  1.0000
  O   O17       1.0  0.97600  0.25000  0.80300  1.0000
  O   O18       1.0  0.67400  0.00799  0.88400  1.0000
  O   O19       1.0  0.67400  0.49200  0.88400  1.0000
  O   O20       1.0  0.27800  0.75000  0.90900  1.0000
  W   W1        1.0  0.17900  0.75000  0.06630  1.0000
  W   W2        1.0  0.67900  0.75000  0.43400  1.0000
  W   W3        1.0  0.32100  0.25000  0.56600  1.0000
  W   W4        1.0  0.82100  0.25000  0.93400  1.0000
