data_image0
_chemical_formula_structural       C10Fe2N12O2Tl4
_chemical_formula_sum              "C10 Fe2 N12 O2 Tl4"
_cell_length_a       6.67424
_cell_length_b       9.05179
_cell_length_c       9.05179
_cell_angle_alpha    93.6698
_cell_angle_beta     72.8023
_cell_angle_gamma    107.198

_space_group_name_H-M_alt    "P 1"
_space_group_IT_number       1

loop_
  _space_group_symop_operation_xyz
  'x, y, z'

loop_
  _atom_site_type_symbol
  _atom_site_label
  _atom_site_symmetry_multiplicity
  _atom_site_fract_x
  _atom_site_fract_y
  _atom_site_fract_z
  _atom_site_occupancy
  C   C1        1.0  0.16200  0.62700  0.07150  1.0000
  C   C2        1.0  0.93600  0.35000  0.10300  1.0000
  C   C3        1.0  0.20000  0.25400  0.21700  1.0000
  C   C4        1.0  0.01980  0.47100  0.34200  1.0000
  C   C5        1.0  0.66200  0.92900  0.37300  1.0000
  C   C6        1.0  0.52000  0.65800  0.52900  1.0000
  C   C7        1.0  0.83300  0.06050  0.61700  1.0000
  C   C8        1.0  0.43600  0.89700  0.65000  1.0000
  C   C9        1.0  0.70000  0.78300  0.74600  1.0000
  C   C10       1.0  0.33300  0.38300  0.94000  1.0000
  Fe  Fe1       1.0  0.20900  0.45000  0.14300  1.0000
  Fe  Fe2       1.0  0.70900  0.85700  0.55000  1.0000
  N   N1        1.0  0.12200  0.73500  0.03700  1.0000
  N   N2        1.0  0.76700  0.29800  0.07780  1.0000
  N   N3        1.0  0.45100  0.54400  0.16700  1.0000
  N   N4        1.0  0.20400  0.13500  0.25700  1.0000
  N   N5        1.0  0.62200  0.96300  0.26500  1.0000
  N   N6        1.0  0.95100  0.83300  0.45700  1.0000
  N   N7        1.0  0.89300  0.47400  0.46300  1.0000
  N   N8        1.0  0.39300  0.53700  0.52600  1.0000
  N   N9        1.0  0.90800  0.17900  0.66900  1.0000
  N   N10       1.0  0.26700  0.92200  0.70200  1.0000
  N   N11       1.0  0.40800  0.33100  0.82100  1.0000
  N   N12       1.0  0.70400  0.74300  0.86500  1.0000
  O   O1        1.0  0.62300  0.60700  0.17600  1.0000
  O   O2        1.0  0.12300  0.82400  0.39300  1.0000
  Tl  Tl1       1.0  0.49800  0.03560  0.02480  1.0000
  Tl  Tl2       1.0  0.46700  0.25600  0.51300  1.0000
  Tl  Tl3       1.0  0.96700  0.48700  0.74400  1.0000
  Tl  Tl4       1.0  0.99800  0.97500  0.96400  1.0000
