data_image0
_chemical_formula_structural       K4O14Zn12
_chemical_formula_sum              "K4 O14 Zn12"
_cell_length_a       10.8967
_cell_length_b       10.8967
_cell_length_c       3.32195
_cell_angle_alpha    90
_cell_angle_beta     90
_cell_angle_gamma    90

_space_group_name_H-M_alt    "P 1"
_space_group_IT_number       1

loop_
  _space_group_symop_operation_xyz
  'x, y, z'

loop_
  _atom_site_type_symbol
  _atom_site_label
  _atom_site_symmetry_multiplicity
  _atom_site_fract_x
  _atom_site_fract_y
  _atom_site_fract_z
  _atom_site_occupancy
  K   K1        1.0  0.85800  0.14200  0.00884  1.0000
  K   K2        1.0  0.14200  0.85800  0.00884  1.0000
  K   K3        1.0  0.35800  0.35800  0.50900  1.0000
  K   K4        1.0  0.64200  0.64200  0.50900  1.0000
  O   O1        1.0  0.50000  0.50000  0.04410  1.0000
  O   O2        1.0  0.68900  0.00565  0.49600  1.0000
  O   O3        1.0  0.99400  0.31100  0.49600  1.0000
  O   O4        1.0  0.00565  0.68900  0.49600  1.0000
  O   O5        1.0  0.31100  0.99400  0.49600  1.0000
  O   O6        1.0  0.69300  0.30700  0.49800  1.0000
  O   O7        1.0  0.30700  0.69300  0.49800  1.0000
  O   O8        1.0  0.00000  0.00000  0.54400  1.0000
  O   O9        1.0  0.49400  0.18900  0.99600  1.0000
  O   O10       1.0  0.18900  0.49400  0.99600  1.0000
  O   O11       1.0  0.81100  0.50600  0.99600  1.0000
  O   O12       1.0  0.50600  0.81100  0.99600  1.0000
  O   O13       1.0  0.19300  0.19300  0.99800  1.0000
  O   O14       1.0  0.80700  0.80700  0.99800  1.0000
  Zn  Zn1       1.0  0.12100  0.12100  0.49400  1.0000
  Zn  Zn2       1.0  0.87900  0.87900  0.49400  1.0000
  Zn  Zn3       1.0  0.58600  0.15200  0.49600  1.0000
  Zn  Zn4       1.0  0.84800  0.41400  0.49600  1.0000
  Zn  Zn5       1.0  0.15200  0.58600  0.49600  1.0000
  Zn  Zn6       1.0  0.41400  0.84800  0.49600  1.0000
  Zn  Zn7       1.0  0.62100  0.37900  0.99400  1.0000
  Zn  Zn8       1.0  0.37900  0.62100  0.99400  1.0000
  Zn  Zn9       1.0  0.34800  0.08650  0.99600  1.0000
  Zn  Zn10      1.0  0.08650  0.34800  0.99600  1.0000
  Zn  Zn11      1.0  0.91400  0.65200  0.99600  1.0000
  Zn  Zn12      1.0  0.65200  0.91400  0.99600  1.0000
