data_image0
_chemical_formula_structural       Cr2H12O12Rb6
_chemical_formula_sum              "Cr2 H12 O12 Rb6"
_cell_length_a       7.39057
_cell_length_b       7.39058
_cell_length_c       7.39057
_cell_angle_alpha    96.692
_cell_angle_beta     96.692
_cell_angle_gamma    96.692

_space_group_name_H-M_alt    "P 1"
_space_group_IT_number       1

loop_
  _space_group_symop_operation_xyz
  'x, y, z'

loop_
  _atom_site_type_symbol
  _atom_site_label
  _atom_site_symmetry_multiplicity
  _atom_site_fract_x
  _atom_site_fract_y
  _atom_site_fract_z
  _atom_site_occupancy
  Cr  Cr1       1.0  0.00000  0.00000  0.00000  1.0000
  Cr  Cr2       1.0  0.50000  0.50000  0.50000  1.0000
  H   H1        1.0  0.12500  0.32500  0.08950  1.0000
  H   H2        1.0  0.32500  0.08950  0.12500  1.0000
  H   H3        1.0  0.37500  0.41100  0.17500  1.0000
  H   H4        1.0  0.08950  0.12500  0.32500  1.0000
  H   H5        1.0  0.41100  0.17500  0.37500  1.0000
  H   H6        1.0  0.17500  0.37500  0.41100  1.0000
  H   H7        1.0  0.82500  0.62500  0.58900  1.0000
  H   H8        1.0  0.58900  0.82500  0.62500  1.0000
  H   H9        1.0  0.91100  0.87500  0.67500  1.0000
  H   H10       1.0  0.62500  0.58900  0.82500  1.0000
  H   H11       1.0  0.67500  0.91100  0.87500  1.0000
  H   H12       1.0  0.87500  0.67500  0.91100  1.0000
  O   O1        1.0  0.90000  0.73900  0.03560  1.0000
  O   O2        1.0  0.26100  0.96400  0.10000  1.0000
  O   O3        1.0  0.40000  0.53600  0.23900  1.0000
  O   O4        1.0  0.96400  0.10000  0.26100  1.0000
  O   O5        1.0  0.53600  0.23900  0.40000  1.0000
  O   O6        1.0  0.76100  0.60000  0.46400  1.0000
  O   O7        1.0  0.23900  0.40000  0.53600  1.0000
  O   O8        1.0  0.46400  0.76100  0.60000  1.0000
  O   O9        1.0  0.03560  0.90000  0.73900  1.0000
  O   O10       1.0  0.60000  0.46400  0.76100  1.0000
  O   O11       1.0  0.73900  0.03560  0.90000  1.0000
  O   O12       1.0  0.10000  0.26100  0.96400  1.0000
  Rb  Rb1       1.0  0.75000  0.37700  0.12300  1.0000
  Rb  Rb2       1.0  0.62300  0.87700  0.25000  1.0000
  Rb  Rb3       1.0  0.12300  0.75000  0.37700  1.0000
  Rb  Rb4       1.0  0.87700  0.25000  0.62300  1.0000
  Rb  Rb5       1.0  0.37700  0.12300  0.75000  1.0000
  Rb  Rb6       1.0  0.25000  0.62300  0.87700  1.0000
