data_image0
_chemical_formula_structural       Ba4C6Cs4O18
_chemical_formula_sum              "Ba4 C6 Cs4 O18"
_cell_length_a       8.90902
_cell_length_b       8.90902
_cell_length_c       8.90902
_cell_angle_alpha    109.471
_cell_angle_beta     109.471
_cell_angle_gamma    109.471

_space_group_name_H-M_alt    "P 1"
_space_group_IT_number       1

loop_
  _space_group_symop_operation_xyz
  'x, y, z'

loop_
  _atom_site_type_symbol
  _atom_site_label
  _atom_site_symmetry_multiplicity
  _atom_site_fract_x
  _atom_site_fract_y
  _atom_site_fract_z
  _atom_site_occupancy
  Ba  Ba1       1.0  0.07770  0.00000  0.00000  1.0000
  Ba  Ba2       1.0  0.50000  0.07770  0.50000  1.0000
  Ba  Ba3       1.0  0.00000  0.50000  0.57800  1.0000
  Ba  Ba4       1.0  0.42200  0.42200  0.92200  1.0000
  C   C1        1.0  0.34000  0.75000  0.08980  1.0000
  C   C2        1.0  0.59000  0.34000  0.25000  1.0000
  C   C3        1.0  0.16000  0.25000  0.41000  1.0000
  C   C4        1.0  0.25000  0.91000  0.66000  1.0000
  C   C5        1.0  0.91000  0.16000  0.75000  1.0000
  C   C6        1.0  0.75000  0.59000  0.84000  1.0000
  Cs  Cs1       1.0  0.62100  0.00000  0.00000  1.0000
  Cs  Cs2       1.0  0.00000  0.50000  0.12100  1.0000
  Cs  Cs3       1.0  0.87900  0.87900  0.37900  1.0000
  Cs  Cs4       1.0  0.50000  0.62100  0.50000  1.0000
  O   O1        1.0  0.25500  0.83500  0.13500  1.0000
  O   O2        1.0  0.42000  0.30000  0.16500  1.0000
  O   O3        1.0  0.46700  0.75000  0.21700  1.0000
  O   O4        1.0  0.71700  0.46700  0.25000  1.0000
  O   O5        1.0  0.03290  0.25000  0.28300  1.0000
  O   O6        1.0  0.63500  0.25500  0.33500  1.0000
  O   O7        1.0  0.20000  0.12100  0.36500  1.0000
  O   O8        1.0  0.25000  0.78300  0.53300  1.0000
  O   O9        1.0  0.24500  0.37900  0.58000  1.0000
  O   O10       1.0  0.86500  0.20000  0.62100  1.0000
  O   O11       1.0  0.12100  0.86500  0.70000  1.0000
  O   O12       1.0  0.37900  0.07980  0.74500  1.0000
  O   O13       1.0  0.78300  0.03290  0.75000  1.0000
  O   O14       1.0  0.83500  0.63500  0.75500  1.0000
  O   O15       1.0  0.66500  0.42000  0.80000  1.0000
  O   O16       1.0  0.07980  0.24500  0.87900  1.0000
  O   O17       1.0  0.30000  0.66500  0.92000  1.0000
  O   O18       1.0  0.75000  0.71700  0.96700  1.0000
