data_image0
_chemical_formula_structural       B2Co6O14P2
_chemical_formula_sum              "B2 Co6 O14 P2"
_cell_length_a       4.88051
_cell_length_b       7.96312
_cell_length_c       7.96312
_cell_angle_alpha    104.459
_cell_angle_beta     107.624
_cell_angle_gamma    107.624

_space_group_name_H-M_alt    "P 1"
_space_group_IT_number       1

loop_
  _space_group_symop_operation_xyz
  'x, y, z'

loop_
  _atom_site_type_symbol
  _atom_site_label
  _atom_site_symmetry_multiplicity
  _atom_site_fract_x
  _atom_site_fract_y
  _atom_site_fract_z
  _atom_site_occupancy
  B   B1        1.0  0.13300  0.95100  0.51600  1.0000
  B   B2        1.0  0.13300  0.51600  0.95100  1.0000
  Co  Co1       1.0  0.79500  0.64700  0.15400  1.0000
  Co  Co2       1.0  0.42800  0.93400  0.22100  1.0000
  Co  Co3       1.0  0.48900  0.70000  0.47800  1.0000
  Co  Co4       1.0  0.79500  0.15400  0.64700  1.0000
  Co  Co5       1.0  0.48900  0.47800  0.70000  1.0000
  Co  Co6       1.0  0.42800  0.22100  0.93400  1.0000
  O   O1        1.0  0.56700  0.02310  0.02310  1.0000
  O   O2        1.0  0.97200  0.88700  0.08790  1.0000
  O   O3        1.0  0.38000  0.66400  0.10600  1.0000
  O   O4        1.0  0.63400  0.40600  0.20500  1.0000
  O   O5        1.0  0.19100  0.82200  0.39300  1.0000
  O   O6        1.0  0.63400  0.20500  0.40600  1.0000
  O   O7        1.0  0.14900  0.44400  0.44400  1.0000
  O   O8        1.0  0.82400  0.92400  0.48000  1.0000
  O   O9        1.0  0.76900  0.55300  0.55300  1.0000
  O   O10       1.0  0.38000  0.10600  0.66400  1.0000
  O   O11       1.0  0.54200  0.75700  0.75700  1.0000
  O   O12       1.0  0.19100  0.39300  0.82200  1.0000
  O   O13       1.0  0.97200  0.08790  0.88700  1.0000
  O   O14       1.0  0.82400  0.48000  0.92400  1.0000
  P   P1        1.0  0.79900  0.40200  0.40200  1.0000
  P   P2        1.0  0.76500  0.93800  0.93800  1.0000
