data_image0
_chemical_formula_structural       Ni4P20Ti8
_chemical_formula_sum              "Ni4 P20 Ti8"
_cell_length_a       11.1082
_cell_length_b       3.32953
_cell_length_c       12.418
_cell_angle_alpha    90
_cell_angle_beta     90
_cell_angle_gamma    90

_space_group_name_H-M_alt    "P 1"
_space_group_IT_number       1

loop_
  _space_group_symop_operation_xyz
  'x, y, z'

loop_
  _atom_site_type_symbol
  _atom_site_label
  _atom_site_symmetry_multiplicity
  _atom_site_fract_x
  _atom_site_fract_y
  _atom_site_fract_z
  _atom_site_occupancy
  Ni  Ni1       1.0  0.34600  0.25000  0.17200  1.0000
  Ni  Ni2       1.0  0.84600  0.25000  0.32800  1.0000
  Ni  Ni3       1.0  0.15400  0.75000  0.67200  1.0000
  Ni  Ni4       1.0  0.65400  0.75000  0.82800  1.0000
  P   P1        1.0  0.43700  0.25000  0.01820  1.0000
  P   P2        1.0  0.06770  0.25000  0.03580  1.0000
  P   P3        1.0  0.21700  0.75000  0.11300  1.0000
  P   P4        1.0  0.67600  0.75000  0.12600  1.0000
  P   P5        1.0  0.92700  0.75000  0.22900  1.0000
  P   P6        1.0  0.42700  0.75000  0.27100  1.0000
  P   P7        1.0  0.17600  0.75000  0.37400  1.0000
  P   P8        1.0  0.71700  0.75000  0.38700  1.0000
  P   P9        1.0  0.56800  0.25000  0.46400  1.0000
  P   P10       1.0  0.93700  0.25000  0.48200  1.0000
  P   P11       1.0  0.06270  0.75000  0.51800  1.0000
  P   P12       1.0  0.43200  0.75000  0.53600  1.0000
  P   P13       1.0  0.28300  0.25000  0.61300  1.0000
  P   P14       1.0  0.82400  0.25000  0.62600  1.0000
  P   P15       1.0  0.57300  0.25000  0.72900  1.0000
  P   P16       1.0  0.07250  0.25000  0.77100  1.0000
  P   P17       1.0  0.32400  0.25000  0.87400  1.0000
  P   P18       1.0  0.78300  0.25000  0.88700  1.0000
  P   P19       1.0  0.93200  0.75000  0.96400  1.0000
  P   P20       1.0  0.56300  0.75000  0.98200  1.0000
  Ti  Ti1       1.0  0.84400  0.25000  0.09840  1.0000
  Ti  Ti2       1.0  0.09680  0.25000  0.23400  1.0000
  Ti  Ti3       1.0  0.59700  0.25000  0.26600  1.0000
  Ti  Ti4       1.0  0.34400  0.25000  0.40200  1.0000
  Ti  Ti5       1.0  0.65600  0.75000  0.59800  1.0000
  Ti  Ti6       1.0  0.40300  0.75000  0.73400  1.0000
  Ti  Ti7       1.0  0.90300  0.75000  0.76600  1.0000
  Ti  Ti8       1.0  0.15600  0.75000  0.90200  1.0000
