data_image0
_chemical_formula_structural       F12K8O8V4
_chemical_formula_sum              "F12 K8 O8 V4"
_cell_length_a       7.16373
_cell_length_b       5.52518
_cell_length_c       11.2098
_cell_angle_alpha    90
_cell_angle_beta     90
_cell_angle_gamma    90

_space_group_name_H-M_alt    "P 1"
_space_group_IT_number       1

loop_
  _space_group_symop_operation_xyz
  'x, y, z'

loop_
  _atom_site_type_symbol
  _atom_site_label
  _atom_site_symmetry_multiplicity
  _atom_site_fract_x
  _atom_site_fract_y
  _atom_site_fract_z
  _atom_site_occupancy
  F   F1        1.0  0.00000  0.00000  0.00000  1.0000
  F   F2        1.0  0.00000  0.50000  0.00000  1.0000
  F   F3        1.0  0.72000  0.75000  0.09230  1.0000
  F   F4        1.0  0.03090  0.25000  0.19800  1.0000
  F   F5        1.0  0.53100  0.25000  0.30200  1.0000
  F   F6        1.0  0.22000  0.75000  0.40800  1.0000
  F   F7        1.0  0.50000  0.00000  0.50000  1.0000
  F   F8        1.0  0.50000  0.50000  0.50000  1.0000
  F   F9        1.0  0.78000  0.25000  0.59200  1.0000
  F   F10       1.0  0.46900  0.75000  0.69800  1.0000
  F   F11       1.0  0.96900  0.75000  0.80200  1.0000
  F   F12       1.0  0.28000  0.25000  0.90800  1.0000
  K   K1        1.0  0.68500  0.25000  0.08980  1.0000
  K   K2        1.0  0.02530  0.75000  0.21600  1.0000
  K   K3        1.0  0.52500  0.75000  0.28400  1.0000
  K   K4        1.0  0.18500  0.25000  0.41000  1.0000
  K   K5        1.0  0.81500  0.75000  0.59000  1.0000
  K   K6        1.0  0.47500  0.25000  0.71600  1.0000
  K   K7        1.0  0.97500  0.25000  0.78400  1.0000
  K   K8        1.0  0.31500  0.75000  0.91000  1.0000
  O   O1        1.0  0.32900  0.01490  0.11500  1.0000
  O   O2        1.0  0.32900  0.48500  0.11500  1.0000
  O   O3        1.0  0.82900  0.01490  0.38500  1.0000
  O   O4        1.0  0.82900  0.48500  0.38500  1.0000
  O   O5        1.0  0.17100  0.51500  0.61500  1.0000
  O   O6        1.0  0.17100  0.98500  0.61500  1.0000
  O   O7        1.0  0.67100  0.51500  0.88500  1.0000
  O   O8        1.0  0.67100  0.98500  0.88500  1.0000
  V   V1        1.0  0.20300  0.25000  0.07090  1.0000
  V   V2        1.0  0.70300  0.25000  0.42900  1.0000
  V   V3        1.0  0.29700  0.75000  0.57100  1.0000
  V   V4        1.0  0.79700  0.75000  0.92900  1.0000
