data_image0
_chemical_formula_structural       Cr11K3S18
_chemical_formula_sum              "Cr11 K3 S18"
_cell_length_a       3.5123
_cell_length_b       10.802
_cell_length_c       16.5137
_cell_angle_alpha    99.9979
_cell_angle_beta     90
_cell_angle_gamma    99.3564

_space_group_name_H-M_alt    "P 1"
_space_group_IT_number       1

loop_
  _space_group_symop_operation_xyz
  'x, y, z'

loop_
  _atom_site_type_symbol
  _atom_site_label
  _atom_site_symmetry_multiplicity
  _atom_site_fract_x
  _atom_site_fract_y
  _atom_site_fract_z
  _atom_site_occupancy
  Cr  Cr1       1.0  0.00000  0.00000  0.00000  1.0000
  Cr  Cr2       1.0  0.40800  0.81700  0.12900  1.0000
  Cr  Cr3       1.0  0.53000  0.06090  0.25300  1.0000
  Cr  Cr4       1.0  0.84800  0.69600  0.27800  1.0000
  Cr  Cr5       1.0  0.16700  0.33300  0.32000  1.0000
  Cr  Cr6       1.0  0.29500  0.59100  0.43100  1.0000
  Cr  Cr7       1.0  0.70500  0.40900  0.56900  1.0000
  Cr  Cr8       1.0  0.83300  0.66700  0.68000  1.0000
  Cr  Cr9       1.0  0.15200  0.30400  0.72200  1.0000
  Cr  Cr10      1.0  0.47000  0.93900  0.74700  1.0000
  Cr  Cr11      1.0  0.59200  0.18300  0.87100  1.0000
  K   K1        1.0  0.19500  0.39000  0.09390  1.0000
  K   K2        1.0  0.50000  0.00000  0.50000  1.0000
  K   K3        1.0  0.80500  0.61000  0.90600  1.0000
  S   S1        1.0  0.57800  0.15700  0.00971  1.0000
  S   S2        1.0  0.83300  0.66500  0.12600  1.0000
  S   S3        1.0  0.99500  0.99000  0.14600  1.0000
  S   S4        1.0  0.63500  0.27000  0.22700  1.0000
  S   S5        1.0  0.42300  0.84500  0.27700  1.0000
  S   S6        1.0  0.27300  0.54600  0.28500  1.0000
  S   S7        1.0  0.06160  0.12300  0.34800  1.0000
  S   S8        1.0  0.70800  0.41500  0.42400  1.0000
  S   S9        1.0  0.86800  0.73500  0.42600  1.0000
  S   S10       1.0  0.13200  0.26500  0.57400  1.0000
  S   S11       1.0  0.29200  0.58500  0.57600  1.0000
  S   S12       1.0  0.93800  0.87700  0.65200  1.0000
  S   S13       1.0  0.72700  0.45400  0.71500  1.0000
  S   S14       1.0  0.57700  0.15500  0.72300  1.0000
  S   S15       1.0  0.36500  0.73000  0.77300  1.0000
  S   S16       1.0  0.00495  0.00990  0.85400  1.0000
  S   S17       1.0  0.16700  0.33500  0.87400  1.0000
  S   S18       1.0  0.42200  0.84300  0.99000  1.0000
