data_image0
_chemical_formula_structural       K12Nb4S16
_chemical_formula_sum              "K12 Nb4 S16"
_cell_length_a       9.33839
_cell_length_b       10.7722
_cell_length_c       9.51548
_cell_angle_alpha    90
_cell_angle_beta     90
_cell_angle_gamma    90

_space_group_name_H-M_alt    "P 1"
_space_group_IT_number       1

loop_
  _space_group_symop_operation_xyz
  'x, y, z'

loop_
  _atom_site_type_symbol
  _atom_site_label
  _atom_site_symmetry_multiplicity
  _atom_site_fract_x
  _atom_site_fract_y
  _atom_site_fract_z
  _atom_site_occupancy
  K   K1        1.0  0.13400  0.75000  0.07820  1.0000
  K   K2        1.0  0.55700  0.04490  0.21200  1.0000
  K   K3        1.0  0.55700  0.45500  0.21200  1.0000
  K   K4        1.0  0.05680  0.04490  0.28800  1.0000
  K   K5        1.0  0.05680  0.45500  0.28800  1.0000
  K   K6        1.0  0.63400  0.75000  0.42200  1.0000
  K   K7        1.0  0.36600  0.25000  0.57800  1.0000
  K   K8        1.0  0.94300  0.54500  0.71200  1.0000
  K   K9        1.0  0.94300  0.95500  0.71200  1.0000
  K   K10       1.0  0.44300  0.54500  0.78800  1.0000
  K   K11       1.0  0.44300  0.95500  0.78800  1.0000
  K   K12       1.0  0.86600  0.25000  0.92200  1.0000
  Nb  Nb1       1.0  0.28500  0.25000  0.01290  1.0000
  Nb  Nb2       1.0  0.78500  0.25000  0.48700  1.0000
  Nb  Nb3       1.0  0.21500  0.75000  0.51300  1.0000
  Nb  Nb4       1.0  0.71500  0.75000  0.98700  1.0000
  S   S1        1.0  0.83500  0.57300  0.05170  1.0000
  S   S2        1.0  0.83500  0.92700  0.05170  1.0000
  S   S3        1.0  0.49000  0.75000  0.08660  1.0000
  S   S4        1.0  0.80800  0.25000  0.24700  1.0000
  S   S5        1.0  0.30800  0.25000  0.25300  1.0000
  S   S6        1.0  0.99000  0.75000  0.41300  1.0000
  S   S7        1.0  0.33500  0.57300  0.44800  1.0000
  S   S8        1.0  0.33500  0.92700  0.44800  1.0000
  S   S9        1.0  0.66500  0.07350  0.55200  1.0000
  S   S10       1.0  0.66500  0.42700  0.55200  1.0000
  S   S11       1.0  0.00972  0.25000  0.58700  1.0000
  S   S12       1.0  0.69200  0.75000  0.74700  1.0000
  S   S13       1.0  0.19200  0.75000  0.75300  1.0000
  S   S14       1.0  0.51000  0.25000  0.91300  1.0000
  S   S15       1.0  0.16500  0.07350  0.94800  1.0000
  S   S16       1.0  0.16500  0.42700  0.94800  1.0000
