data_image0
_chemical_formula_structural       Bi4Ge2O10
_chemical_formula_sum              "Bi4 Ge2 O10"
_cell_length_a       5.35517
_cell_length_b       5.5053
_cell_length_c       8.29753
_cell_angle_alpha    109.375
_cell_angle_beta     90
_cell_angle_gamma    90

_space_group_name_H-M_alt    "P 1"
_space_group_IT_number       1

loop_
  _space_group_symop_operation_xyz
  'x, y, z'

loop_
  _atom_site_type_symbol
  _atom_site_label
  _atom_site_symmetry_multiplicity
  _atom_site_fract_x
  _atom_site_fract_y
  _atom_site_fract_z
  _atom_site_occupancy
  Bi  Bi1       1.0  0.72800  0.39300  0.33600  1.0000
  Bi  Bi2       1.0  0.22800  0.94300  0.33600  1.0000
  Bi  Bi3       1.0  0.72800  0.05750  0.66400  1.0000
  Bi  Bi4       1.0  0.22800  0.60700  0.66400  1.0000
  Ge  Ge1       1.0  0.20500  0.31400  0.00000  1.0000
  Ge  Ge2       1.0  0.70500  0.68600  0.00000  1.0000
  O   O1        1.0  0.53100  0.40200  0.00000  1.0000
  O   O2        1.0  0.03150  0.59800  0.00000  1.0000
  O   O3        1.0  0.14900  0.27200  0.19500  1.0000
  O   O4        1.0  0.64900  0.92300  0.19500  1.0000
  O   O5        1.0  0.96100  0.74300  0.49800  1.0000
  O   O6        1.0  0.46100  0.75500  0.49800  1.0000
  O   O7        1.0  0.96100  0.24500  0.50200  1.0000
  O   O8        1.0  0.46100  0.25700  0.50200  1.0000
  O   O9        1.0  0.14900  0.07670  0.80500  1.0000
  O   O10       1.0  0.64900  0.72800  0.80500  1.0000
