data_image0
_chemical_formula_structural       La8O16Se4Si4
_chemical_formula_sum              "La8 O16 Se4 Si4"
_cell_length_a       6.27804
_cell_length_b       7.30456
_cell_length_c       11.1589
_cell_angle_alpha    90
_cell_angle_beta     90
_cell_angle_gamma    90

_space_group_name_H-M_alt    "P 1"
_space_group_IT_number       1

loop_
  _space_group_symop_operation_xyz
  'x, y, z'

loop_
  _atom_site_type_symbol
  _atom_site_label
  _atom_site_symmetry_multiplicity
  _atom_site_fract_x
  _atom_site_fract_y
  _atom_site_fract_z
  _atom_site_occupancy
  La  La1       1.0  0.60600  0.25000  0.00000  1.0000
  La  La2       1.0  0.39400  0.75000  0.00000  1.0000
  La  La3       1.0  0.12500  0.03780  0.25000  1.0000
  La  La4       1.0  0.87500  0.53800  0.25000  1.0000
  La  La5       1.0  0.60600  0.25000  0.50000  1.0000
  La  La6       1.0  0.39400  0.75000  0.50000  1.0000
  La  La7       1.0  0.12500  0.46200  0.75000  1.0000
  La  La8       1.0  0.87500  0.96200  0.75000  1.0000
  O   O1        1.0  0.26700  0.07690  0.03290  1.0000
  O   O2        1.0  0.73300  0.57700  0.03290  1.0000
  O   O3        1.0  0.95100  0.26800  0.11700  1.0000
  O   O4        1.0  0.04920  0.76800  0.11700  1.0000
  O   O5        1.0  0.95100  0.26800  0.38300  1.0000
  O   O6        1.0  0.04920  0.76800  0.38300  1.0000
  O   O7        1.0  0.26700  0.07690  0.46700  1.0000
  O   O8        1.0  0.73300  0.57700  0.46700  1.0000
  O   O9        1.0  0.26700  0.42300  0.53300  1.0000
  O   O10       1.0  0.73300  0.92300  0.53300  1.0000
  O   O11       1.0  0.95100  0.23200  0.61700  1.0000
  O   O12       1.0  0.04920  0.73200  0.61700  1.0000
  O   O13       1.0  0.95100  0.23200  0.88300  1.0000
  O   O14       1.0  0.04920  0.73200  0.88300  1.0000
  O   O15       1.0  0.26700  0.42300  0.96700  1.0000
  O   O16       1.0  0.73300  0.92300  0.96700  1.0000
  Se  Se1       1.0  0.41700  0.40100  0.25000  1.0000
  Se  Se2       1.0  0.58300  0.90100  0.25000  1.0000
  Se  Se3       1.0  0.41700  0.09850  0.75000  1.0000
  Se  Se4       1.0  0.58300  0.59900  0.75000  1.0000
  Si  Si1       1.0  0.11100  0.25000  0.00000  1.0000
  Si  Si2       1.0  0.88900  0.75000  0.00000  1.0000
  Si  Si3       1.0  0.11100  0.25000  0.50000  1.0000
  Si  Si4       1.0  0.88900  0.75000  0.50000  1.0000
