data_image0
_chemical_formula_structural       Fe2Li2O20Se8
_chemical_formula_sum              "Fe2 Li2 O20 Se8"
_cell_length_a       5.8962
_cell_length_b       6.7718
_cell_length_c       10.2682
_cell_angle_alpha    90
_cell_angle_beta     90
_cell_angle_gamma    90

_space_group_name_H-M_alt    "P 1"
_space_group_IT_number       1

loop_
  _space_group_symop_operation_xyz
  'x, y, z'

loop_
  _atom_site_type_symbol
  _atom_site_label
  _atom_site_symmetry_multiplicity
  _atom_site_fract_x
  _atom_site_fract_y
  _atom_site_fract_z
  _atom_site_occupancy
  Fe  Fe1       1.0  0.00000  0.50000  0.39900  1.0000
  Fe  Fe2       1.0  0.00000  0.00000  0.89900  1.0000
  Li  Li1       1.0  0.50000  0.50000  0.28000  1.0000
  Li  Li2       1.0  0.50000  0.00000  0.78000  1.0000
  O   O1        1.0  0.10200  0.18800  0.04320  1.0000
  O   O2        1.0  0.89800  0.81200  0.04320  1.0000
  O   O3        1.0  0.58700  0.29300  0.13500  1.0000
  O   O4        1.0  0.41300  0.70700  0.13500  1.0000
  O   O5        1.0  0.19200  0.35400  0.26900  1.0000
  O   O6        1.0  0.80800  0.64600  0.26900  1.0000
  O   O7        1.0  0.00000  0.00000  0.27500  1.0000
  O   O8        1.0  0.71800  0.33900  0.40400  1.0000
  O   O9        1.0  0.28200  0.66100  0.40400  1.0000
  O   O10       1.0  0.50000  0.00000  0.40800  1.0000
  O   O11       1.0  0.10200  0.31200  0.54300  1.0000
  O   O12       1.0  0.89800  0.68800  0.54300  1.0000
  O   O13       1.0  0.58700  0.20700  0.63500  1.0000
  O   O14       1.0  0.41300  0.79300  0.63500  1.0000
  O   O15       1.0  0.19200  0.14600  0.76900  1.0000
  O   O16       1.0  0.80800  0.85400  0.76900  1.0000
  O   O17       1.0  0.00000  0.50000  0.77500  1.0000
  O   O18       1.0  0.71800  0.16100  0.90400  1.0000
  O   O19       1.0  0.28200  0.83900  0.90400  1.0000
  O   O20       1.0  0.50000  0.50000  0.90800  1.0000
  Se  Se1       1.0  0.72700  0.36900  0.00096  1.0000
  Se  Se2       1.0  0.27300  0.63100  0.00096  1.0000
  Se  Se3       1.0  0.23100  0.13500  0.19000  1.0000
  Se  Se4       1.0  0.76900  0.86500  0.19000  1.0000
  Se  Se5       1.0  0.72700  0.13100  0.50100  1.0000
  Se  Se6       1.0  0.27300  0.86900  0.50100  1.0000
  Se  Se7       1.0  0.23100  0.36500  0.69000  1.0000
  Se  Se8       1.0  0.76900  0.63500  0.69000  1.0000
