data_image0
_chemical_formula_structural       B4Cl4F24
_chemical_formula_sum              "B4 Cl4 F24"
_cell_length_a       5.18902
_cell_length_b       8.32649
_cell_length_c       9.01574
_cell_angle_alpha    90
_cell_angle_beta     115.425
_cell_angle_gamma    90

_space_group_name_H-M_alt    "P 1"
_space_group_IT_number       1

loop_
  _space_group_symop_operation_xyz
  'x, y, z'

loop_
  _atom_site_type_symbol
  _atom_site_label
  _atom_site_symmetry_multiplicity
  _atom_site_fract_x
  _atom_site_fract_y
  _atom_site_fract_z
  _atom_site_occupancy
  B   B1        1.0  0.43900  0.00010  0.19400  1.0000
  B   B2        1.0  0.56100  0.50000  0.30600  1.0000
  B   B3        1.0  0.43900  0.50000  0.69400  1.0000
  B   B4        1.0  0.56100  0.00000  0.80600  1.0000
  Cl  Cl1       1.0  0.83400  0.22800  0.11100  1.0000
  Cl  Cl2       1.0  0.16600  0.72800  0.38900  1.0000
  Cl  Cl3       1.0  0.83400  0.27200  0.61100  1.0000
  Cl  Cl4       1.0  0.16600  0.77200  0.88900  1.0000
  F   F1        1.0  0.95000  0.36600  0.03150  1.0000
  F   F2        1.0  0.27000  0.08920  0.05760  1.0000
  F   F3        1.0  0.42200  0.83300  0.15200  1.0000
  F   F4        1.0  0.62100  0.51900  0.17300  1.0000
  F   F5        1.0  0.96000  0.77800  0.20400  1.0000
  F   F6        1.0  0.73100  0.04400  0.23800  1.0000
  F   F7        1.0  0.26900  0.54400  0.26200  1.0000
  F   F8        1.0  0.03990  0.27800  0.29600  1.0000
  F   F9        1.0  0.37900  0.01900  0.32700  1.0000
  F   F10       1.0  0.57800  0.33300  0.34800  1.0000
  F   F11       1.0  0.73000  0.58900  0.44200  1.0000
  F   F12       1.0  0.05020  0.86600  0.46900  1.0000
  F   F13       1.0  0.95000  0.13400  0.53200  1.0000
  F   F14       1.0  0.27000  0.41100  0.55800  1.0000
  F   F15       1.0  0.42200  0.66700  0.65200  1.0000
  F   F16       1.0  0.62100  0.98100  0.67300  1.0000
  F   F17       1.0  0.96000  0.72200  0.70400  1.0000
  F   F18       1.0  0.73100  0.45600  0.73800  1.0000
  F   F19       1.0  0.26900  0.95600  0.76200  1.0000
  F   F20       1.0  0.03990  0.22200  0.79600  1.0000
  F   F21       1.0  0.37900  0.48100  0.82700  1.0000
  F   F22       1.0  0.57800  0.16700  0.84800  1.0000
  F   F23       1.0  0.73000  0.91100  0.94200  1.0000
  F   F24       1.0  0.05020  0.63400  0.96900  1.0000
