data_image0
_chemical_formula_structural       Bi8O20Te4
_chemical_formula_sum              "Bi8 O20 Te4"
_cell_length_a       5.51538
_cell_length_b       8.64952
_cell_length_c       11.4763
_cell_angle_alpha    90
_cell_angle_beta     90
_cell_angle_gamma    108.592

_space_group_name_H-M_alt    "P 1"
_space_group_IT_number       1

loop_
  _space_group_symop_operation_xyz
  'x, y, z'

loop_
  _atom_site_type_symbol
  _atom_site_label
  _atom_site_symmetry_multiplicity
  _atom_site_fract_x
  _atom_site_fract_y
  _atom_site_fract_z
  _atom_site_occupancy
  Bi  Bi1       1.0  0.75700  0.50000  0.12300  1.0000
  Bi  Bi2       1.0  0.25300  0.50000  0.38000  1.0000
  Bi  Bi3       1.0  0.60800  0.17000  0.38900  1.0000
  Bi  Bi4       1.0  0.93800  0.83000  0.38900  1.0000
  Bi  Bi5       1.0  0.10800  0.17000  0.61100  1.0000
  Bi  Bi6       1.0  0.43800  0.83000  0.61100  1.0000
  Bi  Bi7       1.0  0.75300  0.50000  0.62000  1.0000
  Bi  Bi8       1.0  0.25700  0.50000  0.87700  1.0000
  O   O1        1.0  0.92900  0.29000  0.06020  1.0000
  O   O2        1.0  0.13800  0.71000  0.06020  1.0000
  O   O3        1.0  0.37400  0.31600  0.20600  1.0000
  O   O4        1.0  0.55700  0.68400  0.20600  1.0000
  O   O5        1.0  0.89400  0.07850  0.25700  1.0000
  O   O6        1.0  0.31500  0.92100  0.25700  1.0000
  O   O7        1.0  0.89500  0.50000  0.29100  1.0000
  O   O8        1.0  0.96500  0.32200  0.48300  1.0000
  O   O9        1.0  0.14300  0.67800  0.48300  1.0000
  O   O10       1.0  0.22900  0.00000  0.50000  1.0000
  O   O11       1.0  0.72900  0.00000  0.50000  1.0000
  O   O12       1.0  0.46500  0.32200  0.51700  1.0000
  O   O13       1.0  0.64300  0.67800  0.51700  1.0000
  O   O14       1.0  0.39500  0.50000  0.70900  1.0000
  O   O15       1.0  0.39400  0.07850  0.74300  1.0000
  O   O16       1.0  0.81500  0.92100  0.74300  1.0000
  O   O17       1.0  0.87400  0.31600  0.79400  1.0000
  O   O18       1.0  0.05750  0.68400  0.79400  1.0000
  O   O19       1.0  0.42900  0.29000  0.94000  1.0000
  O   O20       1.0  0.63800  0.71000  0.94000  1.0000
  Te  Te1       1.0  0.10900  0.15600  0.12700  1.0000
  Te  Te2       1.0  0.45300  0.84400  0.12700  1.0000
  Te  Te3       1.0  0.60900  0.15600  0.87300  1.0000
  Te  Te4       1.0  0.95300  0.84400  0.87300  1.0000
