data_image0
_chemical_formula_structural       Ge4Na4Nb4O20
_chemical_formula_sum              "Ge4 Na4 Nb4 O20"
_cell_length_a       6.71904
_cell_length_b       8.9473
_cell_length_c       7.52349
_cell_angle_alpha    90.0012
_cell_angle_beta     114.69
_cell_angle_gamma    89.997

_space_group_name_H-M_alt    "P 1"
_space_group_IT_number       1

loop_
  _space_group_symop_operation_xyz
  'x, y, z'

loop_
  _atom_site_type_symbol
  _atom_site_label
  _atom_site_symmetry_multiplicity
  _atom_site_fract_x
  _atom_site_fract_y
  _atom_site_fract_z
  _atom_site_occupancy
  Ge  Ge1       1.0  0.24500  0.06300  0.24700  1.0000
  Ge  Ge2       1.0  0.75500  0.56300  0.25300  1.0000
  Ge  Ge3       1.0  0.24500  0.43700  0.74700  1.0000
  Ge  Ge4       1.0  0.75500  0.93700  0.75300  1.0000
  Na  Na1       1.0  0.24100  0.41700  0.20500  1.0000
  Na  Na2       1.0  0.75900  0.91700  0.29500  1.0000
  Na  Na3       1.0  0.24100  0.08310  0.70500  1.0000
  Na  Na4       1.0  0.75900  0.58300  0.79500  1.0000
  Nb  Nb1       1.0  0.74000  0.23900  0.02030  1.0000
  Nb  Nb2       1.0  0.26000  0.73900  0.48000  1.0000
  Nb  Nb3       1.0  0.74000  0.26100  0.52000  1.0000
  Nb  Nb4       1.0  0.26000  0.76100  0.98000  1.0000
  O   O1        1.0  0.04970  0.18100  0.07490  1.0000
  O   O2        1.0  0.56800  0.68900  0.08500  1.0000
  O   O3        1.0  0.85500  0.45000  0.11700  1.0000
  O   O4        1.0  0.36800  0.95400  0.12600  1.0000
  O   O5        1.0  0.25300  0.67500  0.24500  1.0000
  O   O6        1.0  0.74700  0.17500  0.25500  1.0000
  O   O7        1.0  0.63200  0.45400  0.37400  1.0000
  O   O8        1.0  0.14500  0.95000  0.38300  1.0000
  O   O9        1.0  0.43200  0.18900  0.41500  1.0000
  O   O10       1.0  0.95000  0.68100  0.42500  1.0000
  O   O11       1.0  0.04970  0.31900  0.57500  1.0000
  O   O12       1.0  0.56800  0.81100  0.58500  1.0000
  O   O13       1.0  0.85500  0.04980  0.61700  1.0000
  O   O14       1.0  0.36800  0.54600  0.62600  1.0000
  O   O15       1.0  0.25300  0.82500  0.74500  1.0000
  O   O16       1.0  0.74700  0.32500  0.75500  1.0000
  O   O17       1.0  0.63200  0.04630  0.87400  1.0000
  O   O18       1.0  0.14500  0.55000  0.88300  1.0000
  O   O19       1.0  0.43200  0.31100  0.91500  1.0000
  O   O20       1.0  0.95000  0.81900  0.92500  1.0000
