data_image0
_chemical_formula_structural       Pb4Se20U8
_chemical_formula_sum              "Pb4 Se20 U8"
_cell_length_a       8.61073
_cell_length_b       7.8221
_cell_length_c       12.2622
_cell_angle_alpha    90
_cell_angle_beta     89.5997
_cell_angle_gamma    90

_space_group_name_H-M_alt    "P 1"
_space_group_IT_number       1

loop_
  _space_group_symop_operation_xyz
  'x, y, z'

loop_
  _atom_site_type_symbol
  _atom_site_label
  _atom_site_symmetry_multiplicity
  _atom_site_fract_x
  _atom_site_fract_y
  _atom_site_fract_z
  _atom_site_occupancy
  Pb  Pb1       1.0  0.01360  0.98700  0.18100  1.0000
  Pb  Pb2       1.0  0.98600  0.48700  0.31900  1.0000
  Pb  Pb3       1.0  0.01360  0.51300  0.68100  1.0000
  Pb  Pb4       1.0  0.98600  0.01300  0.81900  1.0000
  Se  Se1       1.0  0.71900  0.04460  0.00133  1.0000
  Se  Se2       1.0  0.04050  0.33800  0.08720  1.0000
  Se  Se3       1.0  0.45100  0.33500  0.09790  1.0000
  Se  Se4       1.0  0.72300  0.66600  0.18300  1.0000
  Se  Se5       1.0  0.26800  0.69600  0.21800  1.0000
  Se  Se6       1.0  0.73200  0.19600  0.28200  1.0000
  Se  Se7       1.0  0.27700  0.16600  0.31700  1.0000
  Se  Se8       1.0  0.54900  0.83500  0.40200  1.0000
  Se  Se9       1.0  0.96000  0.83800  0.41300  1.0000
  Se  Se10      1.0  0.28100  0.54500  0.49900  1.0000
  Se  Se11      1.0  0.71900  0.45500  0.50100  1.0000
  Se  Se12      1.0  0.04050  0.16200  0.58700  1.0000
  Se  Se13      1.0  0.45100  0.16500  0.59800  1.0000
  Se  Se14      1.0  0.72300  0.83400  0.68300  1.0000
  Se  Se15      1.0  0.26800  0.80400  0.71800  1.0000
  Se  Se16      1.0  0.73200  0.30400  0.78200  1.0000
  Se  Se17      1.0  0.27700  0.33400  0.81700  1.0000
  Se  Se18      1.0  0.54900  0.66500  0.90200  1.0000
  Se  Se19      1.0  0.96000  0.66200  0.91300  1.0000
  Se  Se20      1.0  0.28100  0.95500  0.99900  1.0000
  U   U1        1.0  0.74400  0.42100  0.00717  1.0000
  U   U2        1.0  0.50000  0.98100  0.18200  1.0000
  U   U3        1.0  0.50000  0.48100  0.31800  1.0000
  U   U4        1.0  0.25600  0.92100  0.49300  1.0000
  U   U5        1.0  0.74400  0.07870  0.50700  1.0000
  U   U6        1.0  0.50000  0.51900  0.68200  1.0000
  U   U7        1.0  0.50000  0.01920  0.81800  1.0000
  U   U8        1.0  0.25600  0.57900  0.99300  1.0000
