data_image0
_chemical_formula_structural       F20K4Li4Y4
_chemical_formula_sum              "F20 K4 Li4 Y4"
_cell_length_a       6.29501
_cell_length_b       11.3559
_cell_length_c       6.13508
_cell_angle_alpha    89.9983
_cell_angle_beta     112.623
_cell_angle_gamma    90.0005

_space_group_name_H-M_alt    "P 1"
_space_group_IT_number       1

loop_
  _space_group_symop_operation_xyz
  'x, y, z'

loop_
  _atom_site_type_symbol
  _atom_site_label
  _atom_site_symmetry_multiplicity
  _atom_site_fract_x
  _atom_site_fract_y
  _atom_site_fract_z
  _atom_site_occupancy
  F   F1        1.0  0.54100  0.39000  0.03970  1.0000
  F   F2        1.0  0.33300  0.04000  0.05390  1.0000
  F   F3        1.0  0.95300  0.51200  0.17900  1.0000
  F   F4        1.0  0.71300  0.17700  0.21400  1.0000
  F   F5        1.0  0.25900  0.29900  0.21800  1.0000
  F   F6        1.0  0.74100  0.79900  0.28100  1.0000
  F   F7        1.0  0.28700  0.67700  0.28700  1.0000
  F   F8        1.0  0.04800  0.01310  0.32000  1.0000
  F   F9        1.0  0.66800  0.54000  0.44700  1.0000
  F   F10       1.0  0.45900  0.89000  0.46000  1.0000
  F   F11       1.0  0.54100  0.11000  0.54000  1.0000
  F   F12       1.0  0.33300  0.46000  0.55400  1.0000
  F   F13       1.0  0.95300  0.98800  0.67900  1.0000
  F   F14       1.0  0.71300  0.32300  0.71400  1.0000
  F   F15       1.0  0.25900  0.20100  0.71800  1.0000
  F   F16       1.0  0.74100  0.70100  0.78100  1.0000
  F   F17       1.0  0.28600  0.82300  0.78700  1.0000
  F   F18       1.0  0.04810  0.48700  0.82000  1.0000
  F   F19       1.0  0.66700  0.96000  0.94700  1.0000
  F   F20       1.0  0.45900  0.61000  0.96000  1.0000
  K   K1        1.0  0.05880  0.84600  0.04650  1.0000
  K   K2        1.0  0.94100  0.34600  0.45300  1.0000
  K   K3        1.0  0.05880  0.65400  0.54700  1.0000
  K   K4        1.0  0.94100  0.15400  0.95300  1.0000
  Li  Li1       1.0  0.42800  0.23700  0.04090  1.0000
  Li  Li2       1.0  0.57200  0.73700  0.45900  1.0000
  Li  Li3       1.0  0.42800  0.26200  0.54100  1.0000
  Li  Li4       1.0  0.57200  0.76300  0.95900  1.0000
  Y   Y1        1.0  0.31600  0.49600  0.17900  1.0000
  Y   Y2        1.0  0.68500  0.99600  0.32100  1.0000
  Y   Y3        1.0  0.31500  0.00396  0.67900  1.0000
  Y   Y4        1.0  0.68500  0.50400  0.82100  1.0000
