data_image0
_chemical_formula_structural       H4Na8O16P4
_chemical_formula_sum              "H4 Na8 O16 P4"
_cell_length_a       5.36883
_cell_length_b       6.78014
_cell_length_c       10.8333
_cell_angle_alpha    90
_cell_angle_beta     116.028
_cell_angle_gamma    90

_space_group_name_H-M_alt    "P 1"
_space_group_IT_number       1

loop_
  _space_group_symop_operation_xyz
  'x, y, z'

loop_
  _atom_site_type_symbol
  _atom_site_label
  _atom_site_symmetry_multiplicity
  _atom_site_fract_x
  _atom_site_fract_y
  _atom_site_fract_z
  _atom_site_occupancy
  H   H1        1.0  0.96800  0.00294  0.24000  1.0000
  H   H2        1.0  0.03240  0.50300  0.26000  1.0000
  H   H3        1.0  0.96800  0.49700  0.74000  1.0000
  H   H4        1.0  0.03240  0.99700  0.76000  1.0000
  Na  Na1       1.0  0.00000  0.00000  0.00000  1.0000
  Na  Na2       1.0  0.00000  0.50000  0.00000  1.0000
  Na  Na3       1.0  0.61100  0.73800  0.11000  1.0000
  Na  Na4       1.0  0.38900  0.23800  0.39000  1.0000
  Na  Na5       1.0  0.00000  0.00000  0.50000  1.0000
  Na  Na6       1.0  0.00000  0.50000  0.50000  1.0000
  Na  Na7       1.0  0.61100  0.76200  0.61000  1.0000
  Na  Na8       1.0  0.38900  0.26200  0.89000  1.0000
  O   O1        1.0  0.35000  0.24600  0.10500  1.0000
  O   O2        1.0  0.79300  0.42800  0.14800  1.0000
  O   O3        1.0  0.23700  0.75100  0.15300  1.0000
  O   O4        1.0  0.78600  0.05440  0.15400  1.0000
  O   O5        1.0  0.21400  0.55400  0.34600  1.0000
  O   O6        1.0  0.76300  0.25100  0.34700  1.0000
  O   O7        1.0  0.20700  0.92800  0.35200  1.0000
  O   O8        1.0  0.65000  0.74600  0.39500  1.0000
  O   O9        1.0  0.35000  0.25400  0.60500  1.0000
  O   O10       1.0  0.79300  0.07240  0.64800  1.0000
  O   O11       1.0  0.23700  0.74900  0.65300  1.0000
  O   O12       1.0  0.78600  0.44600  0.65400  1.0000
  O   O13       1.0  0.21400  0.94600  0.84600  1.0000
  O   O14       1.0  0.76300  0.24900  0.84700  1.0000
  O   O15       1.0  0.20700  0.57200  0.85200  1.0000
  O   O16       1.0  0.65000  0.75400  0.89500  1.0000
  P   P1        1.0  0.66300  0.25200  0.19200  1.0000
  P   P2        1.0  0.33700  0.75200  0.30800  1.0000
  P   P3        1.0  0.66300  0.24800  0.69200  1.0000
  P   P4        1.0  0.33700  0.74800  0.80800  1.0000
