data_image0
_chemical_formula_structural       B6O18Sc2Sr6
_chemical_formula_sum              "B6 O18 Sc2 Sr6"
_cell_length_a       7.60544
_cell_length_b       7.60544
_cell_length_c       7.60544
_cell_angle_alpha    104.887
_cell_angle_beta     104.887
_cell_angle_gamma    104.887

_space_group_name_H-M_alt    "P 1"
_space_group_IT_number       1

loop_
  _space_group_symop_operation_xyz
  'x, y, z'

loop_
  _atom_site_type_symbol
  _atom_site_label
  _atom_site_symmetry_multiplicity
  _atom_site_fract_x
  _atom_site_fract_y
  _atom_site_fract_z
  _atom_site_occupancy
  B   B1        1.0  0.37000  0.29000  0.03960  1.0000
  B   B2        1.0  0.03960  0.37000  0.29000  1.0000
  B   B3        1.0  0.29000  0.03960  0.37000  1.0000
  B   B4        1.0  0.71000  0.96000  0.63000  1.0000
  B   B5        1.0  0.96000  0.63000  0.71000  1.0000
  B   B6        1.0  0.63000  0.71000  0.96000  1.0000
  O   O1        1.0  0.82700  0.73800  0.01550  1.0000
  O   O2        1.0  0.55500  0.81000  0.08010  1.0000
  O   O3        1.0  0.26200  0.98500  0.17300  1.0000
  O   O4        1.0  0.92000  0.44500  0.19000  1.0000
  O   O5        1.0  0.49400  0.43400  0.21500  1.0000
  O   O6        1.0  0.98500  0.17300  0.26200  1.0000
  O   O7        1.0  0.21500  0.49400  0.43400  1.0000
  O   O8        1.0  0.19000  0.92000  0.44500  1.0000
  O   O9        1.0  0.43400  0.21500  0.49400  1.0000
  O   O10       1.0  0.56600  0.78500  0.50600  1.0000
  O   O11       1.0  0.81000  0.08010  0.55500  1.0000
  O   O12       1.0  0.78500  0.50600  0.56600  1.0000
  O   O13       1.0  0.01550  0.82700  0.73800  1.0000
  O   O14       1.0  0.50600  0.56600  0.78500  1.0000
  O   O15       1.0  0.08010  0.55500  0.81000  1.0000
  O   O16       1.0  0.73800  0.01550  0.82700  1.0000
  O   O17       1.0  0.44500  0.19000  0.92000  1.0000
  O   O18       1.0  0.17300  0.26200  0.98500  1.0000
  Sc  Sc1       1.0  0.00000  0.00000  0.00000  1.0000
  Sc  Sc2       1.0  0.50000  0.50000  0.50000  1.0000
  Sr  Sr1       1.0  0.26100  0.65100  0.16200  1.0000
  Sr  Sr2       1.0  0.65100  0.16200  0.26100  1.0000
  Sr  Sr3       1.0  0.83800  0.73900  0.34900  1.0000
  Sr  Sr4       1.0  0.16200  0.26100  0.65100  1.0000
  Sr  Sr5       1.0  0.34900  0.83800  0.73900  1.0000
  Sr  Sr6       1.0  0.73900  0.34900  0.83800  1.0000
