data_image0
_chemical_formula_structural       Cl4Se8Tl20
_chemical_formula_sum              "Cl4 Se8 Tl20"
_cell_length_a       8.74453
_cell_length_b       8.74453
_cell_length_c       13.2508
_cell_angle_alpha    90
_cell_angle_beta     90
_cell_angle_gamma    90

_space_group_name_H-M_alt    "P 1"
_space_group_IT_number       1

loop_
  _space_group_symop_operation_xyz
  'x, y, z'

loop_
  _atom_site_type_symbol
  _atom_site_label
  _atom_site_symmetry_multiplicity
  _atom_site_fract_x
  _atom_site_fract_y
  _atom_site_fract_z
  _atom_site_occupancy
  Cl  Cl1       1.0  0.25000  0.25000  0.04440  1.0000
  Cl  Cl2       1.0  0.75000  0.75000  0.45600  1.0000
  Cl  Cl3       1.0  0.25000  0.25000  0.54400  1.0000
  Cl  Cl4       1.0  0.75000  0.75000  0.95600  1.0000
  Se  Se1       1.0  0.58900  0.08900  0.25000  1.0000
  Se  Se2       1.0  0.91100  0.41100  0.25000  1.0000
  Se  Se3       1.0  0.41100  0.58900  0.25000  1.0000
  Se  Se4       1.0  0.08900  0.91100  0.25000  1.0000
  Se  Se5       1.0  0.91100  0.08900  0.75000  1.0000
  Se  Se6       1.0  0.58900  0.41100  0.75000  1.0000
  Se  Se7       1.0  0.08900  0.58900  0.75000  1.0000
  Se  Se8       1.0  0.41100  0.91100  0.75000  1.0000
  Tl  Tl1       1.0  0.91600  0.12500  0.10700  1.0000
  Tl  Tl2       1.0  0.58400  0.37500  0.10700  1.0000
  Tl  Tl3       1.0  0.12500  0.58400  0.10700  1.0000
  Tl  Tl4       1.0  0.37500  0.91600  0.10700  1.0000
  Tl  Tl5       1.0  0.75000  0.75000  0.20400  1.0000
  Tl  Tl6       1.0  0.25000  0.25000  0.29600  1.0000
  Tl  Tl7       1.0  0.87500  0.08360  0.39300  1.0000
  Tl  Tl8       1.0  0.62500  0.41600  0.39300  1.0000
  Tl  Tl9       1.0  0.08360  0.62500  0.39300  1.0000
  Tl  Tl10      1.0  0.41600  0.87500  0.39300  1.0000
  Tl  Tl11      1.0  0.58400  0.12500  0.60700  1.0000
  Tl  Tl12      1.0  0.91600  0.37500  0.60700  1.0000
  Tl  Tl13      1.0  0.37500  0.58400  0.60700  1.0000
  Tl  Tl14      1.0  0.12500  0.91600  0.60700  1.0000
  Tl  Tl15      1.0  0.75000  0.75000  0.70400  1.0000
  Tl  Tl16      1.0  0.25000  0.25000  0.79600  1.0000
  Tl  Tl17      1.0  0.62500  0.08360  0.89300  1.0000
  Tl  Tl18      1.0  0.87500  0.41600  0.89300  1.0000
  Tl  Tl19      1.0  0.41600  0.62500  0.89300  1.0000
  Tl  Tl20      1.0  0.08360  0.87500  0.89300  1.0000
