data_image0
_chemical_formula_structural       H12O12Rb6Sc2
_chemical_formula_sum              "H12 O12 Rb6 Sc2"
_cell_length_a       7.51092
_cell_length_b       7.51092
_cell_length_c       7.51092
_cell_angle_alpha    97.1019
_cell_angle_beta     97.1019
_cell_angle_gamma    97.1019

_space_group_name_H-M_alt    "P 1"
_space_group_IT_number       1

loop_
  _space_group_symop_operation_xyz
  'x, y, z'

loop_
  _atom_site_type_symbol
  _atom_site_label
  _atom_site_symmetry_multiplicity
  _atom_site_fract_x
  _atom_site_fract_y
  _atom_site_fract_z
  _atom_site_occupancy
  H   H1        1.0  0.12600  0.34700  0.08290  1.0000
  H   H2        1.0  0.34700  0.08290  0.12600  1.0000
  H   H3        1.0  0.37400  0.41700  0.15300  1.0000
  H   H4        1.0  0.08290  0.12600  0.34700  1.0000
  H   H5        1.0  0.41700  0.15300  0.37400  1.0000
  H   H6        1.0  0.15300  0.37400  0.41700  1.0000
  H   H7        1.0  0.84700  0.62600  0.58300  1.0000
  H   H8        1.0  0.58300  0.84700  0.62600  1.0000
  H   H9        1.0  0.91700  0.87400  0.65300  1.0000
  H   H10       1.0  0.62600  0.58300  0.84700  1.0000
  H   H11       1.0  0.65300  0.91700  0.87400  1.0000
  H   H12       1.0  0.87400  0.65300  0.91700  1.0000
  O   O1        1.0  0.90600  0.72700  0.03530  1.0000
  O   O2        1.0  0.27300  0.96500  0.09380  1.0000
  O   O3        1.0  0.40600  0.53500  0.22700  1.0000
  O   O4        1.0  0.96500  0.09380  0.27300  1.0000
  O   O5        1.0  0.53500  0.22700  0.40600  1.0000
  O   O6        1.0  0.77300  0.59400  0.46500  1.0000
  O   O7        1.0  0.22700  0.40600  0.53500  1.0000
  O   O8        1.0  0.46500  0.77300  0.59400  1.0000
  O   O9        1.0  0.03530  0.90600  0.72700  1.0000
  O   O10       1.0  0.59400  0.46500  0.77300  1.0000
  O   O11       1.0  0.72700  0.03530  0.90600  1.0000
  O   O12       1.0  0.09380  0.27300  0.96500  1.0000
  Rb  Rb1       1.0  0.75000  0.37000  0.13000  1.0000
  Rb  Rb2       1.0  0.63000  0.87000  0.25000  1.0000
  Rb  Rb3       1.0  0.13000  0.75000  0.37000  1.0000
  Rb  Rb4       1.0  0.87000  0.25000  0.63000  1.0000
  Rb  Rb5       1.0  0.37000  0.13000  0.75000  1.0000
  Rb  Rb6       1.0  0.25000  0.63000  0.87000  1.0000
  Sc  Sc1       1.0  0.00000  0.00000  0.00000  1.0000
  Sc  Sc2       1.0  0.50000  0.50000  0.50000  1.0000
