data_image0
_chemical_formula_structural       F20Gd4K8
_chemical_formula_sum              "F20 Gd4 K8"
_cell_length_a       10.4222
_cell_length_b       6.40374
_cell_length_c       7.22736
_cell_angle_alpha    90
_cell_angle_beta     90
_cell_angle_gamma    90

_space_group_name_H-M_alt    "P 1"
_space_group_IT_number       1

loop_
  _space_group_symop_operation_xyz
  'x, y, z'

loop_
  _atom_site_type_symbol
  _atom_site_label
  _atom_site_symmetry_multiplicity
  _atom_site_fract_x
  _atom_site_fract_y
  _atom_site_fract_z
  _atom_site_occupancy
  F   F1        1.0  0.92100  0.65500  0.03690  1.0000
  F   F2        1.0  0.42100  0.84500  0.03690  1.0000
  F   F3        1.0  0.00964  0.08930  0.25000  1.0000
  F   F4        1.0  0.30000  0.16800  0.25000  1.0000
  F   F5        1.0  0.80000  0.33200  0.25000  1.0000
  F   F6        1.0  0.51000  0.41100  0.25000  1.0000
  F   F7        1.0  0.17500  0.63800  0.25000  1.0000
  F   F8        1.0  0.67500  0.86200  0.25000  1.0000
  F   F9        1.0  0.92100  0.65500  0.46300  1.0000
  F   F10       1.0  0.42100  0.84500  0.46300  1.0000
  F   F11       1.0  0.57900  0.15500  0.53700  1.0000
  F   F12       1.0  0.07920  0.34500  0.53700  1.0000
  F   F13       1.0  0.32500  0.13800  0.75000  1.0000
  F   F14       1.0  0.82500  0.36200  0.75000  1.0000
  F   F15       1.0  0.49000  0.58900  0.75000  1.0000
  F   F16       1.0  0.20000  0.66800  0.75000  1.0000
  F   F17       1.0  0.70000  0.83200  0.75000  1.0000
  F   F18       1.0  0.99000  0.91100  0.75000  1.0000
  F   F19       1.0  0.57900  0.15500  0.96300  1.0000
  F   F20       1.0  0.07920  0.34500  0.96300  1.0000
  Gd  Gd1       1.0  0.50700  0.06420  0.25000  1.0000
  Gd  Gd2       1.0  0.00657  0.43600  0.25000  1.0000
  Gd  Gd3       1.0  0.99300  0.56400  0.75000  1.0000
  Gd  Gd4       1.0  0.49300  0.93600  0.75000  1.0000
  K   K1        1.0  0.67100  0.53900  0.00421  1.0000
  K   K2        1.0  0.17100  0.96100  0.00421  1.0000
  K   K3        1.0  0.67100  0.53900  0.49600  1.0000
  K   K4        1.0  0.17100  0.96100  0.49600  1.0000
  K   K5        1.0  0.82900  0.03860  0.50400  1.0000
  K   K6        1.0  0.32900  0.46100  0.50400  1.0000
  K   K7        1.0  0.82900  0.03860  0.99600  1.0000
  K   K8        1.0  0.32900  0.46100  0.99600  1.0000
