data_image0
_chemical_formula_structural       Br16O8S8
_chemical_formula_sum              "Br16 O8 S8"
_cell_length_a       11.6881
_cell_length_b       4.11706
_cell_length_c       18.1501
_cell_angle_alpha    90
_cell_angle_beta     90
_cell_angle_gamma    90

_space_group_name_H-M_alt    "P 1"
_space_group_IT_number       1

loop_
  _space_group_symop_operation_xyz
  'x, y, z'

loop_
  _atom_site_type_symbol
  _atom_site_label
  _atom_site_symmetry_multiplicity
  _atom_site_fract_x
  _atom_site_fract_y
  _atom_site_fract_z
  _atom_site_occupancy
  Br  Br1       1.0  0.58700  0.13900  0.20400  1.0000
  Br  Br2       1.0  0.08690  0.86100  0.20400  1.0000
  Br  Br3       1.0  0.30700  0.49600  0.30300  1.0000
  Br  Br4       1.0  0.80700  0.50400  0.30300  1.0000
  Br  Br5       1.0  0.55900  0.02090  0.39900  1.0000
  Br  Br6       1.0  0.05890  0.97900  0.39900  1.0000
  Br  Br7       1.0  0.84200  0.36000  0.50000  1.0000
  Br  Br8       1.0  0.34200  0.64000  0.50000  1.0000
  Br  Br9       1.0  0.91300  0.13900  0.70400  1.0000
  Br  Br10      1.0  0.41300  0.86100  0.70400  1.0000
  Br  Br11      1.0  0.19300  0.49600  0.80300  1.0000
  Br  Br12      1.0  0.69300  0.50400  0.80300  1.0000
  Br  Br13      1.0  0.94100  0.02090  0.89900  1.0000
  Br  Br14      1.0  0.44100  0.97900  0.89900  1.0000
  Br  Br15      1.0  0.65800  0.36000  0.00000  1.0000
  Br  Br16      1.0  0.15800  0.64000  0.00000  1.0000
  O   O1        1.0  0.40200  0.36800  0.04030  1.0000
  O   O2        1.0  0.90200  0.63200  0.04030  1.0000
  O   O3        1.0  0.84300  0.12100  0.16200  1.0000
  O   O4        1.0  0.34300  0.87900  0.16200  1.0000
  O   O5        1.0  0.09810  0.36800  0.54000  1.0000
  O   O6        1.0  0.59800  0.63200  0.54000  1.0000
  O   O7        1.0  0.65700  0.12100  0.66200  1.0000
  O   O8        1.0  0.15700  0.87900  0.66200  1.0000
  S   S1        1.0  0.48200  0.11400  0.01830  1.0000
  S   S2        1.0  0.98200  0.88600  0.01830  1.0000
  S   S3        1.0  0.76400  0.37700  0.18400  1.0000
  S   S4        1.0  0.26400  0.62300  0.18400  1.0000
  S   S5        1.0  0.01820  0.11400  0.51800  1.0000
  S   S6        1.0  0.51800  0.88600  0.51800  1.0000
  S   S7        1.0  0.73600  0.37700  0.68400  1.0000
  S   S8        1.0  0.23600  0.62300  0.68400  1.0000
