data_image0
_chemical_formula_structural       Ba6Ni2O18Ru4
_chemical_formula_sum              "Ba6 Ni2 O18 Ru4"
_cell_length_a       5.75224
_cell_length_b       5.75221
_cell_length_c       14.1654
_cell_angle_alpha    90
_cell_angle_beta     90
_cell_angle_gamma    120

_space_group_name_H-M_alt    "P 1"
_space_group_IT_number       1

loop_
  _space_group_symop_operation_xyz
  'x, y, z'

loop_
  _atom_site_type_symbol
  _atom_site_label
  _atom_site_symmetry_multiplicity
  _atom_site_fract_x
  _atom_site_fract_y
  _atom_site_fract_z
  _atom_site_occupancy
  Ba  Ba1       1.0  0.33300  0.66700  0.08960  1.0000
  Ba  Ba2       1.0  0.00000  0.00000  0.25000  1.0000
  Ba  Ba3       1.0  0.33300  0.66700  0.41000  1.0000
  Ba  Ba4       1.0  0.66700  0.33300  0.59000  1.0000
  Ba  Ba5       1.0  0.00000  0.00000  0.75000  1.0000
  Ba  Ba6       1.0  0.66700  0.33300  0.91000  1.0000
  Ni  Ni1       1.0  0.00000  0.00000  0.00000  1.0000
  Ni  Ni2       1.0  0.00000  0.00000  0.50000  1.0000
  O   O1        1.0  0.83100  0.66200  0.08250  1.0000
  O   O2        1.0  0.33800  0.16900  0.08250  1.0000
  O   O3        1.0  0.83100  0.16900  0.08250  1.0000
  O   O4        1.0  0.51300  0.02650  0.25000  1.0000
  O   O5        1.0  0.51300  0.48700  0.25000  1.0000
  O   O6        1.0  0.97400  0.48700  0.25000  1.0000
  O   O7        1.0  0.33800  0.16900  0.41700  1.0000
  O   O8        1.0  0.83100  0.16900  0.41700  1.0000
  O   O9        1.0  0.83100  0.66200  0.41700  1.0000
  O   O10       1.0  0.16900  0.33800  0.58300  1.0000
  O   O11       1.0  0.16900  0.83100  0.58300  1.0000
  O   O12       1.0  0.66200  0.83100  0.58300  1.0000
  O   O13       1.0  0.02640  0.51300  0.75000  1.0000
  O   O14       1.0  0.48700  0.51300  0.75000  1.0000
  O   O15       1.0  0.48700  0.97400  0.75000  1.0000
  O   O16       1.0  0.16900  0.83100  0.91700  1.0000
  O   O17       1.0  0.66200  0.83100  0.91700  1.0000
  O   O18       1.0  0.16900  0.33800  0.91700  1.0000
  Ru  Ru1       1.0  0.66700  0.33300  0.15300  1.0000
  Ru  Ru2       1.0  0.66700  0.33300  0.34700  1.0000
  Ru  Ru3       1.0  0.33300  0.66700  0.65300  1.0000
  Ru  Ru4       1.0  0.33300  0.66700  0.84700  1.0000
