data_image0
_chemical_formula_structural       Co2O20P4V4
_chemical_formula_sum              "Co2 O20 P4 V4"
_cell_length_a       6.35573
_cell_length_b       7.28925
_cell_length_c       7.26582
_cell_angle_alpha    90
_cell_angle_beta     90.1995
_cell_angle_gamma    90

_space_group_name_H-M_alt    "P 1"
_space_group_IT_number       1

loop_
  _space_group_symop_operation_xyz
  'x, y, z'

loop_
  _atom_site_type_symbol
  _atom_site_label
  _atom_site_symmetry_multiplicity
  _atom_site_fract_x
  _atom_site_fract_y
  _atom_site_fract_z
  _atom_site_occupancy
  Co  Co1       1.0  0.00000  0.50000  0.00000  1.0000
  Co  Co2       1.0  0.00000  0.00000  0.50000  1.0000
  O   O1        1.0  0.26800  0.01470  0.05310  1.0000
  O   O2        1.0  0.76400  0.33400  0.10800  1.0000
  O   O3        1.0  0.94300  0.74700  0.12000  1.0000
  O   O4        1.0  0.55900  0.74300  0.14500  1.0000
  O   O5        1.0  0.22700  0.50100  0.20600  1.0000
  O   O6        1.0  0.77300  0.00094  0.29400  1.0000
  O   O7        1.0  0.44100  0.24300  0.35500  1.0000
  O   O8        1.0  0.05650  0.24700  0.38000  1.0000
  O   O9        1.0  0.23600  0.83400  0.39200  1.0000
  O   O10       1.0  0.73200  0.51500  0.44700  1.0000
  O   O11       1.0  0.26800  0.48500  0.55300  1.0000
  O   O12       1.0  0.76400  0.16600  0.60800  1.0000
  O   O13       1.0  0.94300  0.75300  0.62000  1.0000
  O   O14       1.0  0.55900  0.75700  0.64500  1.0000
  O   O15       1.0  0.22700  0.99900  0.70600  1.0000
  O   O16       1.0  0.77300  0.49900  0.79400  1.0000
  O   O17       1.0  0.44100  0.25700  0.85500  1.0000
  O   O18       1.0  0.05650  0.25300  0.88000  1.0000
  O   O19       1.0  0.23600  0.66600  0.89200  1.0000
  O   O20       1.0  0.73200  0.98500  0.94700  1.0000
  P   P1        1.0  0.74700  0.87300  0.12400  1.0000
  P   P2        1.0  0.25300  0.37300  0.37600  1.0000
  P   P3        1.0  0.74700  0.62700  0.62400  1.0000
  P   P4        1.0  0.25300  0.12700  0.87600  1.0000
  V   V1        1.0  0.26200  0.77500  0.16300  1.0000
  V   V2        1.0  0.73800  0.27500  0.33700  1.0000
  V   V3        1.0  0.26200  0.72500  0.66300  1.0000
  V   V4        1.0  0.73800  0.22500  0.83700  1.0000
