data_image0
_chemical_formula_structural       Cu6K6Nb4S16
_chemical_formula_sum              "Cu6 K6 Nb4 S16"
_cell_length_a       5.5648
_cell_length_b       12.135
_cell_length_c       13.429
_cell_angle_alpha    68.2197
_cell_angle_beta     101.958
_cell_angle_gamma    103.255

_space_group_name_H-M_alt    "P 1"
_space_group_IT_number       1

loop_
  _space_group_symop_operation_xyz
  'x, y, z'

loop_
  _atom_site_type_symbol
  _atom_site_label
  _atom_site_symmetry_multiplicity
  _atom_site_fract_x
  _atom_site_fract_y
  _atom_site_fract_z
  _atom_site_occupancy
  Cu  Cu1       1.0  0.65900  0.53500  0.21900  1.0000
  Cu  Cu2       1.0  0.27900  0.75000  0.25000  1.0000
  Cu  Cu3       1.0  0.90500  0.96500  0.28100  1.0000
  Cu  Cu4       1.0  0.09510  0.03530  0.71900  1.0000
  Cu  Cu5       1.0  0.72100  0.25000  0.75000  1.0000
  Cu  Cu6       1.0  0.34100  0.46500  0.78100  1.0000
  K   K1        1.0  0.00000  0.00000  0.00000  1.0000
  K   K2        1.0  0.72800  0.28800  0.09370  1.0000
  K   K3        1.0  0.34700  0.21200  0.40600  1.0000
  K   K4        1.0  0.00000  0.50000  0.50000  1.0000
  K   K5        1.0  0.65300  0.78800  0.59400  1.0000
  K   K6        1.0  0.27200  0.71200  0.90600  1.0000
  Nb  Nb1       1.0  0.15600  0.52700  0.22000  1.0000
  Nb  Nb2       1.0  0.40900  0.97300  0.28000  1.0000
  Nb  Nb3       1.0  0.59100  0.02710  0.72000  1.0000
  Nb  Nb4       1.0  0.84400  0.47300  0.78000  1.0000
  S   S1        1.0  0.32100  0.47000  0.10800  1.0000
  S   S2        1.0  0.95600  0.69200  0.12600  1.0000
  S   S3        1.0  0.55800  0.91700  0.16000  1.0000
  S   S4        1.0  0.18600  0.12800  0.18600  1.0000
  S   S5        1.0  0.87200  0.37200  0.31400  1.0000
  S   S6        1.0  0.48100  0.58300  0.34000  1.0000
  S   S7        1.0  0.13800  0.80800  0.37400  1.0000
  S   S8        1.0  0.74300  0.03020  0.39200  1.0000
  S   S9        1.0  0.25700  0.97000  0.60800  1.0000
  S   S10       1.0  0.86200  0.19200  0.62600  1.0000
  S   S11       1.0  0.51900  0.41700  0.66000  1.0000
  S   S12       1.0  0.12800  0.62800  0.68600  1.0000
  S   S13       1.0  0.81400  0.87200  0.81400  1.0000
  S   S14       1.0  0.44200  0.08290  0.84000  1.0000
  S   S15       1.0  0.04430  0.30800  0.87400  1.0000
  S   S16       1.0  0.67900  0.53000  0.89200  1.0000
