data_image0
_chemical_formula_structural       Cl4Cs4N4O16Tc4
_chemical_formula_sum              "Cl4 Cs4 N4 O16 Tc4"
_cell_length_a       6.27536
_cell_length_b       8.45258
_cell_length_c       11.3254
_cell_angle_alpha    90
_cell_angle_beta     90
_cell_angle_gamma    90

_space_group_name_H-M_alt    "P 1"
_space_group_IT_number       1

loop_
  _space_group_symop_operation_xyz
  'x, y, z'

loop_
  _atom_site_type_symbol
  _atom_site_label
  _atom_site_symmetry_multiplicity
  _atom_site_fract_x
  _atom_site_fract_y
  _atom_site_fract_z
  _atom_site_occupancy
  Cl  Cl1       1.0  0.21500  0.77900  0.23400  1.0000
  Cl  Cl2       1.0  0.78500  0.27900  0.26600  1.0000
  Cl  Cl3       1.0  0.28500  0.22100  0.73400  1.0000
  Cl  Cl4       1.0  0.71500  0.72100  0.76600  1.0000
  Cs  Cs1       1.0  0.27900  0.38600  0.17500  1.0000
  Cs  Cs2       1.0  0.72100  0.88600  0.32500  1.0000
  Cs  Cs3       1.0  0.22100  0.61400  0.67500  1.0000
  Cs  Cs4       1.0  0.77900  0.11400  0.82500  1.0000
  N   N1        1.0  0.99200  0.02880  0.08000  1.0000
  N   N2        1.0  0.00843  0.52900  0.42000  1.0000
  N   N3        1.0  0.50800  0.97100  0.58000  1.0000
  N   N4        1.0  0.49200  0.47100  0.92000  1.0000
  O   O1        1.0  0.41900  0.08420  0.00415  1.0000
  O   O2        1.0  0.61400  0.77000  0.02380  1.0000
  O   O3        1.0  0.68300  0.65100  0.10700  1.0000
  O   O4        1.0  0.44100  0.05030  0.12800  1.0000
  O   O5        1.0  0.55900  0.55000  0.37200  1.0000
  O   O6        1.0  0.31700  0.15100  0.39300  1.0000
  O   O7        1.0  0.38600  0.27000  0.47600  1.0000
  O   O8        1.0  0.58100  0.58400  0.49600  1.0000
  O   O9        1.0  0.08100  0.91600  0.50400  1.0000
  O   O10       1.0  0.88600  0.23000  0.52400  1.0000
  O   O11       1.0  0.81700  0.34900  0.60700  1.0000
  O   O12       1.0  0.05940  0.95000  0.62800  1.0000
  O   O13       1.0  0.94100  0.45000  0.87200  1.0000
  O   O14       1.0  0.18300  0.84900  0.89300  1.0000
  O   O15       1.0  0.11400  0.73000  0.97600  1.0000
  O   O16       1.0  0.91900  0.41600  0.99600  1.0000
  Tc  Tc1       1.0  0.21000  0.92500  0.05620  1.0000
  Tc  Tc2       1.0  0.79000  0.42500  0.44400  1.0000
  Tc  Tc3       1.0  0.29000  0.07520  0.55600  1.0000
  Tc  Tc4       1.0  0.71000  0.57500  0.94400  1.0000
