data_image0
_chemical_formula_structural       S20U12
_chemical_formula_sum              "S20 U12"
_cell_length_a       7.2744
_cell_length_b       7.82486
_cell_length_c       11.5221
_cell_angle_alpha    90
_cell_angle_beta     90
_cell_angle_gamma    90

_space_group_name_H-M_alt    "P 1"
_space_group_IT_number       1

loop_
  _space_group_symop_operation_xyz
  'x, y, z'

loop_
  _atom_site_type_symbol
  _atom_site_label
  _atom_site_symmetry_multiplicity
  _atom_site_fract_x
  _atom_site_fract_y
  _atom_site_fract_z
  _atom_site_occupancy
  S   S1        1.0  0.96500  0.25000  0.00017  1.0000
  S   S2        1.0  0.32900  0.04800  0.09690  1.0000
  S   S3        1.0  0.32900  0.45200  0.09690  1.0000
  S   S4        1.0  0.66900  0.75000  0.18900  1.0000
  S   S5        1.0  0.70000  0.25000  0.21900  1.0000
  S   S6        1.0  0.20000  0.75000  0.28100  1.0000
  S   S7        1.0  0.16900  0.25000  0.31100  1.0000
  S   S8        1.0  0.82900  0.54800  0.40300  1.0000
  S   S9        1.0  0.82900  0.95200  0.40300  1.0000
  S   S10       1.0  0.46500  0.75000  0.50000  1.0000
  S   S11       1.0  0.53500  0.25000  0.50000  1.0000
  S   S12       1.0  0.17100  0.04800  0.59700  1.0000
  S   S13       1.0  0.17100  0.45200  0.59700  1.0000
  S   S14       1.0  0.83100  0.75000  0.68900  1.0000
  S   S15       1.0  0.80000  0.25000  0.71900  1.0000
  S   S16       1.0  0.30000  0.75000  0.78100  1.0000
  S   S17       1.0  0.33100  0.25000  0.81100  1.0000
  S   S18       1.0  0.67100  0.54800  0.90300  1.0000
  S   S19       1.0  0.67100  0.95200  0.90300  1.0000
  S   S20       1.0  0.03530  0.75000  0.00000  1.0000
  U   U1        1.0  0.42200  0.75000  0.00751  1.0000
  U   U2        1.0  0.97500  0.50200  0.17900  1.0000
  U   U3        1.0  0.97500  0.99800  0.17900  1.0000
  U   U4        1.0  0.47500  0.00243  0.32100  1.0000
  U   U5        1.0  0.47500  0.49800  0.32100  1.0000
  U   U6        1.0  0.92200  0.25000  0.49200  1.0000
  U   U7        1.0  0.07850  0.75000  0.50800  1.0000
  U   U8        1.0  0.52500  0.50200  0.67900  1.0000
  U   U9        1.0  0.52500  0.99800  0.67900  1.0000
  U   U10       1.0  0.02540  0.00243  0.82100  1.0000
  U   U11       1.0  0.02540  0.49800  0.82100  1.0000
  U   U12       1.0  0.57800  0.25000  0.99200  1.0000
