data_image0
_chemical_formula_structural       P28Th4
_chemical_formula_sum              "P28 Th4"
_cell_length_a       10.2197
_cell_length_b       10.4258
_cell_length_c       5.64034
_cell_angle_alpha    90
_cell_angle_beta     90
_cell_angle_gamma    90

_space_group_name_H-M_alt    "P 1"
_space_group_IT_number       1

loop_
  _space_group_symop_operation_xyz
  'x, y, z'

loop_
  _atom_site_type_symbol
  _atom_site_label
  _atom_site_symmetry_multiplicity
  _atom_site_fract_x
  _atom_site_fract_y
  _atom_site_fract_z
  _atom_site_occupancy
  P   P1        1.0  0.76000  0.49800  0.00962  1.0000
  P   P2        1.0  0.76900  0.71400  0.04960  1.0000
  P   P3        1.0  0.05200  0.05170  0.05870  1.0000
  P   P4        1.0  0.55800  0.73900  0.13600  1.0000
  P   P5        1.0  0.74500  0.20500  0.17800  1.0000
  P   P6        1.0  0.55000  0.94800  0.20800  1.0000
  P   P7        1.0  0.24100  0.50000  0.22800  1.0000
  P   P8        1.0  0.75900  0.00000  0.27200  1.0000
  P   P9        1.0  0.45000  0.44800  0.29200  1.0000
  P   P10       1.0  0.25500  0.70500  0.32200  1.0000
  P   P11       1.0  0.44200  0.23900  0.36400  1.0000
  P   P12       1.0  0.94800  0.55200  0.44100  1.0000
  P   P13       1.0  0.23100  0.21400  0.45000  1.0000
  P   P14       1.0  0.24000  0.99800  0.49000  1.0000
  P   P15       1.0  0.74000  0.50200  0.51000  1.0000
  P   P16       1.0  0.73100  0.28600  0.55000  1.0000
  P   P17       1.0  0.44800  0.94800  0.55900  1.0000
  P   P18       1.0  0.94200  0.26100  0.63600  1.0000
  P   P19       1.0  0.75500  0.79500  0.67800  1.0000
  P   P20       1.0  0.95000  0.05200  0.70800  1.0000
  P   P21       1.0  0.25900  0.50000  0.72800  1.0000
  P   P22       1.0  0.74100  0.00016  0.77200  1.0000
  P   P23       1.0  0.05030  0.55200  0.79200  1.0000
  P   P24       1.0  0.24500  0.29500  0.82200  1.0000
  P   P25       1.0  0.05810  0.76100  0.86400  1.0000
  P   P26       1.0  0.55200  0.44800  0.94100  1.0000
  P   P27       1.0  0.26900  0.78600  0.95000  1.0000
  P   P28       1.0  0.26000  0.00191  0.99000  1.0000
  Th  Th1       1.0  0.01000  0.33100  0.13700  1.0000
  Th  Th2       1.0  0.99000  0.83100  0.36300  1.0000
  Th  Th3       1.0  0.49000  0.66900  0.63700  1.0000
  Th  Th4       1.0  0.51000  0.16900  0.86300  1.0000
