data_image0
_chemical_formula_structural       Li4O20P4Ti4
_chemical_formula_sum              "Li4 O20 P4 Ti4"
_cell_length_a       7.32643
_cell_length_b       6.39236
_cell_length_c       7.21573
_cell_angle_alpha    90
_cell_angle_beta     90
_cell_angle_gamma    90

_space_group_name_H-M_alt    "P 1"
_space_group_IT_number       1

loop_
  _space_group_symop_operation_xyz
  'x, y, z'

loop_
  _atom_site_type_symbol
  _atom_site_label
  _atom_site_symmetry_multiplicity
  _atom_site_fract_x
  _atom_site_fract_y
  _atom_site_fract_z
  _atom_site_occupancy
  Li  Li1       1.0  0.00000  0.00000  0.00000  1.0000
  Li  Li2       1.0  0.00000  0.50000  0.00000  1.0000
  Li  Li3       1.0  0.50000  0.00000  0.50000  1.0000
  Li  Li4       1.0  0.50000  0.50000  0.50000  1.0000
  O   O1        1.0  0.20400  0.25000  0.00466  1.0000
  O   O2        1.0  0.55300  0.25000  0.01820  1.0000
  O   O3        1.0  0.10700  0.75000  0.15700  1.0000
  O   O4        1.0  0.87100  0.05660  0.24200  1.0000
  O   O5        1.0  0.87100  0.44300  0.24200  1.0000
  O   O6        1.0  0.37100  0.05660  0.25800  1.0000
  O   O7        1.0  0.37100  0.44300  0.25800  1.0000
  O   O8        1.0  0.60700  0.75000  0.34300  1.0000
  O   O9        1.0  0.05260  0.25000  0.48200  1.0000
  O   O10       1.0  0.70400  0.25000  0.49500  1.0000
  O   O11       1.0  0.29600  0.75000  0.50500  1.0000
  O   O12       1.0  0.94700  0.75000  0.51800  1.0000
  O   O13       1.0  0.39300  0.25000  0.65700  1.0000
  O   O14       1.0  0.62900  0.55700  0.74200  1.0000
  O   O15       1.0  0.62900  0.94300  0.74200  1.0000
  O   O16       1.0  0.12900  0.55700  0.75800  1.0000
  O   O17       1.0  0.12900  0.94300  0.75800  1.0000
  O   O18       1.0  0.89300  0.25000  0.84300  1.0000
  O   O19       1.0  0.44700  0.75000  0.98200  1.0000
  O   O20       1.0  0.79600  0.75000  0.99500  1.0000
  P   P1        1.0  0.37400  0.25000  0.13200  1.0000
  P   P2        1.0  0.87400  0.25000  0.36800  1.0000
  P   P3        1.0  0.12600  0.75000  0.63200  1.0000
  P   P4        1.0  0.62600  0.75000  0.86800  1.0000
  Ti  Ti1       1.0  0.33900  0.75000  0.22200  1.0000
  Ti  Ti2       1.0  0.83900  0.75000  0.27800  1.0000
  Ti  Ti3       1.0  0.16100  0.25000  0.72200  1.0000
  Ti  Ti4       1.0  0.66100  0.25000  0.77800  1.0000
