data_image0
_chemical_formula_structural       B6O18ScSr6Y
_chemical_formula_sum              "B6 O18 Sc1 Sr6 Y1"
_cell_length_a       7.69365
_cell_length_b       7.69365
_cell_length_c       7.69365
_cell_angle_alpha    105.001
_cell_angle_beta     105.001
_cell_angle_gamma    105.001

_space_group_name_H-M_alt    "P 1"
_space_group_IT_number       1

loop_
  _space_group_symop_operation_xyz
  'x, y, z'

loop_
  _atom_site_type_symbol
  _atom_site_label
  _atom_site_symmetry_multiplicity
  _atom_site_fract_x
  _atom_site_fract_y
  _atom_site_fract_z
  _atom_site_occupancy
  B   B1        1.0  0.29600  0.37900  0.04110  1.0000
  B   B2        1.0  0.37900  0.04110  0.29600  1.0000
  B   B3        1.0  0.04110  0.29600  0.37900  1.0000
  B   B4        1.0  0.95900  0.70400  0.62100  1.0000
  B   B5        1.0  0.62100  0.95900  0.70400  1.0000
  B   B6        1.0  0.70400  0.62100  0.95900  1.0000
  O   O1        1.0  0.72600  0.81500  0.01730  1.0000
  O   O2        1.0  0.81000  0.54900  0.07410  1.0000
  O   O3        1.0  0.98300  0.27400  0.18500  1.0000
  O   O4        1.0  0.45100  0.92600  0.19000  1.0000
  O   O5        1.0  0.43400  0.49900  0.21800  1.0000
  O   O6        1.0  0.18500  0.98300  0.27400  1.0000
  O   O7        1.0  0.49900  0.21800  0.43400  1.0000
  O   O8        1.0  0.92600  0.19000  0.45100  1.0000
  O   O9        1.0  0.21800  0.43400  0.49900  1.0000
  O   O10       1.0  0.78200  0.56600  0.50100  1.0000
  O   O11       1.0  0.07410  0.81000  0.54900  1.0000
  O   O12       1.0  0.50100  0.78200  0.56600  1.0000
  O   O13       1.0  0.81500  0.01730  0.72600  1.0000
  O   O14       1.0  0.56600  0.50100  0.78200  1.0000
  O   O15       1.0  0.54900  0.07410  0.81000  1.0000
  O   O16       1.0  0.01730  0.72600  0.81500  1.0000
  O   O17       1.0  0.19000  0.45100  0.92600  1.0000
  O   O18       1.0  0.27400  0.18500  0.98300  1.0000
  Sc  Sc1       1.0  0.50000  0.50000  0.50000  1.0000
  Sr  Sr1       1.0  0.64800  0.26400  0.16000  1.0000
  Sr  Sr2       1.0  0.16000  0.64800  0.26400  1.0000
  Sr  Sr3       1.0  0.73600  0.84000  0.35200  1.0000
  Sr  Sr4       1.0  0.26400  0.16000  0.64800  1.0000
  Sr  Sr5       1.0  0.84000  0.35200  0.73600  1.0000
  Sr  Sr6       1.0  0.35200  0.73600  0.84000  1.0000
  Y   Y1        1.0  0.00000  0.00000  0.00000  1.0000
