data_image0
_chemical_formula_structural       Be4O20P6Rb2
_chemical_formula_sum              "Be4 O20 P6 Rb2"
_cell_length_a       7.43236
_cell_length_b       7.43236
_cell_length_c       8.80547
_cell_angle_alpha    112.112
_cell_angle_beta     67.8884
_cell_angle_gamma    109.014

_space_group_name_H-M_alt    "P 1"
_space_group_IT_number       1

loop_
  _space_group_symop_operation_xyz
  'x, y, z'

loop_
  _atom_site_type_symbol
  _atom_site_label
  _atom_site_symmetry_multiplicity
  _atom_site_fract_x
  _atom_site_fract_y
  _atom_site_fract_z
  _atom_site_occupancy
  Be  Be1       1.0  0.21900  0.70200  0.05700  1.0000
  Be  Be2       1.0  0.70200  0.21900  0.44300  1.0000
  Be  Be3       1.0  0.29800  0.78100  0.55700  1.0000
  Be  Be4       1.0  0.78100  0.29800  0.94300  1.0000
  O   O1        1.0  0.43000  0.81500  0.09070  1.0000
  O   O2        1.0  0.09070  0.87500  0.12000  1.0000
  O   O3        1.0  0.73500  0.40100  0.14500  1.0000
  O   O4        1.0  0.73300  0.82600  0.14600  1.0000
  O   O5        1.0  0.09270  0.53700  0.16200  1.0000
  O   O6        1.0  0.53700  0.09270  0.33800  1.0000
  O   O7        1.0  0.82600  0.73300  0.35400  1.0000
  O   O8        1.0  0.40100  0.73500  0.35500  1.0000
  O   O9        1.0  0.87500  0.09070  0.38000  1.0000
  O   O10       1.0  0.81500  0.43000  0.40900  1.0000
  O   O11       1.0  0.18500  0.57000  0.59100  1.0000
  O   O12       1.0  0.12500  0.90900  0.62000  1.0000
  O   O13       1.0  0.59900  0.26500  0.64500  1.0000
  O   O14       1.0  0.17400  0.26700  0.64600  1.0000
  O   O15       1.0  0.46300  0.90700  0.66200  1.0000
  O   O16       1.0  0.90700  0.46300  0.83800  1.0000
  O   O17       1.0  0.26700  0.17400  0.85400  1.0000
  O   O18       1.0  0.26500  0.59900  0.85500  1.0000
  O   O19       1.0  0.90900  0.12500  0.88000  1.0000
  O   O20       1.0  0.57000  0.18500  0.90900  1.0000
  P   P1        1.0  0.50900  0.87200  0.24200  1.0000
  P   P2        1.0  0.89100  0.89100  0.25000  1.0000
  P   P3        1.0  0.87200  0.50900  0.25800  1.0000
  P   P4        1.0  0.12800  0.49100  0.74200  1.0000
  P   P5        1.0  0.10900  0.10900  0.75000  1.0000
  P   P6        1.0  0.49100  0.12800  0.75800  1.0000
  Rb  Rb1       1.0  0.29900  0.29900  0.25000  1.0000
  Rb  Rb2       1.0  0.70100  0.70100  0.75000  1.0000
