data_image0
_chemical_formula_structural       Br6C10Cr2O10P2
_chemical_formula_sum              "Br6 C10 Cr2 O10 P2"
_cell_length_a       6.60561
_cell_length_b       6.70061
_cell_length_c       13.4508
_cell_angle_alpha    88.1713
_cell_angle_beta     87.0734
_cell_angle_gamma    87.5917

_space_group_name_H-M_alt    "P 1"
_space_group_IT_number       1

loop_
  _space_group_symop_operation_xyz
  'x, y, z'

loop_
  _atom_site_type_symbol
  _atom_site_label
  _atom_site_symmetry_multiplicity
  _atom_site_fract_x
  _atom_site_fract_y
  _atom_site_fract_z
  _atom_site_occupancy
  Br  Br1       1.0  0.89600  0.26200  0.04410  1.0000
  Br  Br2       1.0  0.40700  0.37200  0.12400  1.0000
  Br  Br3       1.0  0.59400  0.88200  0.12500  1.0000
  Br  Br4       1.0  0.40600  0.11800  0.87500  1.0000
  Br  Br5       1.0  0.59300  0.62800  0.87600  1.0000
  Br  Br6       1.0  0.10400  0.73800  0.95600  1.0000
  C   C1        1.0  0.89700  0.46300  0.28200  1.0000
  C   C2        1.0  0.02690  0.07790  0.29300  1.0000
  C   C3        1.0  0.53000  0.35500  0.36700  1.0000
  C   C4        1.0  0.65900  0.97900  0.37300  1.0000
  C   C5        1.0  0.88000  0.25100  0.45500  1.0000
  C   C6        1.0  0.12000  0.74900  0.54500  1.0000
  C   C7        1.0  0.34100  0.02120  0.62700  1.0000
  C   C8        1.0  0.47000  0.64500  0.63300  1.0000
  C   C9        1.0  0.97300  0.92200  0.70700  1.0000
  C   C10       1.0  0.10300  0.53700  0.71800  1.0000
  Cr  Cr1       1.0  0.78000  0.22000  0.32700  1.0000
  Cr  Cr2       1.0  0.22000  0.78000  0.67300  1.0000
  O   O1        1.0  0.97200  0.60900  0.25400  1.0000
  O   O2        1.0  0.18100  0.99400  0.27600  1.0000
  O   O3        1.0  0.37600  0.43100  0.39300  1.0000
  O   O4        1.0  0.58500  0.83400  0.40400  1.0000
  O   O5        1.0  0.05260  0.73500  0.46800  1.0000
  O   O6        1.0  0.94700  0.26500  0.53200  1.0000
  O   O7        1.0  0.41500  0.16600  0.59600  1.0000
  O   O8        1.0  0.62400  0.56900  0.60700  1.0000
  O   O9        1.0  0.81900  0.00606  0.72400  1.0000
  O   O10       1.0  0.02830  0.39100  0.74600  1.0000
  P   P1        1.0  0.67500  0.18400  0.16900  1.0000
  P   P2        1.0  0.32500  0.81600  0.83100  1.0000
