data_image0
_chemical_formula_structural       Nd8O16Se4Si4
_chemical_formula_sum              "Nd8 O16 Se4 Si4"
_cell_length_a       6.19117
_cell_length_b       7.17821
_cell_length_c       11.0083
_cell_angle_alpha    90
_cell_angle_beta     90
_cell_angle_gamma    90

_space_group_name_H-M_alt    "P 1"
_space_group_IT_number       1

loop_
  _space_group_symop_operation_xyz
  'x, y, z'

loop_
  _atom_site_type_symbol
  _atom_site_label
  _atom_site_symmetry_multiplicity
  _atom_site_fract_x
  _atom_site_fract_y
  _atom_site_fract_z
  _atom_site_occupancy
  Nd  Nd1       1.0  0.60700  0.25000  0.00000  1.0000
  Nd  Nd2       1.0  0.39300  0.75000  0.00000  1.0000
  Nd  Nd3       1.0  0.12900  0.46500  0.25000  1.0000
  Nd  Nd4       1.0  0.87100  0.96500  0.25000  1.0000
  Nd  Nd5       1.0  0.60700  0.25000  0.50000  1.0000
  Nd  Nd6       1.0  0.39300  0.75000  0.50000  1.0000
  Nd  Nd7       1.0  0.12900  0.03530  0.75000  1.0000
  Nd  Nd8       1.0  0.87100  0.53500  0.75000  1.0000
  O   O1        1.0  0.27000  0.42600  0.03280  1.0000
  O   O2        1.0  0.73000  0.92600  0.03280  1.0000
  O   O3        1.0  0.94900  0.23500  0.11800  1.0000
  O   O4        1.0  0.05060  0.73500  0.11800  1.0000
  O   O5        1.0  0.94900  0.23500  0.38200  1.0000
  O   O6        1.0  0.05060  0.73500  0.38200  1.0000
  O   O7        1.0  0.27000  0.42600  0.46700  1.0000
  O   O8        1.0  0.73000  0.92600  0.46700  1.0000
  O   O9        1.0  0.27000  0.07370  0.53300  1.0000
  O   O10       1.0  0.73000  0.57400  0.53300  1.0000
  O   O11       1.0  0.94900  0.26500  0.61800  1.0000
  O   O12       1.0  0.05060  0.76500  0.61800  1.0000
  O   O13       1.0  0.94900  0.26500  0.88200  1.0000
  O   O14       1.0  0.05060  0.76500  0.88200  1.0000
  O   O15       1.0  0.27000  0.07370  0.96700  1.0000
  O   O16       1.0  0.73000  0.57400  0.96700  1.0000
  Se  Se1       1.0  0.41900  0.10700  0.25000  1.0000
  Se  Se2       1.0  0.58100  0.60700  0.25000  1.0000
  Se  Se3       1.0  0.41900  0.39300  0.75000  1.0000
  Se  Se4       1.0  0.58100  0.89300  0.75000  1.0000
  Si  Si1       1.0  0.11200  0.25000  0.00000  1.0000
  Si  Si2       1.0  0.88800  0.75000  0.00000  1.0000
  Si  Si3       1.0  0.11200  0.25000  0.50000  1.0000
  Si  Si4       1.0  0.88800  0.75000  0.50000  1.0000
