data_image0
_chemical_formula_structural       C12I4O12Os4
_chemical_formula_sum              "C12 I4 O12 Os4"
_cell_length_a       6.28177
_cell_length_b       13.8401
_cell_length_c       7.13945
_cell_angle_alpha    90
_cell_angle_beta     91.2204
_cell_angle_gamma    90

_space_group_name_H-M_alt    "P 1"
_space_group_IT_number       1

loop_
  _space_group_symop_operation_xyz
  'x, y, z'

loop_
  _atom_site_type_symbol
  _atom_site_label
  _atom_site_symmetry_multiplicity
  _atom_site_fract_x
  _atom_site_fract_y
  _atom_site_fract_z
  _atom_site_occupancy
  C   C1        1.0  0.00209  0.11800  0.14700  1.0000
  C   C2        1.0  0.00209  0.38200  0.14700  1.0000
  C   C3        1.0  0.39100  0.02810  0.25500  1.0000
  C   C4        1.0  0.39100  0.47200  0.25500  1.0000
  C   C5        1.0  0.88100  0.62500  0.48900  1.0000
  C   C6        1.0  0.88100  0.87500  0.48900  1.0000
  C   C7        1.0  0.11900  0.12500  0.51100  1.0000
  C   C8        1.0  0.11900  0.37500  0.51100  1.0000
  C   C9        1.0  0.60900  0.52800  0.74500  1.0000
  C   C10       1.0  0.60900  0.97200  0.74500  1.0000
  C   C11       1.0  0.99800  0.61800  0.85300  1.0000
  C   C12       1.0  0.99800  0.88200  0.85300  1.0000
  I   I1        1.0  0.60400  0.75000  0.02270  1.0000
  I   I2        1.0  0.57700  0.25000  0.46300  1.0000
  I   I3        1.0  0.42300  0.75000  0.53700  1.0000
  I   I4        1.0  0.39600  0.25000  0.97700  1.0000
  O   O1        1.0  0.84700  0.09580  0.06510  1.0000
  O   O2        1.0  0.84700  0.40400  0.06510  1.0000
  O   O3        1.0  0.47700  0.54600  0.24500  1.0000
  O   O4        1.0  0.47700  0.95400  0.24500  1.0000
  O   O5        1.0  0.96800  0.60800  0.35100  1.0000
  O   O6        1.0  0.96800  0.89200  0.35100  1.0000
  O   O7        1.0  0.03170  0.10800  0.64900  1.0000
  O   O8        1.0  0.03170  0.39200  0.64900  1.0000
  O   O9        1.0  0.52300  0.04610  0.75500  1.0000
  O   O10       1.0  0.52300  0.45400  0.75500  1.0000
  O   O11       1.0  0.15300  0.59600  0.93500  1.0000
  O   O12       1.0  0.15300  0.90400  0.93500  1.0000
  Os  Os1       1.0  0.25200  0.15000  0.28200  1.0000
  Os  Os2       1.0  0.25200  0.35000  0.28200  1.0000
  Os  Os3       1.0  0.74800  0.65000  0.71800  1.0000
  Os  Os4       1.0  0.74800  0.85000  0.71800  1.0000
