data_image0
_chemical_formula_structural       F24H2I4K2
_chemical_formula_sum              "F24 H2 I4 K2"
_cell_length_a       8.31646
_cell_length_b       8.31646
_cell_length_c       8.31646
_cell_angle_alpha    105.085
_cell_angle_beta     111.708
_cell_angle_gamma    111.708

_space_group_name_H-M_alt    "P 1"
_space_group_IT_number       1

loop_
  _space_group_symop_operation_xyz
  'x, y, z'

loop_
  _atom_site_type_symbol
  _atom_site_label
  _atom_site_symmetry_multiplicity
  _atom_site_fract_x
  _atom_site_fract_y
  _atom_site_fract_z
  _atom_site_occupancy
  F   F1        1.0  0.70400  0.91700  0.05300  1.0000
  F   F2        1.0  0.13600  0.78700  0.08340  1.0000
  F   F3        1.0  0.50000  0.63700  0.13700  1.0000
  F   F4        1.0  0.70400  0.28700  0.15100  1.0000
  F   F5        1.0  0.89800  0.69900  0.19900  1.0000
  F   F6        1.0  0.29600  0.34900  0.21300  1.0000
  F   F7        1.0  0.13600  0.58300  0.28700  1.0000
  F   F8        1.0  0.50000  0.19900  0.30100  1.0000
  F   F9        1.0  0.13600  0.05300  0.34900  1.0000
  F   F10       1.0  0.50000  0.86300  0.36300  1.0000
  F   F11       1.0  0.70400  0.55300  0.41700  1.0000
  F   F12       1.0  0.86400  0.15100  0.44700  1.0000
  F   F13       1.0  0.13600  0.84900  0.55300  1.0000
  F   F14       1.0  0.29600  0.44700  0.58300  1.0000
  F   F15       1.0  0.50000  0.13700  0.63700  1.0000
  F   F16       1.0  0.86400  0.94700  0.65100  1.0000
  F   F17       1.0  0.50000  0.80100  0.69900  1.0000
  F   F18       1.0  0.86400  0.41700  0.71300  1.0000
  F   F19       1.0  0.70400  0.65100  0.78700  1.0000
  F   F20       1.0  0.10200  0.30100  0.80100  1.0000
  F   F21       1.0  0.29600  0.71300  0.84900  1.0000
  F   F22       1.0  0.50000  0.36300  0.86300  1.0000
  F   F23       1.0  0.86400  0.21300  0.91700  1.0000
  F   F24       1.0  0.29600  0.08340  0.94700  1.0000
  H   H1        1.0  0.50000  0.75000  0.25000  1.0000
  H   H2        1.0  0.50000  0.25000  0.75000  1.0000
  I   I1        1.0  0.50000  0.34200  0.15800  1.0000
  I   I2        1.0  0.18400  0.84200  0.34200  1.0000
  I   I3        1.0  0.81600  0.15800  0.65800  1.0000
  I   I4        1.0  0.50000  0.65800  0.84200  1.0000
  K   K1        1.0  0.00000  0.25000  0.25000  1.0000
  K   K2        1.0  0.00000  0.75000  0.75000  1.0000
