data_image0
_chemical_formula_structural       H8Na4O16P4
_chemical_formula_sum              "H8 Na4 O16 P4"
_cell_length_a       6.53954
_cell_length_b       9.32365
_cell_length_c       6.14288
_cell_angle_alpha    103.982
_cell_angle_beta     107.46
_cell_angle_gamma    92.9132

_space_group_name_H-M_alt    "P 1"
_space_group_IT_number       1

loop_
  _space_group_symop_operation_xyz
  'x, y, z'

loop_
  _atom_site_type_symbol
  _atom_site_label
  _atom_site_symmetry_multiplicity
  _atom_site_fract_x
  _atom_site_fract_y
  _atom_site_fract_z
  _atom_site_occupancy
  H   H1        1.0  0.81000  0.65500  0.17600  1.0000
  H   H2        1.0  0.21300  0.57700  0.29300  1.0000
  H   H3        1.0  0.66100  0.73600  0.29800  1.0000
  H   H4        1.0  0.12400  0.43100  0.33200  1.0000
  H   H5        1.0  0.87600  0.56900  0.66800  1.0000
  H   H6        1.0  0.33900  0.26400  0.70200  1.0000
  H   H7        1.0  0.78700  0.42300  0.70700  1.0000
  H   H8        1.0  0.19000  0.34500  0.82400  1.0000
  Na  Na1       1.0  0.55500  0.41100  0.23800  1.0000
  Na  Na2       1.0  0.83300  0.12700  0.42000  1.0000
  Na  Na3       1.0  0.16700  0.87300  0.58000  1.0000
  Na  Na4       1.0  0.44500  0.58900  0.76200  1.0000
  O   O1        1.0  0.11900  0.14000  0.03590  1.0000
  O   O2        1.0  0.29100  0.92100  0.11000  1.0000
  O   O3        1.0  0.65900  0.64500  0.17700  1.0000
  O   O4        1.0  0.09200  0.71300  0.20800  1.0000
  O   O5        1.0  0.87900  0.30900  0.21400  1.0000
  O   O6        1.0  0.49700  0.17700  0.31800  1.0000
  O   O7        1.0  0.26100  0.49000  0.35500  1.0000
  O   O8        1.0  0.18000  0.08590  0.44200  1.0000
  O   O9        1.0  0.82000  0.91400  0.55800  1.0000
  O   O10       1.0  0.73900  0.51000  0.64500  1.0000
  O   O11       1.0  0.50300  0.82300  0.68200  1.0000
  O   O12       1.0  0.12100  0.69100  0.78600  1.0000
  O   O13       1.0  0.90800  0.28700  0.79200  1.0000
  O   O14       1.0  0.34100  0.35500  0.82300  1.0000
  O   O15       1.0  0.70900  0.07940  0.89000  1.0000
  O   O16       1.0  0.88100  0.86000  0.96400  1.0000
  P   P1        1.0  0.09790  0.78200  0.01200  1.0000
  P   P2        1.0  0.28200  0.09000  0.25400  1.0000
  P   P3        1.0  0.71800  0.91000  0.74600  1.0000
  P   P4        1.0  0.90200  0.21800  0.98800  1.0000
