data_image0
_chemical_formula_structural       Cs4S24Sb4
_chemical_formula_sum              "Cs4 S24 Sb4"
_cell_length_a       6.0124
_cell_length_b       14.9536
_cell_length_c       11.2196
_cell_angle_alpha    90
_cell_angle_beta     101.892
_cell_angle_gamma    90

_space_group_name_H-M_alt    "P 1"
_space_group_IT_number       1

loop_
  _space_group_symop_operation_xyz
  'x, y, z'

loop_
  _atom_site_type_symbol
  _atom_site_label
  _atom_site_symmetry_multiplicity
  _atom_site_fract_x
  _atom_site_fract_y
  _atom_site_fract_z
  _atom_site_occupancy
  Cs  Cs1       1.0  0.91200  0.41300  0.18900  1.0000
  Cs  Cs2       1.0  0.58800  0.91300  0.31100  1.0000
  Cs  Cs3       1.0  0.41200  0.08720  0.68900  1.0000
  Cs  Cs4       1.0  0.08830  0.58700  0.81100  1.0000
  S   S1        1.0  0.49300  0.68900  0.07730  1.0000
  S   S2        1.0  0.84100  0.68100  0.08890  1.0000
  S   S3        1.0  0.45400  0.11700  0.12000  1.0000
  S   S4        1.0  0.00976  0.93200  0.12600  1.0000
  S   S5        1.0  0.39400  0.56800  0.13700  1.0000
  S   S6        1.0  0.50800  0.22500  0.23700  1.0000
  S   S7        1.0  0.99200  0.72500  0.26300  1.0000
  S   S8        1.0  0.10600  0.06790  0.36300  1.0000
  S   S9        1.0  0.49000  0.43200  0.37400  1.0000
  S   S10       1.0  0.04630  0.61700  0.38000  1.0000
  S   S11       1.0  0.65900  0.18100  0.41100  1.0000
  S   S12       1.0  0.00658  0.18900  0.42300  1.0000
  S   S13       1.0  0.99300  0.81100  0.57700  1.0000
  S   S14       1.0  0.34100  0.81900  0.58900  1.0000
  S   S15       1.0  0.95400  0.38300  0.62000  1.0000
  S   S16       1.0  0.51000  0.56800  0.62600  1.0000
  S   S17       1.0  0.89400  0.93200  0.63700  1.0000
  S   S18       1.0  0.00788  0.27500  0.73700  1.0000
  S   S19       1.0  0.49200  0.77500  0.76300  1.0000
  S   S20       1.0  0.60600  0.43200  0.86300  1.0000
  S   S21       1.0  0.99000  0.06830  0.87400  1.0000
  S   S22       1.0  0.54600  0.88300  0.88000  1.0000
  S   S23       1.0  0.15900  0.31900  0.91100  1.0000
  S   S24       1.0  0.50700  0.31100  0.92300  1.0000
  Sb  Sb1       1.0  0.02870  0.09310  0.11500  1.0000
  Sb  Sb2       1.0  0.47100  0.59300  0.38500  1.0000
  Sb  Sb3       1.0  0.52900  0.40700  0.61500  1.0000
  Sb  Sb4       1.0  0.97100  0.90700  0.88500  1.0000
