data_image0
_chemical_formula_structural       Ba4C4Cu4F8O12
_chemical_formula_sum              "Ba4 C4 Cu4 F8 O12"
_cell_length_a       4.84317
_cell_length_b       8.44707
_cell_length_c       9.47561
_cell_angle_alpha    90
_cell_angle_beta     90
_cell_angle_gamma    90

_space_group_name_H-M_alt    "P 1"
_space_group_IT_number       1

loop_
  _space_group_symop_operation_xyz
  'x, y, z'

loop_
  _atom_site_type_symbol
  _atom_site_label
  _atom_site_symmetry_multiplicity
  _atom_site_fract_x
  _atom_site_fract_y
  _atom_site_fract_z
  _atom_site_occupancy
  Ba  Ba1       1.0  0.27100  0.25000  0.00000  1.0000
  Ba  Ba2       1.0  0.72900  0.75000  0.00000  1.0000
  Ba  Ba3       1.0  0.27100  0.25000  0.50000  1.0000
  Ba  Ba4       1.0  0.72900  0.75000  0.50000  1.0000
  C   C1        1.0  0.79200  0.08330  0.25000  1.0000
  C   C2        1.0  0.20800  0.58300  0.25000  1.0000
  C   C3        1.0  0.79200  0.41700  0.75000  1.0000
  C   C4        1.0  0.20800  0.91700  0.75000  1.0000
  Cu  Cu1       1.0  0.75500  0.41200  0.25000  1.0000
  Cu  Cu2       1.0  0.24500  0.91200  0.25000  1.0000
  Cu  Cu3       1.0  0.75500  0.08760  0.75000  1.0000
  Cu  Cu4       1.0  0.24500  0.58800  0.75000  1.0000
  F   F1        1.0  0.76000  0.41500  0.04310  1.0000
  F   F2        1.0  0.24000  0.91500  0.04310  1.0000
  F   F3        1.0  0.76000  0.41500  0.45700  1.0000
  F   F4        1.0  0.24000  0.91500  0.45700  1.0000
  F   F5        1.0  0.76000  0.08490  0.54300  1.0000
  F   F6        1.0  0.24000  0.58500  0.54300  1.0000
  F   F7        1.0  0.76000  0.08490  0.95700  1.0000
  F   F8        1.0  0.24000  0.58500  0.95700  1.0000
  O   O1        1.0  0.05460  0.11800  0.25000  1.0000
  O   O2        1.0  0.61500  0.19700  0.25000  1.0000
  O   O3        1.0  0.28700  0.44000  0.25000  1.0000
  O   O4        1.0  0.94500  0.61800  0.25000  1.0000
  O   O5        1.0  0.38500  0.69700  0.25000  1.0000
  O   O6        1.0  0.71300  0.94000  0.25000  1.0000
  O   O7        1.0  0.28700  0.06010  0.75000  1.0000
  O   O8        1.0  0.61500  0.30300  0.75000  1.0000
  O   O9        1.0  0.05460  0.38200  0.75000  1.0000
  O   O10       1.0  0.71300  0.56000  0.75000  1.0000
  O   O11       1.0  0.38500  0.80300  0.75000  1.0000
  O   O12       1.0  0.94500  0.88200  0.75000  1.0000
