data_image0
_chemical_formula_structural       I4P12Se16
_chemical_formula_sum              "I4 P12 Se16"
_cell_length_a       11.9987
_cell_length_b       6.89508
_cell_length_c       14.7704
_cell_angle_alpha    90
_cell_angle_beta     118.261
_cell_angle_gamma    90

_space_group_name_H-M_alt    "P 1"
_space_group_IT_number       1

loop_
  _space_group_symop_operation_xyz
  'x, y, z'

loop_
  _atom_site_type_symbol
  _atom_site_label
  _atom_site_symmetry_multiplicity
  _atom_site_fract_x
  _atom_site_fract_y
  _atom_site_fract_z
  _atom_site_occupancy
  I   I1        1.0  0.85200  0.21800  0.17900  1.0000
  I   I2        1.0  0.14800  0.71800  0.32100  1.0000
  I   I3        1.0  0.85200  0.28200  0.67900  1.0000
  I   I4        1.0  0.14800  0.78200  0.82100  1.0000
  P   P1        1.0  0.67800  0.08460  0.01090  1.0000
  P   P2        1.0  0.71700  0.77400  0.04880  1.0000
  P   P3        1.0  0.18100  0.15600  0.12800  1.0000
  P   P4        1.0  0.81900  0.65600  0.37200  1.0000
  P   P5        1.0  0.28300  0.27400  0.45100  1.0000
  P   P6        1.0  0.32200  0.58500  0.48900  1.0000
  P   P7        1.0  0.67800  0.41500  0.51100  1.0000
  P   P8        1.0  0.71700  0.72600  0.54900  1.0000
  P   P9        1.0  0.18100  0.34400  0.62800  1.0000
  P   P10       1.0  0.81900  0.84400  0.87200  1.0000
  P   P11       1.0  0.28300  0.22600  0.95100  1.0000
  P   P12       1.0  0.32200  0.91500  0.98900  1.0000
  Se  Se1       1.0  0.89000  0.70900  0.03160  1.0000
  Se  Se2       1.0  0.45200  0.31300  0.10500  1.0000
  Se  Se3       1.0  0.25500  0.86100  0.10800  1.0000
  Se  Se4       1.0  0.35900  0.32600  0.21800  1.0000
  Se  Se5       1.0  0.64100  0.82600  0.28200  1.0000
  Se  Se6       1.0  0.74500  0.36100  0.39200  1.0000
  Se  Se7       1.0  0.54800  0.81300  0.39500  1.0000
  Se  Se8       1.0  0.11000  0.20900  0.46800  1.0000
  Se  Se9       1.0  0.89000  0.79100  0.53200  1.0000
  Se  Se10      1.0  0.45200  0.18700  0.60500  1.0000
  Se  Se11      1.0  0.25500  0.63900  0.60800  1.0000
  Se  Se12      1.0  0.35900  0.17400  0.71800  1.0000
  Se  Se13      1.0  0.64100  0.67400  0.78200  1.0000
  Se  Se14      1.0  0.74500  0.13900  0.89200  1.0000
  Se  Se15      1.0  0.54800  0.68700  0.89500  1.0000
  Se  Se16      1.0  0.11000  0.29100  0.96800  1.0000
