data_image0
_chemical_formula_structural       C4N16S12
_chemical_formula_sum              "C4 N16 S12"
_cell_length_a       5.37109
_cell_length_b       8.61751
_cell_length_c       11.7055
_cell_angle_alpha    90.0002
_cell_angle_beta     100.046
_cell_angle_gamma    90.0004

_space_group_name_H-M_alt    "P 1"
_space_group_IT_number       1

loop_
  _space_group_symop_operation_xyz
  'x, y, z'

loop_
  _atom_site_type_symbol
  _atom_site_label
  _atom_site_symmetry_multiplicity
  _atom_site_fract_x
  _atom_site_fract_y
  _atom_site_fract_z
  _atom_site_occupancy
  C   C1        1.0  0.82600  0.33200  0.21600  1.0000
  C   C2        1.0  0.67400  0.83200  0.28400  1.0000
  C   C3        1.0  0.32600  0.16800  0.71600  1.0000
  C   C4        1.0  0.17400  0.66800  0.78400  1.0000
  N   N1        1.0  0.81200  0.63800  0.03610  1.0000
  N   N2        1.0  0.77500  0.93300  0.05480  1.0000
  N   N3        1.0  0.01800  0.26800  0.20900  1.0000
  N   N4        1.0  0.61500  0.40700  0.21600  1.0000
  N   N5        1.0  0.88500  0.90700  0.28400  1.0000
  N   N6        1.0  0.48200  0.76800  0.29100  1.0000
  N   N7        1.0  0.72500  0.43300  0.44500  1.0000
  N   N8        1.0  0.68800  0.13800  0.46400  1.0000
  N   N9        1.0  0.31200  0.86200  0.53600  1.0000
  N   N10       1.0  0.27500  0.56700  0.55500  1.0000
  N   N11       1.0  0.51800  0.23200  0.70900  1.0000
  N   N12       1.0  0.11500  0.09260  0.71600  1.0000
  N   N13       1.0  0.38500  0.59300  0.78400  1.0000
  N   N14       1.0  0.98200  0.73200  0.79100  1.0000
  N   N15       1.0  0.22500  0.06650  0.94500  1.0000
  N   N16       1.0  0.18800  0.36200  0.96400  1.0000
  S   S1        1.0  0.36200  0.21900  0.00409  1.0000
  S   S2        1.0  0.07740  0.66500  0.12300  1.0000
  S   S3        1.0  0.00359  0.91500  0.16700  1.0000
  S   S4        1.0  0.49600  0.41500  0.33300  1.0000
  S   S5        1.0  0.42300  0.16500  0.37700  1.0000
  S   S6        1.0  0.13800  0.71900  0.49600  1.0000
  S   S7        1.0  0.86200  0.28100  0.50400  1.0000
  S   S8        1.0  0.57700  0.83500  0.62300  1.0000
  S   S9        1.0  0.50400  0.58500  0.66700  1.0000
  S   S10       1.0  0.99600  0.08510  0.83300  1.0000
  S   S11       1.0  0.92300  0.33500  0.87700  1.0000
  S   S12       1.0  0.63800  0.78100  0.99600  1.0000
