data_image0
_chemical_formula_structural       C12Co2K4N12Na2
_chemical_formula_sum              "C12 Co2 K4 N12 Na2"
_cell_length_a       6.94531
_cell_length_b       7.45519
_cell_length_c       10.1682
_cell_angle_alpha    90
_cell_angle_beta     90.7443
_cell_angle_gamma    90

_space_group_name_H-M_alt    "P 1"
_space_group_IT_number       1

loop_
  _space_group_symop_operation_xyz
  'x, y, z'

loop_
  _atom_site_type_symbol
  _atom_site_label
  _atom_site_symmetry_multiplicity
  _atom_site_fract_x
  _atom_site_fract_y
  _atom_site_fract_z
  _atom_site_occupancy
  C   C1        1.0  0.27900  0.86900  0.03780  1.0000
  C   C2        1.0  0.37300  0.21000  0.04750  1.0000
  C   C3        1.0  0.58600  0.97300  0.17300  1.0000
  C   C4        1.0  0.91400  0.47300  0.32700  1.0000
  C   C5        1.0  0.12700  0.71000  0.45200  1.0000
  C   C6        1.0  0.22100  0.36900  0.46200  1.0000
  C   C7        1.0  0.77900  0.63100  0.53800  1.0000
  C   C8        1.0  0.87300  0.29000  0.54800  1.0000
  C   C9        1.0  0.08580  0.52700  0.67300  1.0000
  C   C10       1.0  0.41400  0.02730  0.82700  1.0000
  C   C11       1.0  0.62700  0.79000  0.95200  1.0000
  C   C12       1.0  0.72100  0.13100  0.96200  1.0000
  Co  Co1       1.0  0.50000  0.00000  0.00000  1.0000
  Co  Co2       1.0  0.00000  0.50000  0.50000  1.0000
  K   K1        1.0  0.02600  0.07890  0.24800  1.0000
  K   K2        1.0  0.47400  0.57900  0.25200  1.0000
  K   K3        1.0  0.52600  0.42100  0.74800  1.0000
  K   K4        1.0  0.97400  0.92100  0.75200  1.0000
  N   N1        1.0  0.13900  0.78800  0.06450  1.0000
  N   N2        1.0  0.29100  0.34100  0.07840  1.0000
  N   N3        1.0  0.86100  0.45200  0.21800  1.0000
  N   N4        1.0  0.63900  0.95200  0.28200  1.0000
  N   N5        1.0  0.20900  0.84100  0.42200  1.0000
  N   N6        1.0  0.36100  0.28800  0.43500  1.0000
  N   N7        1.0  0.63900  0.71200  0.56500  1.0000
  N   N8        1.0  0.79100  0.15900  0.57800  1.0000
  N   N9        1.0  0.36100  0.04840  0.71800  1.0000
  N   N10       1.0  0.13900  0.54800  0.78200  1.0000
  N   N11       1.0  0.70900  0.65900  0.92200  1.0000
  N   N12       1.0  0.86100  0.21200  0.93500  1.0000
  Na  Na1       1.0  0.00000  0.50000  0.00000  1.0000
  Na  Na2       1.0  0.50000  0.00000  0.50000  1.0000
