data_image0
_chemical_formula_structural       O14Os3Sn15
_chemical_formula_sum              "O14 Os3 Sn15"
_cell_length_a       7.16506
_cell_length_b       7.21324
_cell_length_c       13.0353
_cell_angle_alpha    105.967
_cell_angle_beta     90
_cell_angle_gamma    119.779

_space_group_name_H-M_alt    "P 1"
_space_group_IT_number       1

loop_
  _space_group_symop_operation_xyz
  'x, y, z'

loop_
  _atom_site_type_symbol
  _atom_site_label
  _atom_site_symmetry_multiplicity
  _atom_site_fract_x
  _atom_site_fract_y
  _atom_site_fract_z
  _atom_site_occupancy
  O   O1        1.0  0.04200  0.08410  0.00985  1.0000
  O   O2        1.0  0.37600  0.75100  0.05790  1.0000
  O   O3        1.0  0.25700  0.02110  0.18500  1.0000
  O   O4        1.0  0.76400  0.02110  0.18500  1.0000
  O   O5        1.0  0.65500  0.31000  0.36500  1.0000
  O   O6        1.0  0.30500  0.18200  0.46700  1.0000
  O   O7        1.0  0.87700  0.18200  0.46700  1.0000
  O   O8        1.0  0.87700  0.75300  0.47400  1.0000
  O   O9        1.0  0.57400  0.14900  0.59000  1.0000
  O   O10       1.0  0.02700  0.60000  0.59400  1.0000
  O   O11       1.0  0.57300  0.60000  0.59400  1.0000
  O   O12       1.0  0.77500  0.55000  0.74800  1.0000
  O   O13       1.0  0.18200  0.82900  0.88400  1.0000
  O   O14       1.0  0.64700  0.82900  0.88400  1.0000
  Os  Os1       1.0  0.71200  0.42300  0.03510  1.0000
  Os  Os2       1.0  0.30200  0.60500  0.30600  1.0000
  Os  Os3       1.0  0.11600  0.23100  0.76900  1.0000
  Sn  Sn1       1.0  0.55800  0.11700  0.12900  1.0000
  Sn  Sn2       1.0  0.09060  0.66100  0.16200  1.0000
  Sn  Sn3       1.0  0.57000  0.66100  0.16200  1.0000
  Sn  Sn4       1.0  0.09770  0.19500  0.17800  1.0000
  Sn  Sn5       1.0  0.98500  0.96900  0.37900  1.0000
  Sn  Sn6       1.0  0.51300  0.02530  0.42100  1.0000
  Sn  Sn7       1.0  0.51000  0.50600  0.42500  1.0000
  Sn  Sn8       1.0  0.99600  0.50600  0.42500  1.0000
  Sn  Sn9       1.0  0.42300  0.32800  0.65300  1.0000
  Sn  Sn10      1.0  0.90500  0.32800  0.65300  1.0000
  Sn  Sn11      1.0  0.90500  0.80900  0.65900  1.0000
  Sn  Sn12      1.0  0.32100  0.64200  0.88800  1.0000
  Sn  Sn13      1.0  0.33000  0.18300  0.91100  1.0000
  Sn  Sn14      1.0  0.85300  0.18300  0.91100  1.0000
  Sn  Sn15      1.0  0.85000  0.70000  0.92000  1.0000
