data_image0
_chemical_formula_structural       F20Fe4Rb8
_chemical_formula_sum              "F20 Fe4 Rb8"
_cell_length_a       7.30413
_cell_length_b       5.70658
_cell_length_c       11.6677
_cell_angle_alpha    90
_cell_angle_beta     90
_cell_angle_gamma    90

_space_group_name_H-M_alt    "P 1"
_space_group_IT_number       1

loop_
  _space_group_symop_operation_xyz
  'x, y, z'

loop_
  _atom_site_type_symbol
  _atom_site_label
  _atom_site_symmetry_multiplicity
  _atom_site_fract_x
  _atom_site_fract_y
  _atom_site_fract_z
  _atom_site_occupancy
  F   F1        1.0  0.00000  0.00000  0.00000  1.0000
  F   F2        1.0  0.00000  0.50000  0.00000  1.0000
  F   F3        1.0  0.70700  0.75000  0.08050  1.0000
  F   F4        1.0  0.31900  0.00401  0.12300  1.0000
  F   F5        1.0  0.31900  0.49600  0.12300  1.0000
  F   F6        1.0  0.01090  0.25000  0.19600  1.0000
  F   F7        1.0  0.51100  0.25000  0.30400  1.0000
  F   F8        1.0  0.81900  0.00401  0.37700  1.0000
  F   F9        1.0  0.81900  0.49600  0.37700  1.0000
  F   F10       1.0  0.20700  0.75000  0.41900  1.0000
  F   F11       1.0  0.50000  0.00000  0.50000  1.0000
  F   F12       1.0  0.50000  0.50000  0.50000  1.0000
  F   F13       1.0  0.79300  0.25000  0.58100  1.0000
  F   F14       1.0  0.18100  0.50400  0.62300  1.0000
  F   F15       1.0  0.18100  0.99600  0.62300  1.0000
  F   F16       1.0  0.48900  0.75000  0.69600  1.0000
  F   F17       1.0  0.98900  0.75000  0.80400  1.0000
  F   F18       1.0  0.68100  0.50400  0.87700  1.0000
  F   F19       1.0  0.68100  0.99600  0.87700  1.0000
  F   F20       1.0  0.29300  0.25000  0.91900  1.0000
  Fe  Fe1       1.0  0.17100  0.25000  0.06740  1.0000
  Fe  Fe2       1.0  0.67100  0.25000  0.43300  1.0000
  Fe  Fe3       1.0  0.32900  0.75000  0.56700  1.0000
  Fe  Fe4       1.0  0.82900  0.75000  0.93300  1.0000
  Rb  Rb1       1.0  0.65900  0.25000  0.08500  1.0000
  Rb  Rb2       1.0  0.01630  0.75000  0.21900  1.0000
  Rb  Rb3       1.0  0.51600  0.75000  0.28100  1.0000
  Rb  Rb4       1.0  0.15900  0.25000  0.41500  1.0000
  Rb  Rb5       1.0  0.84100  0.75000  0.58500  1.0000
  Rb  Rb6       1.0  0.48400  0.25000  0.71900  1.0000
  Rb  Rb7       1.0  0.98400  0.25000  0.78100  1.0000
  Rb  Rb8       1.0  0.34100  0.75000  0.91500  1.0000
