data_image0
_chemical_formula_structural       Eu8Li4O16Sm4
_chemical_formula_sum              "Eu8 Li4 O16 Sm4"
_cell_length_a       11.3978
_cell_length_b       11.2361
_cell_length_c       3.40302
_cell_angle_alpha    90
_cell_angle_beta     90
_cell_angle_gamma    90

_space_group_name_H-M_alt    "P 1"
_space_group_IT_number       1

loop_
  _space_group_symop_operation_xyz
  'x, y, z'

loop_
  _atom_site_type_symbol
  _atom_site_label
  _atom_site_symmetry_multiplicity
  _atom_site_fract_x
  _atom_site_fract_y
  _atom_site_fract_z
  _atom_site_occupancy
  Eu  Eu1       1.0  0.42600  0.13700  0.25000  1.0000
  Eu  Eu2       1.0  0.61100  0.40000  0.25000  1.0000
  Eu  Eu3       1.0  0.07400  0.63700  0.25000  1.0000
  Eu  Eu4       1.0  0.88900  0.90000  0.25000  1.0000
  Eu  Eu5       1.0  0.11100  0.10000  0.75000  1.0000
  Eu  Eu6       1.0  0.92600  0.36300  0.75000  1.0000
  Eu  Eu7       1.0  0.38900  0.60000  0.75000  1.0000
  Eu  Eu8       1.0  0.57400  0.86300  0.75000  1.0000
  Li  Li1       1.0  0.90900  0.15000  0.25000  1.0000
  Li  Li2       1.0  0.59100  0.65000  0.25000  1.0000
  Li  Li3       1.0  0.40900  0.35000  0.75000  1.0000
  Li  Li4       1.0  0.09080  0.85000  0.75000  1.0000
  O   O1        1.0  0.62200  0.02240  0.25000  1.0000
  O   O2        1.0  0.04260  0.24300  0.25000  1.0000
  O   O3        1.0  0.78100  0.26400  0.25000  1.0000
  O   O4        1.0  0.39300  0.44300  0.25000  1.0000
  O   O5        1.0  0.87800  0.52200  0.25000  1.0000
  O   O6        1.0  0.45700  0.74300  0.25000  1.0000
  O   O7        1.0  0.71900  0.76400  0.25000  1.0000
  O   O8        1.0  0.10700  0.94300  0.25000  1.0000
  O   O9        1.0  0.89300  0.05690  0.75000  1.0000
  O   O10       1.0  0.28100  0.23600  0.75000  1.0000
  O   O11       1.0  0.54300  0.25700  0.75000  1.0000
  O   O12       1.0  0.12200  0.47800  0.75000  1.0000
  O   O13       1.0  0.60700  0.55700  0.75000  1.0000
  O   O14       1.0  0.21900  0.73600  0.75000  1.0000
  O   O15       1.0  0.95700  0.75700  0.75000  1.0000
  O   O16       1.0  0.37800  0.97800  0.75000  1.0000
  Sm  Sm1       1.0  0.20300  0.36100  0.25000  1.0000
  Sm  Sm2       1.0  0.29700  0.86100  0.25000  1.0000
  Sm  Sm3       1.0  0.70300  0.13900  0.75000  1.0000
  Sm  Sm4       1.0  0.79700  0.63900  0.75000  1.0000
