data_image0
_chemical_formula_structural       Eu4O11Ru4
_chemical_formula_sum              "Eu4 O11 Ru4"
_cell_length_a       5.39671
_cell_length_b       5.52802
_cell_length_c       7.73081
_cell_angle_alpha    90.4146
_cell_angle_beta     89.4223
_cell_angle_gamma    90.5773

_space_group_name_H-M_alt    "P 1"
_space_group_IT_number       1

loop_
  _space_group_symop_operation_xyz
  'x, y, z'

loop_
  _atom_site_type_symbol
  _atom_site_label
  _atom_site_symmetry_multiplicity
  _atom_site_fract_x
  _atom_site_fract_y
  _atom_site_fract_z
  _atom_site_occupancy
  Eu  Eu1       1.0  0.50400  0.55700  0.24800  1.0000
  Eu  Eu2       1.0  0.00179  0.03920  0.25700  1.0000
  Eu  Eu3       1.0  0.47600  0.45600  0.74000  1.0000
  Eu  Eu4       1.0  0.01740  0.94300  0.75400  1.0000
  O   O1        1.0  0.79600  0.79400  0.03980  1.0000
  O   O2        1.0  0.06730  0.47800  0.24900  1.0000
  O   O3        1.0  0.43400  0.99600  0.24900  1.0000
  O   O4        1.0  0.69800  0.29700  0.45000  1.0000
  O   O5        1.0  0.79600  0.79400  0.46200  1.0000
  O   O6        1.0  0.29600  0.70500  0.53800  1.0000
  O   O7        1.0  0.19700  0.20300  0.54200  1.0000
  O   O8        1.0  0.58500  0.02550  0.75100  1.0000
  O   O9        1.0  0.91400  0.50600  0.75300  1.0000
  O   O10       1.0  0.21000  0.21000  0.96400  1.0000
  O   O11       1.0  0.30700  0.70100  0.96400  1.0000
  Ru  Ru1       1.0  0.99400  0.49700  0.50000  1.0000
  Ru  Ru2       1.0  0.50200  0.00324  0.50100  1.0000
  Ru  Ru3       1.0  0.51000  0.00795  0.99900  1.0000
  Ru  Ru4       1.0  0.99200  0.49200  0.99900  1.0000
