data_image0
_chemical_formula_structural       O20Se8Sr4
_chemical_formula_sum              "O20 Se8 Sr4"
_cell_length_a       6.865
_cell_length_b       6.89337
_cell_length_c       10.7653
_cell_angle_alpha    85.0371
_cell_angle_beta     81.6599
_cell_angle_gamma    79.6224

_space_group_name_H-M_alt    "P 1"
_space_group_IT_number       1

loop_
  _space_group_symop_operation_xyz
  'x, y, z'

loop_
  _atom_site_type_symbol
  _atom_site_label
  _atom_site_symmetry_multiplicity
  _atom_site_fract_x
  _atom_site_fract_y
  _atom_site_fract_z
  _atom_site_occupancy
  O   O1        1.0  0.46300  0.21800  0.02970  1.0000
  O   O2        1.0  0.20900  0.63100  0.05310  1.0000
  O   O3        1.0  0.81700  0.01730  0.09870  1.0000
  O   O4        1.0  0.05470  0.28300  0.13300  1.0000
  O   O5        1.0  0.68700  0.33500  0.24500  1.0000
  O   O6        1.0  0.46000  0.71400  0.24700  1.0000
  O   O7        1.0  0.97900  0.63800  0.29700  1.0000
  O   O8        1.0  0.28200  0.05150  0.34500  1.0000
  O   O9        1.0  0.66000  0.91200  0.38100  1.0000
  O   O10       1.0  0.24200  0.44100  0.48100  1.0000
  O   O11       1.0  0.75800  0.55900  0.51900  1.0000
  O   O12       1.0  0.34000  0.08840  0.61900  1.0000
  O   O13       1.0  0.71800  0.94800  0.65500  1.0000
  O   O14       1.0  0.02140  0.36200  0.70300  1.0000
  O   O15       1.0  0.54000  0.28600  0.75300  1.0000
  O   O16       1.0  0.31300  0.66500  0.75500  1.0000
  O   O17       1.0  0.94500  0.71700  0.86700  1.0000
  O   O18       1.0  0.18300  0.98300  0.90100  1.0000
  O   O19       1.0  0.79100  0.36900  0.94700  1.0000
  O   O20       1.0  0.53700  0.78200  0.97000  1.0000
  Se  Se1       1.0  0.30200  0.84500  0.04230  1.0000
  Se  Se2       1.0  0.88600  0.15500  0.22100  1.0000
  Se  Se3       1.0  0.41400  0.83100  0.38400  1.0000
  Se  Se4       1.0  0.87700  0.73200  0.43700  1.0000
  Se  Se5       1.0  0.12300  0.26800  0.56300  1.0000
  Se  Se6       1.0  0.58600  0.16900  0.61600  1.0000
  Se  Se7       1.0  0.11400  0.84500  0.77900  1.0000
  Se  Se8       1.0  0.69800  0.15500  0.95800  1.0000
  Sr  Sr1       1.0  0.80800  0.63700  0.10900  1.0000
  Sr  Sr2       1.0  0.32000  0.38900  0.24300  1.0000
  Sr  Sr3       1.0  0.68000  0.61100  0.75700  1.0000
  Sr  Sr4       1.0  0.19200  0.36300  0.89100  1.0000
