data_image0
_chemical_formula_structural       B6S20Tl6
_chemical_formula_sum              "B6 S20 Tl6"
_cell_length_a       6.9655
_cell_length_b       7.87102
_cell_length_c       13.9051
_cell_angle_alpha    103.455
_cell_angle_beta     93.6621
_cell_angle_gamma    95.3388

_space_group_name_H-M_alt    "P 1"
_space_group_IT_number       1

loop_
  _space_group_symop_operation_xyz
  'x, y, z'

loop_
  _atom_site_type_symbol
  _atom_site_label
  _atom_site_symmetry_multiplicity
  _atom_site_fract_x
  _atom_site_fract_y
  _atom_site_fract_z
  _atom_site_occupancy
  B   B1        1.0  0.36900  0.91000  0.08790  1.0000
  B   B2        1.0  0.26200  0.71400  0.23900  1.0000
  B   B3        1.0  0.10400  0.61400  0.41300  1.0000
  B   B4        1.0  0.89600  0.38600  0.58700  1.0000
  B   B5        1.0  0.73800  0.28600  0.76100  1.0000
  B   B6        1.0  0.63100  0.08970  0.91200  1.0000
  S   S1        1.0  0.54300  0.77000  0.01240  1.0000
  S   S2        1.0  0.23800  0.05250  0.01600  1.0000
  S   S3        1.0  0.17300  0.73800  0.11000  1.0000
  S   S4        1.0  0.48000  0.05390  0.21400  1.0000
  S   S5        1.0  0.29900  0.47200  0.22900  1.0000
  S   S6        1.0  0.51500  0.84700  0.28000  1.0000
  S   S7        1.0  0.07560  0.78300  0.33500  1.0000
  S   S8        1.0  0.86100  0.47000  0.37600  1.0000
  S   S9        1.0  0.33100  0.49900  0.38200  1.0000
  S   S10       1.0  0.86000  0.26400  0.45000  1.0000
  S   S11       1.0  0.14000  0.73600  0.55000  1.0000
  S   S12       1.0  0.66900  0.50100  0.61800  1.0000
  S   S13       1.0  0.13900  0.53000  0.62400  1.0000
  S   S14       1.0  0.92400  0.21700  0.66500  1.0000
  S   S15       1.0  0.48500  0.15300  0.72000  1.0000
  S   S16       1.0  0.70100  0.52800  0.77100  1.0000
  S   S17       1.0  0.52000  0.94600  0.78600  1.0000
  S   S18       1.0  0.82700  0.26200  0.89000  1.0000
  S   S19       1.0  0.76200  0.94800  0.98400  1.0000
  S   S20       1.0  0.45700  0.23000  0.98800  1.0000
  Tl  Tl1       1.0  0.73400  0.54600  0.15300  1.0000
  Tl  Tl2       1.0  0.98300  0.11500  0.20600  1.0000
  Tl  Tl3       1.0  0.32600  0.17900  0.48300  1.0000
  Tl  Tl4       1.0  0.67400  0.82100  0.51700  1.0000
  Tl  Tl5       1.0  0.01700  0.88500  0.79400  1.0000
  Tl  Tl6       1.0  0.26600  0.45400  0.84700  1.0000
