data_image0
_chemical_formula_structural       Cl20Rb8U4
_chemical_formula_sum              "Cl20 Rb8 U4"
_cell_length_a       13.1919
_cell_length_b       8.97406
_cell_length_c       8.2442
_cell_angle_alpha    90
_cell_angle_beta     90
_cell_angle_gamma    90

_space_group_name_H-M_alt    "P 1"
_space_group_IT_number       1

loop_
  _space_group_symop_operation_xyz
  'x, y, z'

loop_
  _atom_site_type_symbol
  _atom_site_label
  _atom_site_symmetry_multiplicity
  _atom_site_fract_x
  _atom_site_fract_y
  _atom_site_fract_z
  _atom_site_occupancy
  Cl  Cl1       1.0  0.00914  0.25000  0.09010  1.0000
  Cl  Cl2       1.0  0.32200  0.75000  0.12000  1.0000
  Cl  Cl3       1.0  0.30000  0.25000  0.15400  1.0000
  Cl  Cl4       1.0  0.57300  0.54100  0.16400  1.0000
  Cl  Cl5       1.0  0.57300  0.95900  0.16400  1.0000
  Cl  Cl6       1.0  0.07310  0.54100  0.33600  1.0000
  Cl  Cl7       1.0  0.07310  0.95900  0.33600  1.0000
  Cl  Cl8       1.0  0.80000  0.25000  0.34600  1.0000
  Cl  Cl9       1.0  0.82200  0.75000  0.38000  1.0000
  Cl  Cl10      1.0  0.50900  0.25000  0.41000  1.0000
  Cl  Cl11      1.0  0.49100  0.75000  0.59000  1.0000
  Cl  Cl12      1.0  0.17800  0.25000  0.62000  1.0000
  Cl  Cl13      1.0  0.20000  0.75000  0.65400  1.0000
  Cl  Cl14      1.0  0.92700  0.04120  0.66400  1.0000
  Cl  Cl15      1.0  0.92700  0.45900  0.66400  1.0000
  Cl  Cl16      1.0  0.42700  0.04120  0.83600  1.0000
  Cl  Cl17      1.0  0.42700  0.45900  0.83600  1.0000
  Cl  Cl18      1.0  0.70000  0.75000  0.84600  1.0000
  Cl  Cl19      1.0  0.67800  0.25000  0.88000  1.0000
  Cl  Cl20      1.0  0.99100  0.75000  0.91000  1.0000
  Rb  Rb1       1.0  0.83000  0.50600  0.05710  1.0000
  Rb  Rb2       1.0  0.83000  0.99400  0.05710  1.0000
  Rb  Rb3       1.0  0.33000  0.50600  0.44300  1.0000
  Rb  Rb4       1.0  0.33000  0.99400  0.44300  1.0000
  Rb  Rb5       1.0  0.67000  0.00603  0.55700  1.0000
  Rb  Rb6       1.0  0.67000  0.49400  0.55700  1.0000
  Rb  Rb7       1.0  0.17000  0.00603  0.94300  1.0000
  Rb  Rb8       1.0  0.17000  0.49400  0.94300  1.0000
  U   U1        1.0  0.50300  0.25000  0.06710  1.0000
  U   U2        1.0  0.00336  0.25000  0.43300  1.0000
  U   U3        1.0  0.99700  0.75000  0.56700  1.0000
  U   U4        1.0  0.49700  0.75000  0.93300  1.0000
