data_image0
_chemical_formula_structural       Cl20N4Si8
_chemical_formula_sum              "Cl20 N4 Si8"
_cell_length_a       6.54213
_cell_length_b       13.0225
_cell_length_c       10.8907
_cell_angle_alpha    90
_cell_angle_beta     102.568
_cell_angle_gamma    90

_space_group_name_H-M_alt    "P 1"
_space_group_IT_number       1

loop_
  _space_group_symop_operation_xyz
  'x, y, z'

loop_
  _atom_site_type_symbol
  _atom_site_label
  _atom_site_symmetry_multiplicity
  _atom_site_fract_x
  _atom_site_fract_y
  _atom_site_fract_z
  _atom_site_occupancy
  Cl  Cl1       1.0  0.60400  0.21900  0.03350  1.0000
  Cl  Cl2       1.0  0.87300  0.86800  0.06740  1.0000
  Cl  Cl3       1.0  0.72200  0.52500  0.12800  1.0000
  Cl  Cl4       1.0  0.11300  0.36000  0.17900  1.0000
  Cl  Cl5       1.0  0.20900  0.61200  0.19900  1.0000
  Cl  Cl6       1.0  0.29100  0.11200  0.30100  1.0000
  Cl  Cl7       1.0  0.38700  0.86000  0.32100  1.0000
  Cl  Cl8       1.0  0.77800  0.02510  0.37200  1.0000
  Cl  Cl9       1.0  0.62700  0.36800  0.43300  1.0000
  Cl  Cl10      1.0  0.89600  0.71900  0.46700  1.0000
  Cl  Cl11      1.0  0.10400  0.28100  0.53300  1.0000
  Cl  Cl12      1.0  0.37300  0.63200  0.56700  1.0000
  Cl  Cl13      1.0  0.22200  0.97500  0.62800  1.0000
  Cl  Cl14      1.0  0.61300  0.14000  0.67900  1.0000
  Cl  Cl15      1.0  0.70900  0.88800  0.69900  1.0000
  Cl  Cl16      1.0  0.79100  0.38800  0.80100  1.0000
  Cl  Cl17      1.0  0.88700  0.64000  0.82100  1.0000
  Cl  Cl18      1.0  0.27800  0.47500  0.87200  1.0000
  Cl  Cl19      1.0  0.12700  0.13200  0.93300  1.0000
  Cl  Cl20      1.0  0.39600  0.78100  0.96700  1.0000
  N   N1        1.0  0.48100  0.99600  0.11000  1.0000
  N   N2        1.0  0.01860  0.49600  0.39000  1.0000
  N   N3        1.0  0.98100  0.50400  0.61000  1.0000
  N   N4        1.0  0.51900  0.00380  0.89000  1.0000
  Si  Si1       1.0  0.56900  0.91100  0.00849  1.0000
  Si  Si2       1.0  0.01550  0.49800  0.23300  1.0000
  Si  Si3       1.0  0.48500  0.99800  0.26700  1.0000
  Si  Si4       1.0  0.93100  0.41100  0.49200  1.0000
  Si  Si5       1.0  0.06880  0.58900  0.50800  1.0000
  Si  Si6       1.0  0.51500  0.00194  0.73300  1.0000
  Si  Si7       1.0  0.98500  0.50200  0.76700  1.0000
  Si  Si8       1.0  0.43100  0.08950  0.99200  1.0000
