data_image0
_chemical_formula_structural       Na2O12Rb14Zn4
_chemical_formula_sum              "Na2 O12 Rb14 Zn4"
_cell_length_a       11.2422
_cell_length_b       9.73688
_cell_length_c       7.09275
_cell_angle_alpha    114.326
_cell_angle_beta     88.2695
_cell_angle_gamma    106.513

_space_group_name_H-M_alt    "P 1"
_space_group_IT_number       1

loop_
  _space_group_symop_operation_xyz
  'x, y, z'

loop_
  _atom_site_type_symbol
  _atom_site_label
  _atom_site_symmetry_multiplicity
  _atom_site_fract_x
  _atom_site_fract_y
  _atom_site_fract_z
  _atom_site_occupancy
  Na  Na1       1.0  0.78500  0.88700  0.19100  1.0000
  Na  Na2       1.0  0.21500  0.11300  0.80900  1.0000
  O   O1        1.0  0.83600  0.31900  0.03710  1.0000
  O   O2        1.0  0.10800  0.25500  0.07390  1.0000
  O   O3        1.0  0.55300  0.82800  0.12700  1.0000
  O   O4        1.0  0.87900  0.17100  0.36600  1.0000
  O   O5        1.0  0.72600  0.75100  0.40900  1.0000
  O   O6        1.0  0.41600  0.66400  0.44000  1.0000
  O   O7        1.0  0.58400  0.33600  0.56000  1.0000
  O   O8        1.0  0.27400  0.24900  0.59100  1.0000
  O   O9        1.0  0.12100  0.82900  0.63400  1.0000
  O   O10       1.0  0.44700  0.17200  0.87300  1.0000
  O   O11       1.0  0.89200  0.74500  0.92600  1.0000
  O   O12       1.0  0.16400  0.68100  0.96300  1.0000
  Rb  Rb1       1.0  0.68600  0.48400  0.00711  1.0000
  Rb  Rb2       1.0  0.63200  0.13300  0.15800  1.0000
  Rb  Rb3       1.0  0.97900  0.66100  0.22600  1.0000
  Rb  Rb4       1.0  0.09110  0.06270  0.27800  1.0000
  Rb  Rb5       1.0  0.40400  0.33400  0.28400  1.0000
  Rb  Rb6       1.0  0.31700  0.88000  0.36700  1.0000
  Rb  Rb7       1.0  0.18700  0.51500  0.48200  1.0000
  Rb  Rb8       1.0  0.81300  0.48500  0.51800  1.0000
  Rb  Rb9       1.0  0.68300  0.12000  0.63300  1.0000
  Rb  Rb10      1.0  0.59600  0.66600  0.71600  1.0000
  Rb  Rb11      1.0  0.90900  0.93700  0.72200  1.0000
  Rb  Rb12      1.0  0.02060  0.33900  0.77400  1.0000
  Rb  Rb13      1.0  0.36800  0.86700  0.84200  1.0000
  Rb  Rb14      1.0  0.31400  0.51600  0.99300  1.0000
  Zn  Zn1       1.0  0.94200  0.24700  0.15900  1.0000
  Zn  Zn2       1.0  0.56200  0.74500  0.32800  1.0000
  Zn  Zn3       1.0  0.43800  0.25500  0.67200  1.0000
  Zn  Zn4       1.0  0.05830  0.75300  0.84100  1.0000
