data_image0
_chemical_formula_structural       Cl12Hf2Te16
_chemical_formula_sum              "Cl12 Hf2 Te16"
_cell_length_a       7.11295
_cell_length_b       8.85772
_cell_length_c       16.9432
_cell_angle_alpha    103.871
_cell_angle_beta     99.3578
_cell_angle_gamma    93.9738

_space_group_name_H-M_alt    "P 1"
_space_group_IT_number       1

loop_
  _space_group_symop_operation_xyz
  'x, y, z'

loop_
  _atom_site_type_symbol
  _atom_site_label
  _atom_site_symmetry_multiplicity
  _atom_site_fract_x
  _atom_site_fract_y
  _atom_site_fract_z
  _atom_site_occupancy
  Cl  Cl1       1.0  0.17100  0.26300  0.01600  1.0000
  Cl  Cl2       1.0  0.30800  0.89200  0.02330  1.0000
  Cl  Cl3       1.0  0.00082  0.05920  0.14800  1.0000
  Cl  Cl4       1.0  0.10400  0.89400  0.36900  1.0000
  Cl  Cl5       1.0  0.66900  0.98200  0.42400  1.0000
  Cl  Cl6       1.0  0.06790  0.27000  0.48600  1.0000
  Cl  Cl7       1.0  0.93200  0.73000  0.51400  1.0000
  Cl  Cl8       1.0  0.33100  0.01830  0.57600  1.0000
  Cl  Cl9       1.0  0.89600  0.10600  0.63100  1.0000
  Cl  Cl10      1.0  0.99900  0.94100  0.85200  1.0000
  Cl  Cl11      1.0  0.69200  0.10800  0.97700  1.0000
  Cl  Cl12      1.0  0.82900  0.73700  0.98400  1.0000
  Hf  Hf1       1.0  0.00000  0.00000  0.00000  1.0000
  Hf  Hf2       1.0  0.00000  0.00000  0.50000  1.0000
  Te  Te1       1.0  0.71800  0.50100  0.10900  1.0000
  Te  Te2       1.0  0.27700  0.70500  0.16200  1.0000
  Te  Te3       1.0  0.55000  0.27500  0.17600  1.0000
  Te  Te4       1.0  0.20400  0.44900  0.22500  1.0000
  Te  Te5       1.0  0.66100  0.75400  0.22900  1.0000
  Te  Te6       1.0  0.77300  0.33600  0.33000  1.0000
  Te  Te7       1.0  0.35200  0.57900  0.39400  1.0000
  Te  Te8       1.0  0.45600  0.28700  0.40200  1.0000
  Te  Te9       1.0  0.54400  0.71300  0.59800  1.0000
  Te  Te10      1.0  0.64800  0.42100  0.60600  1.0000
  Te  Te11      1.0  0.22700  0.66400  0.67000  1.0000
  Te  Te12      1.0  0.33900  0.24600  0.77100  1.0000
  Te  Te13      1.0  0.79600  0.55100  0.77500  1.0000
  Te  Te14      1.0  0.45000  0.72500  0.82400  1.0000
  Te  Te15      1.0  0.72300  0.29500  0.83800  1.0000
  Te  Te16      1.0  0.28200  0.49900  0.89100  1.0000
