data_image0
_chemical_formula_structural       B4Na4O20U4
_chemical_formula_sum              "B4 Na4 O20 U4"
_cell_length_a       10.6362
_cell_length_b       5.6989
_cell_length_c       6.88903
_cell_angle_alpha    90
_cell_angle_beta     90
_cell_angle_gamma    90

_space_group_name_H-M_alt    "P 1"
_space_group_IT_number       1

loop_
  _space_group_symop_operation_xyz
  'x, y, z'

loop_
  _atom_site_type_symbol
  _atom_site_label
  _atom_site_symmetry_multiplicity
  _atom_site_fract_x
  _atom_site_fract_y
  _atom_site_fract_z
  _atom_site_occupancy
  B   B1        1.0  0.35000  0.21000  0.25000  1.0000
  B   B2        1.0  0.85000  0.79000  0.25000  1.0000
  B   B3        1.0  0.15000  0.21000  0.75000  1.0000
  B   B4        1.0  0.65000  0.79000  0.75000  1.0000
  Na  Na1       1.0  0.75000  0.38900  0.00000  1.0000
  Na  Na2       1.0  0.25000  0.61100  0.00000  1.0000
  Na  Na3       1.0  0.75000  0.38900  0.50000  1.0000
  Na  Na4       1.0  0.25000  0.61100  0.50000  1.0000
  O   O1        1.0  0.41000  0.13500  0.08250  1.0000
  O   O2        1.0  0.91000  0.86500  0.08250  1.0000
  O   O3        1.0  0.67100  0.14900  0.25000  1.0000
  O   O4        1.0  0.24100  0.33500  0.25000  1.0000
  O   O5        1.0  0.95800  0.35300  0.25000  1.0000
  O   O6        1.0  0.45800  0.64700  0.25000  1.0000
  O   O7        1.0  0.74100  0.66500  0.25000  1.0000
  O   O8        1.0  0.17100  0.85100  0.25000  1.0000
  O   O9        1.0  0.41000  0.13500  0.41800  1.0000
  O   O10       1.0  0.91000  0.86500  0.41800  1.0000
  O   O11       1.0  0.09040  0.13500  0.58200  1.0000
  O   O12       1.0  0.59000  0.86500  0.58200  1.0000
  O   O13       1.0  0.82900  0.14900  0.75000  1.0000
  O   O14       1.0  0.25900  0.33500  0.75000  1.0000
  O   O15       1.0  0.54200  0.35300  0.75000  1.0000
  O   O16       1.0  0.04150  0.64700  0.75000  1.0000
  O   O17       1.0  0.75900  0.66500  0.75000  1.0000
  O   O18       1.0  0.32900  0.85100  0.75000  1.0000
  O   O19       1.0  0.09040  0.13500  0.91800  1.0000
  O   O20       1.0  0.59000  0.86500  0.91800  1.0000
  U   U1        1.0  0.06490  0.10300  0.25000  1.0000
  U   U2        1.0  0.56500  0.89700  0.25000  1.0000
  U   U3        1.0  0.43500  0.10300  0.75000  1.0000
  U   U4        1.0  0.93500  0.89700  0.75000  1.0000
