data_image0
_chemical_formula_structural       O20P4Rb4V4
_chemical_formula_sum              "O20 P4 Rb4 V4"
_cell_length_a       7.8251
_cell_length_b       7.53946
_cell_length_c       8.32495
_cell_angle_alpha    90
_cell_angle_beta     90
_cell_angle_gamma    90

_space_group_name_H-M_alt    "P 1"
_space_group_IT_number       1

loop_
  _space_group_symop_operation_xyz
  'x, y, z'

loop_
  _atom_site_type_symbol
  _atom_site_label
  _atom_site_symmetry_multiplicity
  _atom_site_fract_x
  _atom_site_fract_y
  _atom_site_fract_z
  _atom_site_occupancy
  O   O1        1.0  0.57800  0.47700  0.02670  1.0000
  O   O2        1.0  0.67700  0.77400  0.07760  1.0000
  O   O3        1.0  0.35700  0.06440  0.18000  1.0000
  O   O4        1.0  0.38300  0.68400  0.19000  1.0000
  O   O5        1.0  0.93000  0.32100  0.22900  1.0000
  O   O6        1.0  0.06960  0.82100  0.27100  1.0000
  O   O7        1.0  0.61700  0.18400  0.31000  1.0000
  O   O8        1.0  0.64300  0.56400  0.32000  1.0000
  O   O9        1.0  0.32300  0.27400  0.42200  1.0000
  O   O10       1.0  0.42200  0.97700  0.47300  1.0000
  O   O11       1.0  0.92200  0.52300  0.52700  1.0000
  O   O12       1.0  0.82300  0.22600  0.57800  1.0000
  O   O13       1.0  0.14300  0.93600  0.68000  1.0000
  O   O14       1.0  0.11700  0.31600  0.69000  1.0000
  O   O15       1.0  0.57000  0.67900  0.72900  1.0000
  O   O16       1.0  0.43000  0.17900  0.77100  1.0000
  O   O17       1.0  0.88300  0.81600  0.81000  1.0000
  O   O18       1.0  0.85700  0.43600  0.82000  1.0000
  O   O19       1.0  0.17700  0.72600  0.92200  1.0000
  O   O20       1.0  0.07840  0.02260  0.97300  1.0000
  P   P1        1.0  0.56700  0.62500  0.15800  1.0000
  P   P2        1.0  0.43300  0.12500  0.34200  1.0000
  P   P3        1.0  0.93300  0.37500  0.65800  1.0000
  P   P4        1.0  0.06690  0.87500  0.84200  1.0000
  Rb  Rb1       1.0  0.20700  0.37200  0.02120  1.0000
  Rb  Rb2       1.0  0.79300  0.87200  0.47900  1.0000
  Rb  Rb3       1.0  0.29300  0.62800  0.52100  1.0000
  Rb  Rb4       1.0  0.70700  0.12800  0.97900  1.0000
  V   V1        1.0  0.20700  0.86200  0.12800  1.0000
  V   V2        1.0  0.79300  0.36200  0.37200  1.0000
  V   V3        1.0  0.29300  0.13800  0.62800  1.0000
  V   V4        1.0  0.70700  0.63800  0.87200  1.0000
