data_image0
_chemical_formula_structural       As12Cr20
_chemical_formula_sum              "As12 Cr20"
_cell_length_a       9.15237
_cell_length_b       7.40455
_cell_length_c       6.31149
_cell_angle_alpha    90
_cell_angle_beta     90
_cell_angle_gamma    90

_space_group_name_H-M_alt    "P 1"
_space_group_IT_number       1

loop_
  _space_group_symop_operation_xyz
  'x, y, z'

loop_
  _atom_site_type_symbol
  _atom_site_label
  _atom_site_symmetry_multiplicity
  _atom_site_fract_x
  _atom_site_fract_y
  _atom_site_fract_z
  _atom_site_occupancy
  As  As1       1.0  0.33200  0.02010  0.07290  1.0000
  As  As2       1.0  0.33200  0.48000  0.07290  1.0000
  As  As3       1.0  0.00040  0.75000  0.08460  1.0000
  As  As4       1.0  0.50000  0.75000  0.41500  1.0000
  As  As5       1.0  0.83200  0.02010  0.42700  1.0000
  As  As6       1.0  0.83200  0.48000  0.42700  1.0000
  As  As7       1.0  0.16800  0.52000  0.57300  1.0000
  As  As8       1.0  0.16800  0.98000  0.57300  1.0000
  As  As9       1.0  0.50000  0.25000  0.58500  1.0000
  As  As10      1.0  0.00000  0.25000  0.91500  1.0000
  As  As11      1.0  0.66800  0.52000  0.92700  1.0000
  As  As12      1.0  0.66800  0.98000  0.92700  1.0000
  Cr  Cr1       1.0  0.47700  0.75000  0.03150  1.0000
  Cr  Cr2       1.0  0.78900  0.25000  0.14400  1.0000
  Cr  Cr3       1.0  0.74300  0.75000  0.20300  1.0000
  Cr  Cr4       1.0  0.07640  0.05440  0.20500  1.0000
  Cr  Cr5       1.0  0.07640  0.44600  0.20500  1.0000
  Cr  Cr6       1.0  0.57600  0.05440  0.29500  1.0000
  Cr  Cr7       1.0  0.57600  0.44600  0.29500  1.0000
  Cr  Cr8       1.0  0.24300  0.75000  0.29700  1.0000
  Cr  Cr9       1.0  0.28900  0.25000  0.35600  1.0000
  Cr  Cr10      1.0  0.97700  0.75000  0.46900  1.0000
  Cr  Cr11      1.0  0.02280  0.25000  0.53100  1.0000
  Cr  Cr12      1.0  0.71100  0.75000  0.64400  1.0000
  Cr  Cr13      1.0  0.75700  0.25000  0.70300  1.0000
  Cr  Cr14      1.0  0.42400  0.55400  0.70500  1.0000
  Cr  Cr15      1.0  0.42400  0.94600  0.70500  1.0000
  Cr  Cr16      1.0  0.92400  0.55400  0.79500  1.0000
  Cr  Cr17      1.0  0.92400  0.94600  0.79500  1.0000
  Cr  Cr18      1.0  0.25700  0.25000  0.79700  1.0000
  Cr  Cr19      1.0  0.21100  0.75000  0.85600  1.0000
  Cr  Cr20      1.0  0.52300  0.25000  0.96900  1.0000
