data_image0
_chemical_formula_structural       Ba4C6Ce2F2O18
_chemical_formula_sum              "Ba4 C6 Ce2 F2 O18"
_cell_length_a       13.1798
_cell_length_b       5.08981
_cell_length_c       6.60957
_cell_angle_alpha    90
_cell_angle_beta     106.035
_cell_angle_gamma    90

_space_group_name_H-M_alt    "P 1"
_space_group_IT_number       1

loop_
  _space_group_symop_operation_xyz
  'x, y, z'

loop_
  _atom_site_type_symbol
  _atom_site_label
  _atom_site_symmetry_multiplicity
  _atom_site_fract_x
  _atom_site_fract_y
  _atom_site_fract_z
  _atom_site_occupancy
  Ba  Ba1       1.0  0.07510  0.25000  0.29100  1.0000
  Ba  Ba2       1.0  0.58400  0.75000  0.30800  1.0000
  Ba  Ba3       1.0  0.41600  0.25000  0.69200  1.0000
  Ba  Ba4       1.0  0.92500  0.75000  0.70900  1.0000
  C   C1        1.0  0.42800  0.25000  0.17400  1.0000
  C   C2        1.0  0.87100  0.75000  0.20500  1.0000
  C   C3        1.0  0.27400  0.75000  0.48800  1.0000
  C   C4        1.0  0.72600  0.25000  0.51200  1.0000
  C   C5        1.0  0.12900  0.25000  0.79500  1.0000
  C   C6        1.0  0.57200  0.75000  0.82600  1.0000
  Ce  Ce1       1.0  0.23800  0.75000  0.01240  1.0000
  Ce  Ce2       1.0  0.76200  0.25000  0.98800  1.0000
  F   F1        1.0  0.06950  0.75000  0.09300  1.0000
  F   F2        1.0  0.93000  0.25000  0.90700  1.0000
  O   O1        1.0  0.81600  0.75000  0.00822  1.0000
  O   O2        1.0  0.39900  0.02940  0.07610  1.0000
  O   O3        1.0  0.39900  0.47100  0.07610  1.0000
  O   O4        1.0  0.89600  0.52800  0.30000  1.0000
  O   O5        1.0  0.89600  0.97200  0.30000  1.0000
  O   O6        1.0  0.70100  0.25000  0.31000  1.0000
  O   O7        1.0  0.49300  0.25000  0.35900  1.0000
  O   O8        1.0  0.26300  0.53100  0.38300  1.0000
  O   O9        1.0  0.26300  0.96900  0.38300  1.0000
  O   O10       1.0  0.73700  0.03130  0.61700  1.0000
  O   O11       1.0  0.73700  0.46900  0.61700  1.0000
  O   O12       1.0  0.50700  0.75000  0.64100  1.0000
  O   O13       1.0  0.29900  0.75000  0.69000  1.0000
  O   O14       1.0  0.10400  0.02780  0.70000  1.0000
  O   O15       1.0  0.10400  0.47200  0.70000  1.0000
  O   O16       1.0  0.60100  0.52900  0.92400  1.0000
  O   O17       1.0  0.60100  0.97100  0.92400  1.0000
  O   O18       1.0  0.18400  0.25000  0.99200  1.0000
