data_image0
_chemical_formula_structural       Ba10Cl12O8Si2
_chemical_formula_sum              "Ba10 Cl12 O8 Si2"
_cell_length_a       8.81331
_cell_length_b       8.81331
_cell_length_c       11.7903
_cell_angle_alpha    97.7517
_cell_angle_beta     97.7517
_cell_angle_gamma    114.66

_space_group_name_H-M_alt    "P 1"
_space_group_IT_number       1

loop_
  _space_group_symop_operation_xyz
  'x, y, z'

loop_
  _atom_site_type_symbol
  _atom_site_label
  _atom_site_symmetry_multiplicity
  _atom_site_fract_x
  _atom_site_fract_y
  _atom_site_fract_z
  _atom_site_occupancy
  Ba  Ba1       1.0  0.57400  0.31700  0.02050  1.0000
  Ba  Ba2       1.0  0.07490  0.23000  0.13300  1.0000
  Ba  Ba3       1.0  0.20100  0.79900  0.25000  1.0000
  Ba  Ba4       1.0  0.77000  0.92500  0.36700  1.0000
  Ba  Ba5       1.0  0.68300  0.42600  0.48000  1.0000
  Ba  Ba6       1.0  0.31700  0.57400  0.52000  1.0000
  Ba  Ba7       1.0  0.23000  0.07490  0.63300  1.0000
  Ba  Ba8       1.0  0.79900  0.20100  0.75000  1.0000
  Ba  Ba9       1.0  0.92500  0.77000  0.86700  1.0000
  Ba  Ba10      1.0  0.42600  0.68300  0.98000  1.0000
  Cl  Cl1       1.0  0.00000  0.50000  0.00000  1.0000
  Cl  Cl2       1.0  0.28100  0.98200  0.04920  1.0000
  Cl  Cl3       1.0  0.85400  0.79600  0.13300  1.0000
  Cl  Cl4       1.0  0.75800  0.24200  0.25000  1.0000
  Cl  Cl5       1.0  0.20400  0.14600  0.36700  1.0000
  Cl  Cl6       1.0  0.01810  0.71900  0.45100  1.0000
  Cl  Cl7       1.0  0.50000  0.00000  0.50000  1.0000
  Cl  Cl8       1.0  0.98200  0.28100  0.54900  1.0000
  Cl  Cl9       1.0  0.79600  0.85400  0.63300  1.0000
  Cl  Cl10      1.0  0.24200  0.75800  0.75000  1.0000
  Cl  Cl11      1.0  0.14600  0.20400  0.86700  1.0000
  Cl  Cl12      1.0  0.71900  0.01810  0.95100  1.0000
  O   O1        1.0  0.40200  0.44100  0.13200  1.0000
  O   O2        1.0  0.47800  0.76600  0.21400  1.0000
  O   O3        1.0  0.23400  0.52200  0.28600  1.0000
  O   O4        1.0  0.55900  0.59800  0.36800  1.0000
  O   O5        1.0  0.44100  0.40200  0.63200  1.0000
  O   O6        1.0  0.76600  0.47800  0.71400  1.0000
  O   O7        1.0  0.52200  0.23400  0.78600  1.0000
  O   O8        1.0  0.59800  0.55900  0.86800  1.0000
  Si  Si1       1.0  0.42200  0.57800  0.25000  1.0000
  Si  Si2       1.0  0.57800  0.42200  0.75000  1.0000
