data_image0
_chemical_formula_structural       B4C4Cl8N4Sr12
_chemical_formula_sum              "B4 C4 Cl8 N4 Sr12"
_cell_length_a       14.6443
_cell_length_b       4.07426
_cell_length_c       11.7085
_cell_angle_alpha    90
_cell_angle_beta     89.9975
_cell_angle_gamma    90

_space_group_name_H-M_alt    "P 1"
_space_group_IT_number       1

loop_
  _space_group_symop_operation_xyz
  'x, y, z'

loop_
  _atom_site_type_symbol
  _atom_site_label
  _atom_site_symmetry_multiplicity
  _atom_site_fract_x
  _atom_site_fract_y
  _atom_site_fract_z
  _atom_site_occupancy
  B   B1        1.0  0.75500  0.75000  0.11200  1.0000
  B   B2        1.0  0.25500  0.75000  0.38800  1.0000
  B   B3        1.0  0.74500  0.25000  0.61200  1.0000
  B   B4        1.0  0.24500  0.25000  0.88800  1.0000
  C   C1        1.0  0.78400  0.75000  0.23000  1.0000
  C   C2        1.0  0.28400  0.75000  0.27000  1.0000
  C   C3        1.0  0.71600  0.25000  0.73000  1.0000
  C   C4        1.0  0.21600  0.25000  0.77000  1.0000
  Cl  Cl1       1.0  0.04240  0.75000  0.10700  1.0000
  Cl  Cl2       1.0  0.50200  0.25000  0.14000  1.0000
  Cl  Cl3       1.0  0.00161  0.25000  0.36000  1.0000
  Cl  Cl4       1.0  0.54200  0.75000  0.39300  1.0000
  Cl  Cl5       1.0  0.45800  0.25000  0.60700  1.0000
  Cl  Cl6       1.0  0.99800  0.75000  0.64000  1.0000
  Cl  Cl7       1.0  0.49800  0.75000  0.86000  1.0000
  Cl  Cl8       1.0  0.95800  0.25000  0.89300  1.0000
  N   N1        1.0  0.25700  0.25000  0.00378  1.0000
  N   N2        1.0  0.75700  0.25000  0.49600  1.0000
  N   N3        1.0  0.24300  0.75000  0.50400  1.0000
  N   N4        1.0  0.74300  0.75000  0.99600  1.0000
  Sr  Sr1       1.0  0.35700  0.75000  0.06010  1.0000
  Sr  Sr2       1.0  0.88700  0.25000  0.13400  1.0000
  Sr  Sr3       1.0  0.17500  0.25000  0.19500  1.0000
  Sr  Sr4       1.0  0.67500  0.25000  0.30500  1.0000
  Sr  Sr5       1.0  0.38700  0.25000  0.36600  1.0000
  Sr  Sr6       1.0  0.85700  0.75000  0.44000  1.0000
  Sr  Sr7       1.0  0.14300  0.25000  0.56000  1.0000
  Sr  Sr8       1.0  0.61300  0.75000  0.63400  1.0000
  Sr  Sr9       1.0  0.32500  0.75000  0.69500  1.0000
  Sr  Sr10      1.0  0.82500  0.75000  0.80500  1.0000
  Sr  Sr11      1.0  0.11300  0.75000  0.86600  1.0000
  Sr  Sr12      1.0  0.64300  0.25000  0.94000  1.0000
