data_image0
_chemical_formula_structural       Fe4K12O16
_chemical_formula_sum              "Fe4 K12 O16"
_cell_length_a       7.61909
_cell_length_b       9.01599
_cell_length_c       7.74813
_cell_angle_alpha    90
_cell_angle_beta     90
_cell_angle_gamma    90

_space_group_name_H-M_alt    "P 1"
_space_group_IT_number       1

loop_
  _space_group_symop_operation_xyz
  'x, y, z'

loop_
  _atom_site_type_symbol
  _atom_site_label
  _atom_site_symmetry_multiplicity
  _atom_site_fract_x
  _atom_site_fract_y
  _atom_site_fract_z
  _atom_site_occupancy
  Fe  Fe1       1.0  0.27300  0.25000  0.00710  1.0000
  Fe  Fe2       1.0  0.77300  0.25000  0.49300  1.0000
  Fe  Fe3       1.0  0.22700  0.75000  0.50700  1.0000
  Fe  Fe4       1.0  0.72700  0.75000  0.99300  1.0000
  K   K1        1.0  0.17000  0.75000  0.06200  1.0000
  K   K2        1.0  0.53600  0.03640  0.21900  1.0000
  K   K3        1.0  0.53600  0.46400  0.21900  1.0000
  K   K4        1.0  0.03640  0.03640  0.28100  1.0000
  K   K5        1.0  0.03640  0.46400  0.28100  1.0000
  K   K6        1.0  0.67000  0.75000  0.43800  1.0000
  K   K7        1.0  0.33000  0.25000  0.56200  1.0000
  K   K8        1.0  0.96400  0.53600  0.71900  1.0000
  K   K9        1.0  0.96400  0.96400  0.71900  1.0000
  K   K10       1.0  0.46400  0.53600  0.78100  1.0000
  K   K11       1.0  0.46400  0.96400  0.78100  1.0000
  K   K12       1.0  0.83000  0.25000  0.93800  1.0000
  O   O1        1.0  0.81800  0.57800  0.04390  1.0000
  O   O2        1.0  0.81800  0.92200  0.04390  1.0000
  O   O3        1.0  0.52000  0.75000  0.07890  1.0000
  O   O4        1.0  0.28500  0.25000  0.22700  1.0000
  O   O5        1.0  0.78500  0.25000  0.27300  1.0000
  O   O6        1.0  0.01990  0.75000  0.42100  1.0000
  O   O7        1.0  0.31800  0.57800  0.45600  1.0000
  O   O8        1.0  0.31800  0.92200  0.45600  1.0000
  O   O9        1.0  0.68200  0.07820  0.54400  1.0000
  O   O10       1.0  0.68200  0.42200  0.54400  1.0000
  O   O11       1.0  0.98000  0.25000  0.57900  1.0000
  O   O12       1.0  0.21500  0.75000  0.72700  1.0000
  O   O13       1.0  0.71500  0.75000  0.77300  1.0000
  O   O14       1.0  0.48000  0.25000  0.92100  1.0000
  O   O15       1.0  0.18200  0.07820  0.95600  1.0000
  O   O16       1.0  0.18200  0.42200  0.95600  1.0000
