data_image0
_chemical_formula_structural       H8K4N4O12Se4
_chemical_formula_sum              "H8 K4 N4 O12 Se4"
_cell_length_a       7.90885
_cell_length_b       7.21665
_cell_length_c       7.44322
_cell_angle_alpha    90
_cell_angle_beta     96.9214
_cell_angle_gamma    90

_space_group_name_H-M_alt    "P 1"
_space_group_IT_number       1

loop_
  _space_group_symop_operation_xyz
  'x, y, z'

loop_
  _atom_site_type_symbol
  _atom_site_label
  _atom_site_symmetry_multiplicity
  _atom_site_fract_x
  _atom_site_fract_y
  _atom_site_fract_z
  _atom_site_occupancy
  H   H1        1.0  0.96300  0.18100  0.11200  1.0000
  H   H2        1.0  0.09560  0.34300  0.22200  1.0000
  H   H3        1.0  0.90400  0.84300  0.27800  1.0000
  H   H4        1.0  0.03670  0.68100  0.38800  1.0000
  H   H5        1.0  0.96300  0.31900  0.61200  1.0000
  H   H6        1.0  0.09560  0.15700  0.72200  1.0000
  H   H7        1.0  0.90400  0.65700  0.77800  1.0000
  H   H8        1.0  0.03670  0.81900  0.88800  1.0000
  K   K1        1.0  0.34900  0.62300  0.11400  1.0000
  K   K2        1.0  0.65100  0.12300  0.38600  1.0000
  K   K3        1.0  0.34900  0.87700  0.61400  1.0000
  K   K4        1.0  0.65100  0.37700  0.88600  1.0000
  N   N1        1.0  0.06830  0.26600  0.10400  1.0000
  N   N2        1.0  0.93200  0.76600  0.39600  1.0000
  N   N3        1.0  0.06830  0.23400  0.60400  1.0000
  N   N4        1.0  0.93200  0.73400  0.89600  1.0000
  O   O1        1.0  0.41600  0.24300  0.09630  1.0000
  O   O2        1.0  0.80300  0.00144  0.10300  1.0000
  O   O3        1.0  0.73200  0.45500  0.24000  1.0000
  O   O4        1.0  0.26800  0.95500  0.26000  1.0000
  O   O5        1.0  0.19700  0.50100  0.39700  1.0000
  O   O6        1.0  0.58400  0.74300  0.40400  1.0000
  O   O7        1.0  0.41600  0.25700  0.59600  1.0000
  O   O8        1.0  0.80300  0.49900  0.60300  1.0000
  O   O9        1.0  0.73200  0.04510  0.74000  1.0000
  O   O10       1.0  0.26800  0.54500  0.76000  1.0000
  O   O11       1.0  0.19700  0.99900  0.89700  1.0000
  O   O12       1.0  0.58400  0.75700  0.90400  1.0000
  Se  Se1       1.0  0.24600  0.10900  0.09400  1.0000
  Se  Se2       1.0  0.75400  0.60900  0.40600  1.0000
  Se  Se3       1.0  0.24600  0.39100  0.59400  1.0000
  Se  Se4       1.0  0.75400  0.89100  0.90600  1.0000
