data_image0
_chemical_formula_structural       Ba10Br12O8Si2
_chemical_formula_sum              "Ba10 Br12 O8 Si2"
_cell_length_a       9.10993
_cell_length_b       9.10993
_cell_length_c       12.1258
_cell_angle_alpha    98.0265
_cell_angle_beta     98.0265
_cell_angle_gamma    114.589

_space_group_name_H-M_alt    "P 1"
_space_group_IT_number       1

loop_
  _space_group_symop_operation_xyz
  'x, y, z'

loop_
  _atom_site_type_symbol
  _atom_site_label
  _atom_site_symmetry_multiplicity
  _atom_site_fract_x
  _atom_site_fract_y
  _atom_site_fract_z
  _atom_site_occupancy
  Ba  Ba1       1.0  0.32400  0.56900  0.01690  1.0000
  Ba  Ba2       1.0  0.23800  0.08450  0.13500  1.0000
  Ba  Ba3       1.0  0.79100  0.20900  0.25000  1.0000
  Ba  Ba4       1.0  0.91600  0.76200  0.36500  1.0000
  Ba  Ba5       1.0  0.43100  0.67600  0.48300  1.0000
  Ba  Ba6       1.0  0.56900  0.32400  0.51700  1.0000
  Ba  Ba7       1.0  0.08450  0.23800  0.63500  1.0000
  Ba  Ba8       1.0  0.20900  0.79100  0.75000  1.0000
  Ba  Ba9       1.0  0.76200  0.91600  0.86500  1.0000
  Ba  Ba10      1.0  0.67600  0.43100  0.98300  1.0000
  Br  Br1       1.0  0.50000  0.00000  0.00000  1.0000
  Br  Br2       1.0  0.98200  0.28200  0.04920  1.0000
  Br  Br3       1.0  0.78200  0.84700  0.13300  1.0000
  Br  Br4       1.0  0.24400  0.75600  0.25000  1.0000
  Br  Br5       1.0  0.15300  0.21800  0.36700  1.0000
  Br  Br6       1.0  0.71800  0.01800  0.45100  1.0000
  Br  Br7       1.0  0.00000  0.50000  0.50000  1.0000
  Br  Br8       1.0  0.28200  0.98200  0.54900  1.0000
  Br  Br9       1.0  0.84700  0.78200  0.63300  1.0000
  Br  Br10      1.0  0.75600  0.24400  0.75000  1.0000
  Br  Br11      1.0  0.21800  0.15300  0.86700  1.0000
  Br  Br12      1.0  0.01800  0.71800  0.95100  1.0000
  O   O1        1.0  0.44300  0.40300  0.13400  1.0000
  O   O2        1.0  0.75800  0.47700  0.21500  1.0000
  O   O3        1.0  0.52300  0.24200  0.28500  1.0000
  O   O4        1.0  0.59700  0.55700  0.36600  1.0000
  O   O5        1.0  0.40300  0.44300  0.63400  1.0000
  O   O6        1.0  0.47700  0.75800  0.71500  1.0000
  O   O7        1.0  0.24200  0.52300  0.78500  1.0000
  O   O8        1.0  0.55700  0.59700  0.86600  1.0000
  Si  Si1       1.0  0.57500  0.42500  0.25000  1.0000
  Si  Si2       1.0  0.42500  0.57500  0.75000  1.0000
