data_image0
_chemical_formula_structural       Cs4O18V8
_chemical_formula_sum              "Cs4 O18 V8"
_cell_length_a       5.75388
_cell_length_b       5.75388
_cell_length_c       14.9345
_cell_angle_alpha    90
_cell_angle_beta     90
_cell_angle_gamma    90

_space_group_name_H-M_alt    "P 1"
_space_group_IT_number       1

loop_
  _space_group_symop_operation_xyz
  'x, y, z'

loop_
  _atom_site_type_symbol
  _atom_site_label
  _atom_site_symmetry_multiplicity
  _atom_site_fract_x
  _atom_site_fract_y
  _atom_site_fract_z
  _atom_site_occupancy
  Cs  Cs1       1.0  0.74700  0.27400  0.00000  1.0000
  Cs  Cs2       1.0  0.25300  0.72600  0.00000  1.0000
  Cs  Cs3       1.0  0.27400  0.25300  0.50000  1.0000
  Cs  Cs4       1.0  0.72600  0.74700  0.50000  1.0000
  O   O1        1.0  0.23000  0.22700  0.09570  1.0000
  O   O2        1.0  0.77000  0.77300  0.09570  1.0000
  O   O3        1.0  0.62200  0.18400  0.21200  1.0000
  O   O4        1.0  0.37800  0.81600  0.21200  1.0000
  O   O5        1.0  0.00000  0.00000  0.25000  1.0000
  O   O6        1.0  0.18400  0.37800  0.28800  1.0000
  O   O7        1.0  0.81600  0.62200  0.28800  1.0000
  O   O8        1.0  0.77300  0.23000  0.40400  1.0000
  O   O9        1.0  0.22700  0.77000  0.40400  1.0000
  O   O10       1.0  0.77300  0.23000  0.59600  1.0000
  O   O11       1.0  0.22700  0.77000  0.59600  1.0000
  O   O12       1.0  0.18400  0.37800  0.71200  1.0000
  O   O13       1.0  0.81600  0.62200  0.71200  1.0000
  O   O14       1.0  0.00000  0.00000  0.75000  1.0000
  O   O15       1.0  0.62200  0.18400  0.78800  1.0000
  O   O16       1.0  0.37800  0.81600  0.78800  1.0000
  O   O17       1.0  0.23000  0.22700  0.90400  1.0000
  O   O18       1.0  0.77000  0.77300  0.90400  1.0000
  V   V1        1.0  0.28800  0.14800  0.20100  1.0000
  V   V2        1.0  0.71200  0.85200  0.20100  1.0000
  V   V3        1.0  0.85200  0.28800  0.29900  1.0000
  V   V4        1.0  0.14800  0.71200  0.29900  1.0000
  V   V5        1.0  0.85200  0.28800  0.70100  1.0000
  V   V6        1.0  0.14800  0.71200  0.70100  1.0000
  V   V7        1.0  0.28800  0.14800  0.79900  1.0000
  V   V8        1.0  0.71200  0.85200  0.79900  1.0000
