data_image0
_chemical_formula_structural       H8Na4O16Se4
_chemical_formula_sum              "H8 Na4 O16 Se4"
_cell_length_a       6.42207
_cell_length_b       6.42207
_cell_length_c       9.45535
_cell_angle_alpha    90
_cell_angle_beta     90
_cell_angle_gamma    117.272

_space_group_name_H-M_alt    "P 1"
_space_group_IT_number       1

loop_
  _space_group_symop_operation_xyz
  'x, y, z'

loop_
  _atom_site_type_symbol
  _atom_site_label
  _atom_site_symmetry_multiplicity
  _atom_site_fract_x
  _atom_site_fract_y
  _atom_site_fract_z
  _atom_site_occupancy
  H   H1        1.0  0.17900  0.35100  0.04920  1.0000
  H   H2        1.0  0.64900  0.82100  0.04920  1.0000
  H   H3        1.0  0.31600  0.68400  0.29200  1.0000
  H   H4        1.0  0.17900  0.82100  0.32100  1.0000
  H   H5        1.0  0.35100  0.17900  0.54900  1.0000
  H   H6        1.0  0.82100  0.64900  0.54900  1.0000
  H   H7        1.0  0.68400  0.31600  0.79200  1.0000
  H   H8        1.0  0.82100  0.17900  0.82100  1.0000
  Na  Na1       1.0  0.40900  0.06730  0.07270  1.0000
  Na  Na2       1.0  0.93300  0.59100  0.07270  1.0000
  Na  Na3       1.0  0.06730  0.40900  0.57300  1.0000
  Na  Na4       1.0  0.59100  0.93300  0.57300  1.0000
  O   O1        1.0  0.76500  0.23500  0.19000  1.0000
  O   O2        1.0  0.18500  0.22700  0.19100  1.0000
  O   O3        1.0  0.77300  0.81500  0.19100  1.0000
  O   O4        1.0  0.23700  0.76300  0.24300  1.0000
  O   O5        1.0  0.91100  0.08850  0.42600  1.0000
  O   O6        1.0  0.42400  0.57600  0.44400  1.0000
  O   O7        1.0  0.43300  0.16200  0.46000  1.0000
  O   O8        1.0  0.83800  0.56700  0.46000  1.0000
  O   O9        1.0  0.23500  0.76500  0.69000  1.0000
  O   O10       1.0  0.22700  0.18500  0.69100  1.0000
  O   O11       1.0  0.81500  0.77300  0.69100  1.0000
  O   O12       1.0  0.76300  0.23700  0.74300  1.0000
  O   O13       1.0  0.08850  0.91100  0.92600  1.0000
  O   O14       1.0  0.57600  0.42400  0.94400  1.0000
  O   O15       1.0  0.16200  0.43300  0.96000  1.0000
  O   O16       1.0  0.56700  0.83800  0.96000  1.0000
  Se  Se1       1.0  0.90700  0.09270  0.25200  1.0000
  Se  Se2       1.0  0.56200  0.43800  0.36900  1.0000
  Se  Se3       1.0  0.09270  0.90700  0.75200  1.0000
  Se  Se4       1.0  0.43800  0.56200  0.86900  1.0000
