data_image0
_chemical_formula_structural       K16O12Zn4
_chemical_formula_sum              "K16 O12 Zn4"
_cell_length_a       10.9971
_cell_length_b       8.79131
_cell_length_c       6.94887
_cell_angle_alpha    109.646
_cell_angle_beta     89.3699
_cell_angle_gamma    102.497

_space_group_name_H-M_alt    "P 1"
_space_group_IT_number       1

loop_
  _space_group_symop_operation_xyz
  'x, y, z'

loop_
  _atom_site_type_symbol
  _atom_site_label
  _atom_site_symmetry_multiplicity
  _atom_site_fract_x
  _atom_site_fract_y
  _atom_site_fract_z
  _atom_site_occupancy
  K   K1        1.0  0.29600  0.55600  0.01960  1.0000
  K   K2        1.0  0.79500  0.86700  0.11100  1.0000
  K   K3        1.0  0.62100  0.12400  0.15900  1.0000
  K   K4        1.0  0.01370  0.65500  0.22200  1.0000
  K   K5        1.0  0.41600  0.35400  0.31000  1.0000
  K   K6        1.0  0.11600  0.08510  0.36500  1.0000
  K   K7        1.0  0.33300  0.91200  0.38100  1.0000
  K   K8        1.0  0.80100  0.46700  0.49300  1.0000
  K   K9        1.0  0.19900  0.53300  0.50700  1.0000
  K   K10       1.0  0.66700  0.08790  0.61900  1.0000
  K   K11       1.0  0.88400  0.91500  0.63500  1.0000
  K   K12       1.0  0.58400  0.64600  0.69000  1.0000
  K   K13       1.0  0.98600  0.34500  0.77800  1.0000
  K   K14       1.0  0.37900  0.87600  0.84100  1.0000
  K   K15       1.0  0.20500  0.13300  0.88900  1.0000
  K   K16       1.0  0.70400  0.44400  0.98000  1.0000
  O   O1        1.0  0.18400  0.83100  0.05810  1.0000
  O   O2        1.0  0.53400  0.80200  0.07270  1.0000
  O   O3        1.0  0.09970  0.36200  0.14200  1.0000
  O   O4        1.0  0.71800  0.68900  0.36200  1.0000
  O   O5        1.0  0.89200  0.16100  0.39600  1.0000
  O   O6        1.0  0.41900  0.68100  0.44400  1.0000
  O   O7        1.0  0.58100  0.31900  0.55600  1.0000
  O   O8        1.0  0.10800  0.83900  0.60400  1.0000
  O   O9        1.0  0.28200  0.31100  0.63800  1.0000
  O   O10       1.0  0.90000  0.63800  0.85800  1.0000
  O   O11       1.0  0.46600  0.19800  0.92700  1.0000
  O   O12       1.0  0.81600  0.16900  0.94200  1.0000
  Zn  Zn1       1.0  0.94000  0.23200  0.16500  1.0000
  Zn  Zn2       1.0  0.56000  0.72000  0.28700  1.0000
  Zn  Zn3       1.0  0.44000  0.28000  0.71300  1.0000
  Zn  Zn4       1.0  0.06030  0.76800  0.83500  1.0000
