data_image0
_chemical_formula_structural       Ba4Ge8S20
_chemical_formula_sum              "Ba4 Ge8 S20"
_cell_length_a       10.7178
_cell_length_b       10.7178
_cell_length_c       10.7178
_cell_angle_alpha    120
_cell_angle_beta     90
_cell_angle_gamma    120

_space_group_name_H-M_alt    "P 1"
_space_group_IT_number       1

loop_
  _space_group_symop_operation_xyz
  'x, y, z'

loop_
  _atom_site_type_symbol
  _atom_site_label
  _atom_site_symmetry_multiplicity
  _atom_site_fract_x
  _atom_site_fract_y
  _atom_site_fract_z
  _atom_site_occupancy
  Ba  Ba1       1.0  0.00000  0.50000  0.00000  1.0000
  Ba  Ba2       1.0  0.00000  0.00000  0.50000  1.0000
  Ba  Ba3       1.0  0.50000  0.00000  0.50000  1.0000
  Ba  Ba4       1.0  0.00000  0.50000  0.50000  1.0000
  Ge  Ge1       1.0  0.70800  0.91700  0.12500  1.0000
  Ge  Ge2       1.0  0.29200  0.41700  0.20800  1.0000
  Ge  Ge3       1.0  0.62500  0.41700  0.20800  1.0000
  Ge  Ge4       1.0  0.29200  0.08340  0.20800  1.0000
  Ge  Ge5       1.0  0.37500  0.58300  0.79200  1.0000
  Ge  Ge6       1.0  0.70800  0.58300  0.79200  1.0000
  Ge  Ge7       1.0  0.70800  0.91700  0.79200  1.0000
  Ge  Ge8       1.0  0.29200  0.08340  0.87500  1.0000
  S   S1        1.0  0.45100  0.75000  0.04890  1.0000
  S   S2        1.0  0.79900  0.75000  0.04890  1.0000
  S   S3        1.0  0.79900  0.09780  0.04890  1.0000
  S   S4        1.0  0.20900  0.58200  0.29100  1.0000
  S   S5        1.0  0.87300  0.58200  0.29100  1.0000
  S   S6        1.0  0.20900  0.91800  0.29100  1.0000
  S   S7        1.0  0.54900  0.25000  0.29900  1.0000
  S   S8        1.0  0.54900  0.59800  0.29900  1.0000
  S   S9        1.0  0.20100  0.25000  0.29900  1.0000
  S   S10       1.0  0.79100  0.08230  0.37300  1.0000
  S   S11       1.0  0.20900  0.91800  0.62700  1.0000
  S   S12       1.0  0.45100  0.40200  0.70100  1.0000
  S   S13       1.0  0.45100  0.75000  0.70100  1.0000
  S   S14       1.0  0.79900  0.75000  0.70100  1.0000
  S   S15       1.0  0.79100  0.08230  0.70900  1.0000
  S   S16       1.0  0.12700  0.41800  0.70900  1.0000
  S   S17       1.0  0.79100  0.41800  0.70900  1.0000
  S   S18       1.0  0.54900  0.25000  0.95100  1.0000
  S   S19       1.0  0.20100  0.25000  0.95100  1.0000
  S   S20       1.0  0.20100  0.90200  0.95100  1.0000
