data_image0
_chemical_formula_structural       Ca4O20Si8
_chemical_formula_sum              "Ca4 O20 Si8"
_cell_length_a       7.24178
_cell_length_b       7.53449
_cell_length_c       6.44987
_cell_angle_alpha    82.2187
_cell_angle_beta     84.7137
_cell_angle_gamma    69.5452

_space_group_name_H-M_alt    "P 1"
_space_group_IT_number       1

loop_
  _space_group_symop_operation_xyz
  'x, y, z'

loop_
  _atom_site_type_symbol
  _atom_site_label
  _atom_site_symmetry_multiplicity
  _atom_site_fract_x
  _atom_site_fract_y
  _atom_site_fract_z
  _atom_site_occupancy
  Ca  Ca1       1.0  0.53800  0.68300  0.17700  1.0000
  Ca  Ca2       1.0  0.97100  0.78800  0.38200  1.0000
  Ca  Ca3       1.0  0.02870  0.21200  0.61800  1.0000
  Ca  Ca4       1.0  0.46200  0.31700  0.82300  1.0000
  O   O1        1.0  0.21900  0.87400  0.02330  1.0000
  O   O2        1.0  0.84300  0.74500  0.05340  1.0000
  O   O3        1.0  0.80900  0.42300  0.11600  1.0000
  O   O4        1.0  0.50100  0.36800  0.17500  1.0000
  O   O5        1.0  0.40300  0.01650  0.24100  1.0000
  O   O6        1.0  0.09880  0.46300  0.25500  1.0000
  O   O7        1.0  0.00445  0.10300  0.28900  1.0000
  O   O8        1.0  0.69600  0.06530  0.38300  1.0000
  O   O9        1.0  0.30000  0.61800  0.43900  1.0000
  O   O10       1.0  0.65400  0.75700  0.46900  1.0000
  O   O11       1.0  0.34600  0.24300  0.53100  1.0000
  O   O12       1.0  0.70000  0.38200  0.56100  1.0000
  O   O13       1.0  0.30400  0.93500  0.61700  1.0000
  O   O14       1.0  0.99600  0.89700  0.71100  1.0000
  O   O15       1.0  0.90100  0.53700  0.74500  1.0000
  O   O16       1.0  0.59700  0.98400  0.75900  1.0000
  O   O17       1.0  0.49900  0.63200  0.82500  1.0000
  O   O18       1.0  0.19100  0.57700  0.88400  1.0000
  O   O19       1.0  0.15700  0.25500  0.94700  1.0000
  O   O20       1.0  0.78100  0.12600  0.97700  1.0000
  Si  Si1       1.0  0.00000  0.50000  0.00000  1.0000
  Si  Si2       1.0  0.19800  0.07030  0.12500  1.0000
  Si  Si3       1.0  0.75400  0.22500  0.20700  1.0000
  Si  Si4       1.0  0.31500  0.42400  0.34800  1.0000
  Si  Si5       1.0  0.50000  0.00000  0.50000  1.0000
  Si  Si6       1.0  0.68500  0.57600  0.65200  1.0000
  Si  Si7       1.0  0.24600  0.77500  0.79300  1.0000
  Si  Si8       1.0  0.80200  0.93000  0.87500  1.0000
