data_image0
_chemical_formula_structural       Fe4Ni4O20P4
_chemical_formula_sum              "Fe4 Ni4 O20 P4"
_cell_length_a       7.18331
_cell_length_b       6.38902
_cell_length_c       7.44901
_cell_angle_alpha    90
_cell_angle_beta     90
_cell_angle_gamma    90

_space_group_name_H-M_alt    "P 1"
_space_group_IT_number       1

loop_
  _space_group_symop_operation_xyz
  'x, y, z'

loop_
  _atom_site_type_symbol
  _atom_site_label
  _atom_site_symmetry_multiplicity
  _atom_site_fract_x
  _atom_site_fract_y
  _atom_site_fract_z
  _atom_site_occupancy
  Fe  Fe1       1.0  0.35800  0.75000  0.21100  1.0000
  Fe  Fe2       1.0  0.85800  0.75000  0.28900  1.0000
  Fe  Fe3       1.0  0.14200  0.25000  0.71100  1.0000
  Fe  Fe4       1.0  0.64200  0.25000  0.78900  1.0000
  Ni  Ni1       1.0  0.00000  0.00000  0.00000  1.0000
  Ni  Ni2       1.0  0.00000  0.50000  0.00000  1.0000
  Ni  Ni3       1.0  0.50000  0.00000  0.50000  1.0000
  Ni  Ni4       1.0  0.50000  0.50000  0.50000  1.0000
  O   O1        1.0  0.19300  0.25000  0.02350  1.0000
  O   O2        1.0  0.54600  0.25000  0.02670  1.0000
  O   O3        1.0  0.10200  0.75000  0.14400  1.0000
  O   O4        1.0  0.86600  0.05650  0.23400  1.0000
  O   O5        1.0  0.86600  0.44400  0.23400  1.0000
  O   O6        1.0  0.36600  0.05650  0.26600  1.0000
  O   O7        1.0  0.36600  0.44400  0.26600  1.0000
  O   O8        1.0  0.60200  0.75000  0.35600  1.0000
  O   O9        1.0  0.04650  0.25000  0.47300  1.0000
  O   O10       1.0  0.69300  0.25000  0.47600  1.0000
  O   O11       1.0  0.30700  0.75000  0.52400  1.0000
  O   O12       1.0  0.95400  0.75000  0.52700  1.0000
  O   O13       1.0  0.39800  0.25000  0.64400  1.0000
  O   O14       1.0  0.63400  0.55600  0.73400  1.0000
  O   O15       1.0  0.63400  0.94400  0.73400  1.0000
  O   O16       1.0  0.13400  0.55600  0.76600  1.0000
  O   O17       1.0  0.13400  0.94400  0.76600  1.0000
  O   O18       1.0  0.89800  0.25000  0.85600  1.0000
  O   O19       1.0  0.45400  0.75000  0.97300  1.0000
  O   O20       1.0  0.80700  0.75000  0.97700  1.0000
  P   P1        1.0  0.37100  0.25000  0.14200  1.0000
  P   P2        1.0  0.87100  0.25000  0.35800  1.0000
  P   P3        1.0  0.12900  0.75000  0.64200  1.0000
  P   P4        1.0  0.62900  0.75000  0.85800  1.0000
