data_image0
_chemical_formula_structural       Bi6O20P4Sr
_chemical_formula_sum              "Bi6 O20 P4 Sr1"
_cell_length_a       6.94604
_cell_length_b       7.56835
_cell_length_c       9.13499
_cell_angle_alpha    107.074
_cell_angle_beta     93.6757
_cell_angle_gamma    112.1

_space_group_name_H-M_alt    "P 1"
_space_group_IT_number       1

loop_
  _space_group_symop_operation_xyz
  'x, y, z'

loop_
  _atom_site_type_symbol
  _atom_site_label
  _atom_site_symmetry_multiplicity
  _atom_site_fract_x
  _atom_site_fract_y
  _atom_site_fract_z
  _atom_site_occupancy
  Bi  Bi1       1.0  0.43400  0.28600  0.08490  1.0000
  Bi  Bi2       1.0  0.81200  0.80300  0.33000  1.0000
  Bi  Bi3       1.0  0.67000  0.37100  0.49500  1.0000
  Bi  Bi4       1.0  0.33000  0.62900  0.50500  1.0000
  Bi  Bi5       1.0  0.18800  0.19700  0.67000  1.0000
  Bi  Bi6       1.0  0.56600  0.71400  0.91500  1.0000
  O   O1        1.0  0.34900  0.83400  0.08390  1.0000
  O   O2        1.0  0.68300  0.59100  0.09650  1.0000
  O   O3        1.0  0.85400  0.99600  0.16300  1.0000
  O   O4        1.0  0.12700  0.33400  0.16300  1.0000
  O   O5        1.0  0.78300  0.31900  0.24000  1.0000
  O   O6        1.0  0.13200  0.75700  0.28300  1.0000
  O   O7        1.0  0.36400  0.12300  0.31900  1.0000
  O   O8        1.0  0.52700  0.88800  0.35700  1.0000
  O   O9        1.0  0.55400  0.52900  0.36300  1.0000
  O   O10       1.0  0.04070  0.28500  0.42000  1.0000
  O   O11       1.0  0.95900  0.71500  0.58000  1.0000
  O   O12       1.0  0.44600  0.47100  0.63700  1.0000
  O   O13       1.0  0.47300  0.11200  0.64300  1.0000
  O   O14       1.0  0.63600  0.87700  0.68100  1.0000
  O   O15       1.0  0.86800  0.24300  0.71700  1.0000
  O   O16       1.0  0.21700  0.68100  0.76000  1.0000
  O   O17       1.0  0.87300  0.66600  0.83700  1.0000
  O   O18       1.0  0.14600  0.00427  0.83700  1.0000
  O   O19       1.0  0.31700  0.40900  0.90400  1.0000
  O   O20       1.0  0.65100  0.16600  0.91600  1.0000
  P   P1        1.0  0.95100  0.22900  0.24300  1.0000
  P   P2        1.0  0.34500  0.90200  0.26000  1.0000
  P   P3        1.0  0.65500  0.09790  0.74000  1.0000
  P   P4        1.0  0.04890  0.77100  0.75700  1.0000
  Sr  Sr1       1.0  0.00000  0.50000  0.00000  1.0000
