data_image0
_chemical_formula_structural       Gd4Mn8O20
_chemical_formula_sum              "Gd4 Mn8 O20"
_cell_length_a       7.27634
_cell_length_b       8.54118
_cell_length_c       5.73644
_cell_angle_alpha    90
_cell_angle_beta     90
_cell_angle_gamma    90

_space_group_name_H-M_alt    "P 1"
_space_group_IT_number       1

loop_
  _space_group_symop_operation_xyz
  'x, y, z'

loop_
  _atom_site_type_symbol
  _atom_site_label
  _atom_site_symmetry_multiplicity
  _atom_site_fract_x
  _atom_site_fract_y
  _atom_site_fract_z
  _atom_site_occupancy
  Gd  Gd1       1.0  0.13600  0.17100  0.00000  1.0000
  Gd  Gd2       1.0  0.63600  0.32900  0.00000  1.0000
  Gd  Gd3       1.0  0.36400  0.67100  0.00000  1.0000
  Gd  Gd4       1.0  0.86400  0.82900  0.00000  1.0000
  Mn  Mn1       1.0  0.50000  0.00000  0.25400  1.0000
  Mn  Mn2       1.0  0.00000  0.50000  0.25400  1.0000
  Mn  Mn3       1.0  0.91300  0.15200  0.50000  1.0000
  Mn  Mn4       1.0  0.41300  0.34800  0.50000  1.0000
  Mn  Mn5       1.0  0.58700  0.65200  0.50000  1.0000
  Mn  Mn6       1.0  0.08670  0.84800  0.50000  1.0000
  Mn  Mn7       1.0  0.50000  0.00000  0.74600  1.0000
  Mn  Mn8       1.0  0.00000  0.50000  0.74600  1.0000
  O   O1        1.0  0.66500  0.05610  0.00000  1.0000
  O   O2        1.0  0.16500  0.44400  0.00000  1.0000
  O   O3        1.0  0.83500  0.55600  0.00000  1.0000
  O   O4        1.0  0.33500  0.94400  0.00000  1.0000
  O   O5        1.0  0.39400  0.20700  0.24300  1.0000
  O   O6        1.0  0.89400  0.29300  0.24300  1.0000
  O   O7        1.0  0.10600  0.70700  0.24300  1.0000
  O   O8        1.0  0.60600  0.79300  0.24300  1.0000
  O   O9        1.0  0.00000  0.00000  0.27200  1.0000
  O   O10       1.0  0.50000  0.50000  0.27200  1.0000
  O   O11       1.0  0.65300  0.06830  0.50000  1.0000
  O   O12       1.0  0.15300  0.43200  0.50000  1.0000
  O   O13       1.0  0.84700  0.56800  0.50000  1.0000
  O   O14       1.0  0.34700  0.93200  0.50000  1.0000
  O   O15       1.0  0.00000  0.00000  0.72800  1.0000
  O   O16       1.0  0.50000  0.50000  0.72800  1.0000
  O   O17       1.0  0.39400  0.20700  0.75700  1.0000
  O   O18       1.0  0.89400  0.29300  0.75700  1.0000
  O   O19       1.0  0.10600  0.70700  0.75700  1.0000
  O   O20       1.0  0.60600  0.79300  0.75700  1.0000
