data_image0
_chemical_formula_structural       C4Ca2H12O14
_chemical_formula_sum              "C4 Ca2 H12 O14"
_cell_length_a       5.97836
_cell_length_b       6.93264
_cell_length_c       8.26128
_cell_angle_alpha    75.8163
_cell_angle_beta     69.1959
_cell_angle_gamma    69.4863

_space_group_name_H-M_alt    "P 1"
_space_group_IT_number       1

loop_
  _space_group_symop_operation_xyz
  'x, y, z'

loop_
  _atom_site_type_symbol
  _atom_site_label
  _atom_site_symmetry_multiplicity
  _atom_site_fract_x
  _atom_site_fract_y
  _atom_site_fract_z
  _atom_site_occupancy
  C   C1        1.0  0.08180  0.42500  0.05600  1.0000
  C   C2        1.0  0.43800  0.60300  0.44900  1.0000
  C   C3        1.0  0.56200  0.39700  0.55100  1.0000
  C   C4        1.0  0.91800  0.57500  0.94400  1.0000
  Ca  Ca1       1.0  0.59600  0.26200  0.19200  1.0000
  Ca  Ca2       1.0  0.40400  0.73800  0.80800  1.0000
  H   H1        1.0  0.23100  0.02650  0.08690  1.0000
  H   H2        1.0  0.34700  0.78600  0.16500  1.0000
  H   H3        1.0  0.97300  0.86500  0.18500  1.0000
  H   H4        1.0  0.12400  0.19000  0.32500  1.0000
  H   H5        1.0  0.80400  0.84600  0.38100  1.0000
  H   H6        1.0  0.28600  0.99400  0.42500  1.0000
  H   H7        1.0  0.71400  0.00637  0.57500  1.0000
  H   H8        1.0  0.19600  0.15400  0.61900  1.0000
  H   H9        1.0  0.87600  0.81000  0.67500  1.0000
  H   H10       1.0  0.02650  0.13500  0.81500  1.0000
  H   H11       1.0  0.65300  0.21400  0.83500  1.0000
  H   H12       1.0  0.76900  0.97400  0.91300  1.0000
  O   O1        1.0  0.27200  0.46700  0.05260  1.0000
  O   O2        1.0  0.28000  0.88100  0.06820  1.0000
  O   O3        1.0  0.01090  0.26700  0.14500  1.0000
  O   O4        1.0  0.79600  0.89000  0.25900  1.0000
  O   O5        1.0  0.43300  0.59000  0.30100  1.0000
  O   O6        1.0  0.24800  0.14900  0.39000  1.0000
  O   O7        1.0  0.64600  0.23800  0.47600  1.0000
  O   O8        1.0  0.35400  0.76200  0.52400  1.0000
  O   O9        1.0  0.75200  0.85100  0.61000  1.0000
  O   O10       1.0  0.56700  0.41000  0.69900  1.0000
  O   O11       1.0  0.20400  0.11000  0.74100  1.0000
  O   O12       1.0  0.98900  0.73300  0.85500  1.0000
  O   O13       1.0  0.72000  0.11900  0.93200  1.0000
  O   O14       1.0  0.72800  0.53300  0.94700  1.0000
