data_image0
_chemical_formula_structural       C6Ca4K4O18
_chemical_formula_sum              "C6 Ca4 K4 O18"
_cell_length_a       7.99143
_cell_length_b       7.99149
_cell_length_c       7.99116
_cell_angle_alpha    107.932
_cell_angle_beta     107.934
_cell_angle_gamma    107.936

_space_group_name_H-M_alt    "P 1"
_space_group_IT_number       1

loop_
  _space_group_symop_operation_xyz
  'x, y, z'

loop_
  _atom_site_type_symbol
  _atom_site_label
  _atom_site_symmetry_multiplicity
  _atom_site_fract_x
  _atom_site_fract_y
  _atom_site_fract_z
  _atom_site_occupancy
  C   C1        1.0  0.26600  0.93300  0.17800  1.0000
  C   C2        1.0  0.93300  0.17800  0.26600  1.0000
  C   C3        1.0  0.80300  0.61500  0.41800  1.0000
  C   C4        1.0  0.41800  0.80300  0.61500  1.0000
  C   C5        1.0  0.61500  0.41800  0.80300  1.0000
  C   C6        1.0  0.17800  0.26600  0.93300  1.0000
  Ca  Ca1       1.0  0.50500  0.17100  0.02540  1.0000
  Ca  Ca2       1.0  0.02540  0.50500  0.17100  1.0000
  Ca  Ca3       1.0  0.44800  0.44800  0.44800  1.0000
  Ca  Ca4       1.0  0.17100  0.02540  0.50500  1.0000
  K   K1        1.0  0.55600  0.70100  0.09720  1.0000
  K   K2        1.0  0.70100  0.09720  0.55600  1.0000
  K   K3        1.0  0.09720  0.55600  0.70100  1.0000
  K   K4        1.0  0.87100  0.87100  0.87100  1.0000
  O   O1        1.0  0.33700  0.88800  0.05440  1.0000
  O   O2        1.0  0.81100  0.15300  0.09850  1.0000
  O   O3        1.0  0.33200  0.36300  0.10300  1.0000
  O   O4        1.0  0.09850  0.81100  0.15300  1.0000
  O   O5        1.0  0.36300  0.10300  0.33200  1.0000
  O   O6        1.0  0.88800  0.05440  0.33700  1.0000
  O   O7        1.0  0.71800  0.42600  0.35300  1.0000
  O   O8        1.0  0.10300  0.33200  0.36300  1.0000
  O   O9        1.0  0.35300  0.71800  0.42600  1.0000
  O   O10       1.0  0.97700  0.69900  0.42800  1.0000
  O   O11       1.0  0.71800  0.72000  0.47500  1.0000
  O   O12       1.0  0.42800  0.97700  0.69900  1.0000
  O   O13       1.0  0.42600  0.35300  0.71800  1.0000
  O   O14       1.0  0.72000  0.47500  0.71800  1.0000
  O   O15       1.0  0.47500  0.71800  0.72000  1.0000
  O   O16       1.0  0.15300  0.09860  0.81100  1.0000
  O   O17       1.0  0.05440  0.33700  0.88800  1.0000
  O   O18       1.0  0.69900  0.42800  0.97700  1.0000
