data_image0
_chemical_formula_structural       Ba4Cl4Cu4O16P4
_chemical_formula_sum              "Ba4 Cl4 Cu4 O16 P4"
_cell_length_a       7.87451
_cell_length_b       8.66715
_cell_length_c       7.27733
_cell_angle_alpha    90
_cell_angle_beta     90
_cell_angle_gamma    90

_space_group_name_H-M_alt    "P 1"
_space_group_IT_number       1

loop_
  _space_group_symop_operation_xyz
  'x, y, z'

loop_
  _atom_site_type_symbol
  _atom_site_label
  _atom_site_symmetry_multiplicity
  _atom_site_fract_x
  _atom_site_fract_y
  _atom_site_fract_z
  _atom_site_occupancy
  Ba  Ba1       1.0  0.98200  0.79500  0.12500  1.0000
  Ba  Ba2       1.0  0.01820  0.29500  0.37500  1.0000
  Ba  Ba3       1.0  0.51800  0.20500  0.62500  1.0000
  Ba  Ba4       1.0  0.48200  0.70500  0.87500  1.0000
  Cl  Cl1       1.0  0.26400  0.53800  0.17300  1.0000
  Cl  Cl2       1.0  0.73600  0.03820  0.32700  1.0000
  Cl  Cl3       1.0  0.23600  0.46200  0.67300  1.0000
  Cl  Cl4       1.0  0.76400  0.96200  0.82700  1.0000
  Cu  Cu1       1.0  0.51300  0.31900  0.13600  1.0000
  Cu  Cu2       1.0  0.48700  0.81900  0.36400  1.0000
  Cu  Cu3       1.0  0.98700  0.68100  0.63600  1.0000
  Cu  Cu4       1.0  0.01270  0.18100  0.86400  1.0000
  O   O1        1.0  0.92200  0.34600  0.02730  1.0000
  O   O2        1.0  0.12200  0.08520  0.07990  1.0000
  O   O3        1.0  0.35800  0.90800  0.16100  1.0000
  O   O4        1.0  0.65000  0.68500  0.20500  1.0000
  O   O5        1.0  0.35000  0.18500  0.29500  1.0000
  O   O6        1.0  0.64200  0.40800  0.33900  1.0000
  O   O7        1.0  0.87800  0.58500  0.42000  1.0000
  O   O8        1.0  0.07770  0.84600  0.47300  1.0000
  O   O9        1.0  0.57800  0.65400  0.52700  1.0000
  O   O10       1.0  0.37800  0.91500  0.58000  1.0000
  O   O11       1.0  0.14200  0.09190  0.66100  1.0000
  O   O12       1.0  0.85000  0.31500  0.70500  1.0000
  O   O13       1.0  0.15000  0.81500  0.79500  1.0000
  O   O14       1.0  0.85800  0.59200  0.83900  1.0000
  O   O15       1.0  0.62200  0.41500  0.92000  1.0000
  O   O16       1.0  0.42200  0.15400  0.97300  1.0000
  P   P1        1.0  0.31400  0.07960  0.12600  1.0000
  P   P2        1.0  0.68600  0.58000  0.37400  1.0000
  P   P3        1.0  0.18600  0.92000  0.62600  1.0000
  P   P4        1.0  0.81400  0.42000  0.87400  1.0000
