data_image0
_chemical_formula_structural       Ba4C4Cl4H8N4O4S4
_chemical_formula_sum              "Ba4 C4 Cl4 H8 N4 O4 S4"
_cell_length_a       5.8662
_cell_length_b       4.76428
_cell_length_c       20.0418
_cell_angle_alpha    90
_cell_angle_beta     90
_cell_angle_gamma    90

_space_group_name_H-M_alt    "P 1"
_space_group_IT_number       1

loop_
  _space_group_symop_operation_xyz
  'x, y, z'

loop_
  _atom_site_type_symbol
  _atom_site_label
  _atom_site_symmetry_multiplicity
  _atom_site_fract_x
  _atom_site_fract_y
  _atom_site_fract_z
  _atom_site_occupancy
  Ba  Ba1       1.0  0.76600  0.25000  0.08320  1.0000
  Ba  Ba2       1.0  0.26600  0.25000  0.41700  1.0000
  Ba  Ba3       1.0  0.73400  0.75000  0.58300  1.0000
  Ba  Ba4       1.0  0.23400  0.75000  0.91700  1.0000
  C   C1        1.0  0.19100  0.75000  0.14600  1.0000
  C   C2        1.0  0.69100  0.75000  0.35400  1.0000
  C   C3        1.0  0.30900  0.25000  0.64600  1.0000
  C   C4        1.0  0.80900  0.25000  0.85400  1.0000
  Cl  Cl1       1.0  0.26600  0.25000  0.02210  1.0000
  Cl  Cl2       1.0  0.76600  0.25000  0.47800  1.0000
  Cl  Cl3       1.0  0.23400  0.75000  0.52200  1.0000
  Cl  Cl4       1.0  0.73400  0.75000  0.97800  1.0000
  H   H1        1.0  0.89300  0.08720  0.24400  1.0000
  H   H2        1.0  0.89300  0.41300  0.24400  1.0000
  H   H3        1.0  0.39300  0.08720  0.25600  1.0000
  H   H4        1.0  0.39300  0.41300  0.25600  1.0000
  H   H5        1.0  0.60700  0.58700  0.74400  1.0000
  H   H6        1.0  0.60700  0.91300  0.74400  1.0000
  H   H7        1.0  0.10700  0.58700  0.75600  1.0000
  H   H8        1.0  0.10700  0.91300  0.75600  1.0000
  N   N1        1.0  0.00000  0.75000  0.12700  1.0000
  N   N2        1.0  0.50000  0.75000  0.37300  1.0000
  N   N3        1.0  0.50000  0.25000  0.62700  1.0000
  N   N4        1.0  0.00000  0.25000  0.87300  1.0000
  O   O1        1.0  0.85000  0.25000  0.21700  1.0000
  O   O2        1.0  0.35000  0.25000  0.28300  1.0000
  O   O3        1.0  0.65000  0.75000  0.71700  1.0000
  O   O4        1.0  0.15000  0.75000  0.78300  1.0000
  S   S1        1.0  0.45400  0.75000  0.17300  1.0000
  S   S2        1.0  0.95400  0.75000  0.32700  1.0000
  S   S3        1.0  0.04600  0.25000  0.67300  1.0000
  S   S4        1.0  0.54600  0.25000  0.82700  1.0000
