data_image0
_chemical_formula_structural       Al2Li2O20Si8
_chemical_formula_sum              "Al2 Li2 O20 Si8"
_cell_length_a       11.0602
_cell_length_b       4.85108
_cell_length_c       7.5582
_cell_angle_alpha    90
_cell_angle_beta     111.386
_cell_angle_gamma    90

_space_group_name_H-M_alt    "P 1"
_space_group_IT_number       1

loop_
  _space_group_symop_operation_xyz
  'x, y, z'

loop_
  _atom_site_type_symbol
  _atom_site_label
  _atom_site_symmetry_multiplicity
  _atom_site_fract_x
  _atom_site_fract_y
  _atom_site_fract_z
  _atom_site_occupancy
  Al  Al1       1.0  0.25000  0.74800  0.00000  1.0000
  Al  Al2       1.0  0.75000  0.25200  0.00000  1.0000
  Li  Li1       1.0  0.25000  0.24800  0.00000  1.0000
  Li  Li2       1.0  0.75000  0.75200  0.00000  1.0000
  O   O1        1.0  0.20000  0.98000  0.13300  1.0000
  O   O2        1.0  0.30000  0.98000  0.86700  1.0000
  O   O3        1.0  0.80000  0.02040  0.86700  1.0000
  O   O4        1.0  0.70000  0.02040  0.13300  1.0000
  O   O5        1.0  0.01430  0.90700  0.27100  1.0000
  O   O6        1.0  0.48600  0.90700  0.72900  1.0000
  O   O7        1.0  0.98600  0.09290  0.72900  1.0000
  O   O8        1.0  0.51400  0.09290  0.27100  1.0000
  O   O9        1.0  0.36500  0.51600  0.13300  1.0000
  O   O10       1.0  0.13500  0.51600  0.86700  1.0000
  O   O11       1.0  0.63500  0.48400  0.86700  1.0000
  O   O12       1.0  0.86500  0.48400  0.13300  1.0000
  O   O13       1.0  0.12000  0.40800  0.26600  1.0000
  O   O14       1.0  0.38000  0.40800  0.73400  1.0000
  O   O15       1.0  0.88000  0.59200  0.73400  1.0000
  O   O16       1.0  0.62000  0.59200  0.26600  1.0000
  O   O17       1.0  0.25000  0.00672  0.50000  1.0000
  O   O18       1.0  0.75000  0.99300  0.50000  1.0000
  O   O19       1.0  0.00000  0.50000  0.50000  1.0000
  O   O20       1.0  0.50000  0.50000  0.50000  1.0000
  Si  Si1       1.0  0.14700  0.07660  0.29200  1.0000
  Si  Si2       1.0  0.35300  0.07660  0.70800  1.0000
  Si  Si3       1.0  0.85300  0.92300  0.70800  1.0000
  Si  Si4       1.0  0.64700  0.92300  0.29200  1.0000
  Si  Si5       1.0  0.99900  0.57500  0.29300  1.0000
  Si  Si6       1.0  0.50100  0.57500  0.70700  1.0000
  Si  Si7       1.0  0.00083  0.42500  0.70700  1.0000
  Si  Si8       1.0  0.49900  0.42500  0.29300  1.0000
