data_image0
_chemical_formula_structural       C8N8S16
_chemical_formula_sum              "C8 N8 S16"
_cell_length_a       8.93204
_cell_length_b       7.9577
_cell_length_c       10.3413
_cell_angle_alpha    90
_cell_angle_beta     108.966
_cell_angle_gamma    90

_space_group_name_H-M_alt    "P 1"
_space_group_IT_number       1

loop_
  _space_group_symop_operation_xyz
  'x, y, z'

loop_
  _atom_site_type_symbol
  _atom_site_label
  _atom_site_symmetry_multiplicity
  _atom_site_fract_x
  _atom_site_fract_y
  _atom_site_fract_z
  _atom_site_occupancy
  C   C1        1.0  0.88600  0.15900  0.11200  1.0000
  C   C2        1.0  0.38700  0.54600  0.18500  1.0000
  C   C3        1.0  0.61300  0.04560  0.31500  1.0000
  C   C4        1.0  0.11400  0.65900  0.38800  1.0000
  C   C5        1.0  0.88600  0.34100  0.61200  1.0000
  C   C6        1.0  0.38700  0.95400  0.68500  1.0000
  C   C7        1.0  0.61300  0.45400  0.81500  1.0000
  C   C8        1.0  0.11400  0.84100  0.88800  1.0000
  N   N1        1.0  0.27900  0.56000  0.08430  1.0000
  N   N2        1.0  0.78000  0.06660  0.10300  1.0000
  N   N3        1.0  0.22000  0.56700  0.39700  1.0000
  N   N4        1.0  0.72100  0.05960  0.41600  1.0000
  N   N5        1.0  0.27900  0.94000  0.58400  1.0000
  N   N6        1.0  0.78000  0.43300  0.60300  1.0000
  N   N7        1.0  0.22000  0.93300  0.89700  1.0000
  N   N8        1.0  0.72100  0.44000  0.91600  1.0000
  S   S1        1.0  0.03570  0.28900  0.12000  1.0000
  S   S2        1.0  0.46400  0.02670  0.16600  1.0000
  S   S3        1.0  0.79600  0.68900  0.20200  1.0000
  S   S4        1.0  0.28000  0.97100  0.24500  1.0000
  S   S5        1.0  0.72000  0.47100  0.25500  1.0000
  S   S6        1.0  0.20400  0.18900  0.29800  1.0000
  S   S7        1.0  0.53600  0.52700  0.33400  1.0000
  S   S8        1.0  0.96400  0.78900  0.38000  1.0000
  S   S9        1.0  0.03570  0.21100  0.62000  1.0000
  S   S10       1.0  0.46400  0.47300  0.66600  1.0000
  S   S11       1.0  0.79600  0.81100  0.70200  1.0000
  S   S12       1.0  0.28000  0.52900  0.74500  1.0000
  S   S13       1.0  0.72000  0.02900  0.75500  1.0000
  S   S14       1.0  0.20400  0.31100  0.79800  1.0000
  S   S15       1.0  0.53600  0.97300  0.83400  1.0000
  S   S16       1.0  0.96400  0.71100  0.88000  1.0000
