data_image0
_chemical_formula_structural       Ba2Mo4O22Se4
_chemical_formula_sum              "Ba2 Mo4 O22 Se4"
_cell_length_a       7.74214
_cell_length_b       7.85527
_cell_length_c       8.88026
_cell_angle_alpha    116.25
_cell_angle_beta     90
_cell_angle_gamma    90

_space_group_name_H-M_alt    "P 1"
_space_group_IT_number       1

loop_
  _space_group_symop_operation_xyz
  'x, y, z'

loop_
  _atom_site_type_symbol
  _atom_site_label
  _atom_site_symmetry_multiplicity
  _atom_site_fract_x
  _atom_site_fract_y
  _atom_site_fract_z
  _atom_site_occupancy
  Ba  Ba1       1.0  0.32300  0.22200  0.00000  1.0000
  Ba  Ba2       1.0  0.82300  0.77800  0.00000  1.0000
  Mo  Mo1       1.0  0.84000  0.37600  0.21500  1.0000
  Mo  Mo2       1.0  0.34000  0.83900  0.21500  1.0000
  Mo  Mo3       1.0  0.84000  0.16100  0.78500  1.0000
  Mo  Mo4       1.0  0.34000  0.62400  0.78500  1.0000
  O   O1        1.0  0.92200  0.17900  0.00000  1.0000
  O   O2        1.0  0.42200  0.82100  0.00000  1.0000
  O   O3        1.0  0.62000  0.33300  0.17800  1.0000
  O   O4        1.0  0.12000  0.84500  0.17800  1.0000
  O   O5        1.0  0.87300  0.57500  0.18100  1.0000
  O   O6        1.0  0.37300  0.60600  0.18100  1.0000
  O   O7        1.0  0.10500  0.37400  0.28200  1.0000
  O   O8        1.0  0.60500  0.90800  0.28200  1.0000
  O   O9        1.0  0.84500  0.13700  0.28500  1.0000
  O   O10       1.0  0.34500  0.14800  0.28500  1.0000
  O   O11       1.0  0.82100  0.51200  0.47000  1.0000
  O   O12       1.0  0.32100  0.95800  0.47000  1.0000
  O   O13       1.0  0.82100  0.04220  0.53000  1.0000
  O   O14       1.0  0.32100  0.48800  0.53000  1.0000
  O   O15       1.0  0.84500  0.85200  0.71500  1.0000
  O   O16       1.0  0.34500  0.86300  0.71500  1.0000
  O   O17       1.0  0.10500  0.09150  0.71800  1.0000
  O   O18       1.0  0.60500  0.62600  0.71800  1.0000
  O   O19       1.0  0.87300  0.39400  0.81900  1.0000
  O   O20       1.0  0.37300  0.42500  0.81900  1.0000
  O   O21       1.0  0.62000  0.15500  0.82200  1.0000
  O   O22       1.0  0.12000  0.66700  0.82200  1.0000
  Se  Se1       1.0  0.68800  0.12600  0.41800  1.0000
  Se  Se2       1.0  0.18800  0.29200  0.41800  1.0000
  Se  Se3       1.0  0.68800  0.70800  0.58200  1.0000
  Se  Se4       1.0  0.18800  0.87400  0.58200  1.0000
