data_image0
_chemical_formula_structural       K8Mn4Na4O16
_chemical_formula_sum              "K8 Mn4 Na4 O16"
_cell_length_a       7.63721
_cell_length_b       7.63721
_cell_length_c       9.87956
_cell_angle_alpha    110.579
_cell_angle_beta     110.579
_cell_angle_gamma    95.1973

_space_group_name_H-M_alt    "P 1"
_space_group_IT_number       1

loop_
  _space_group_symop_operation_xyz
  'x, y, z'

loop_
  _atom_site_type_symbol
  _atom_site_label
  _atom_site_symmetry_multiplicity
  _atom_site_fract_x
  _atom_site_fract_y
  _atom_site_fract_z
  _atom_site_occupancy
  K   K1        1.0  0.26500  0.51500  0.03020  1.0000
  K   K2        1.0  0.05250  0.30300  0.25000  1.0000
  K   K3        1.0  0.69700  0.94700  0.25000  1.0000
  K   K4        1.0  0.48500  0.73500  0.47000  1.0000
  K   K5        1.0  0.51500  0.26500  0.53000  1.0000
  K   K6        1.0  0.30300  0.05250  0.75000  1.0000
  K   K7        1.0  0.94700  0.69700  0.75000  1.0000
  K   K8        1.0  0.73500  0.48500  0.97000  1.0000
  Mn  Mn1       1.0  0.61700  0.38300  0.25000  1.0000
  Mn  Mn2       1.0  0.13300  0.86700  0.25000  1.0000
  Mn  Mn3       1.0  0.86700  0.13300  0.75000  1.0000
  Mn  Mn4       1.0  0.38300  0.61700  0.75000  1.0000
  Na  Na1       1.0  0.28400  0.03350  0.06710  1.0000
  Na  Na2       1.0  0.96600  0.71600  0.43300  1.0000
  Na  Na3       1.0  0.03350  0.28400  0.56700  1.0000
  Na  Na4       1.0  0.71600  0.96600  0.93300  1.0000
  O   O1        1.0  0.61400  0.20300  0.08460  1.0000
  O   O2        1.0  0.97100  0.88200  0.08460  1.0000
  O   O3        1.0  0.65500  0.59900  0.23600  1.0000
  O   O4        1.0  0.08160  0.63700  0.23600  1.0000
  O   O5        1.0  0.40100  0.34500  0.26400  1.0000
  O   O6        1.0  0.36300  0.91800  0.26400  1.0000
  O   O7        1.0  0.11800  0.02890  0.41500  1.0000
  O   O8        1.0  0.79700  0.38600  0.41500  1.0000
  O   O9        1.0  0.20300  0.61400  0.58500  1.0000
  O   O10       1.0  0.88200  0.97100  0.58500  1.0000
  O   O11       1.0  0.63700  0.08160  0.73600  1.0000
  O   O12       1.0  0.59900  0.65500  0.73600  1.0000
  O   O13       1.0  0.91800  0.36300  0.76400  1.0000
  O   O14       1.0  0.34500  0.40100  0.76400  1.0000
  O   O15       1.0  0.02890  0.11800  0.91500  1.0000
  O   O16       1.0  0.38600  0.79700  0.91500  1.0000
