data_image0
_chemical_formula_structural       Er4Mn8O20
_chemical_formula_sum              "Er4 Mn8 O20"
_cell_length_a       7.16712
_cell_length_b       8.45223
_cell_length_c       5.71584
_cell_angle_alpha    90
_cell_angle_beta     90
_cell_angle_gamma    90

_space_group_name_H-M_alt    "P 1"
_space_group_IT_number       1

loop_
  _space_group_symop_operation_xyz
  'x, y, z'

loop_
  _atom_site_type_symbol
  _atom_site_label
  _atom_site_symmetry_multiplicity
  _atom_site_fract_x
  _atom_site_fract_y
  _atom_site_fract_z
  _atom_site_occupancy
  Er  Er1       1.0  0.13400  0.17100  0.00000  1.0000
  Er  Er2       1.0  0.63400  0.32900  0.00000  1.0000
  Er  Er3       1.0  0.36600  0.67100  0.00000  1.0000
  Er  Er4       1.0  0.86600  0.82900  0.00000  1.0000
  Mn  Mn1       1.0  0.50000  0.00000  0.25200  1.0000
  Mn  Mn2       1.0  0.00000  0.50000  0.25200  1.0000
  Mn  Mn3       1.0  0.91500  0.15300  0.50000  1.0000
  Mn  Mn4       1.0  0.41500  0.34700  0.50000  1.0000
  Mn  Mn5       1.0  0.58500  0.65300  0.50000  1.0000
  Mn  Mn6       1.0  0.08550  0.84700  0.50000  1.0000
  Mn  Mn7       1.0  0.50000  0.00000  0.74800  1.0000
  Mn  Mn8       1.0  0.00000  0.50000  0.74800  1.0000
  O   O1        1.0  0.66800  0.05850  0.00000  1.0000
  O   O2        1.0  0.16800  0.44100  0.00000  1.0000
  O   O3        1.0  0.83200  0.55900  0.00000  1.0000
  O   O4        1.0  0.33200  0.94100  0.00000  1.0000
  O   O5        1.0  0.39000  0.20700  0.23900  1.0000
  O   O6        1.0  0.89000  0.29300  0.23900  1.0000
  O   O7        1.0  0.11000  0.70700  0.23900  1.0000
  O   O8        1.0  0.61000  0.79300  0.23900  1.0000
  O   O9        1.0  0.00000  0.00000  0.26900  1.0000
  O   O10       1.0  0.50000  0.50000  0.26900  1.0000
  O   O11       1.0  0.65200  0.07140  0.50000  1.0000
  O   O12       1.0  0.15200  0.42900  0.50000  1.0000
  O   O13       1.0  0.84800  0.57100  0.50000  1.0000
  O   O14       1.0  0.34800  0.92900  0.50000  1.0000
  O   O15       1.0  0.00000  0.00000  0.73100  1.0000
  O   O16       1.0  0.50000  0.50000  0.73100  1.0000
  O   O17       1.0  0.39000  0.20700  0.76100  1.0000
  O   O18       1.0  0.89000  0.29300  0.76100  1.0000
  O   O19       1.0  0.11000  0.70700  0.76100  1.0000
  O   O20       1.0  0.61000  0.79300  0.76100  1.0000
