data_image0
_chemical_formula_structural       Cl22N2Re4S4
_chemical_formula_sum              "Cl22 N2 Re4 S4"
_cell_length_a       9.04524
_cell_length_b       9.04524
_cell_length_c       11.8399
_cell_angle_alpha    101.928
_cell_angle_beta     101.928
_cell_angle_gamma    93.6525

_space_group_name_H-M_alt    "P 1"
_space_group_IT_number       1

loop_
  _space_group_symop_operation_xyz
  'x, y, z'

loop_
  _atom_site_type_symbol
  _atom_site_label
  _atom_site_symmetry_multiplicity
  _atom_site_fract_x
  _atom_site_fract_y
  _atom_site_fract_z
  _atom_site_occupancy
  Cl  Cl1       1.0  0.22200  0.01420  0.04660  1.0000
  Cl  Cl2       1.0  0.16800  0.67300  0.10000  1.0000
  Cl  Cl3       1.0  0.44100  0.38800  0.10300  1.0000
  Cl  Cl4       1.0  0.83500  0.63200  0.16900  1.0000
  Cl  Cl5       1.0  0.51000  0.86900  0.18900  1.0000
  Cl  Cl6       1.0  0.02190  0.97800  0.25000  1.0000
  Cl  Cl7       1.0  0.13100  0.49000  0.31100  1.0000
  Cl  Cl8       1.0  0.36800  0.16500  0.33100  1.0000
  Cl  Cl9       1.0  0.61200  0.55900  0.39700  1.0000
  Cl  Cl10      1.0  0.32700  0.83200  0.40000  1.0000
  Cl  Cl11      1.0  0.98600  0.77800  0.45300  1.0000
  Cl  Cl12      1.0  0.01420  0.22200  0.54700  1.0000
  Cl  Cl13      1.0  0.67300  0.16800  0.60000  1.0000
  Cl  Cl14      1.0  0.38800  0.44100  0.60300  1.0000
  Cl  Cl15      1.0  0.63200  0.83500  0.66900  1.0000
  Cl  Cl16      1.0  0.86900  0.51000  0.68900  1.0000
  Cl  Cl17      1.0  0.97800  0.02190  0.75000  1.0000
  Cl  Cl18      1.0  0.49000  0.13100  0.81100  1.0000
  Cl  Cl19      1.0  0.16500  0.36800  0.83100  1.0000
  Cl  Cl20      1.0  0.55900  0.61200  0.89700  1.0000
  Cl  Cl21      1.0  0.83200  0.32700  0.90000  1.0000
  Cl  Cl22      1.0  0.77800  0.98600  0.95300  1.0000
  N   N1        1.0  0.70700  0.29300  0.25000  1.0000
  N   N2        1.0  0.29300  0.70700  0.75000  1.0000
  Re  Re1       1.0  0.27200  0.92400  0.21900  1.0000
  Re  Re2       1.0  0.07560  0.72800  0.28100  1.0000
  Re  Re3       1.0  0.92400  0.27200  0.71900  1.0000
  Re  Re4       1.0  0.72800  0.07560  0.78100  1.0000
  S   S1        1.0  0.60100  0.24500  0.12500  1.0000
  S   S2        1.0  0.75500  0.39900  0.37500  1.0000
  S   S3        1.0  0.24500  0.60100  0.62500  1.0000
  S   S4        1.0  0.39900  0.75500  0.87500  1.0000
