data_image0
_chemical_formula_structural       C12Co2N12Na2Rb4
_chemical_formula_sum              "C12 Co2 N12 Na2 Rb4"
_cell_length_a       7.15926
_cell_length_b       7.60987
_cell_length_c       10.3894
_cell_angle_alpha    90
_cell_angle_beta     90.449
_cell_angle_gamma    90

_space_group_name_H-M_alt    "P 1"
_space_group_IT_number       1

loop_
  _space_group_symop_operation_xyz
  'x, y, z'

loop_
  _atom_site_type_symbol
  _atom_site_label
  _atom_site_symmetry_multiplicity
  _atom_site_fract_x
  _atom_site_fract_y
  _atom_site_fract_z
  _atom_site_occupancy
  C   C1        1.0  0.78600  0.13300  0.03080  1.0000
  C   C2        1.0  0.86800  0.79500  0.03760  1.0000
  C   C3        1.0  0.06930  0.01850  0.17300  1.0000
  C   C4        1.0  0.43100  0.51900  0.32700  1.0000
  C   C5        1.0  0.63200  0.29500  0.46200  1.0000
  C   C6        1.0  0.71400  0.63300  0.46900  1.0000
  C   C7        1.0  0.28600  0.36700  0.53100  1.0000
  C   C8        1.0  0.36800  0.70500  0.53800  1.0000
  C   C9        1.0  0.56900  0.48100  0.67300  1.0000
  C   C10       1.0  0.93100  0.98100  0.82700  1.0000
  C   C11       1.0  0.13200  0.20500  0.96200  1.0000
  C   C12       1.0  0.21400  0.86700  0.96900  1.0000
  Co  Co1       1.0  0.00000  0.00000  0.00000  1.0000
  Co  Co2       1.0  0.50000  0.50000  0.50000  1.0000
  N   N1        1.0  0.65200  0.21700  0.05190  1.0000
  N   N2        1.0  0.78500  0.66700  0.06220  1.0000
  N   N3        1.0  0.38600  0.53400  0.21900  1.0000
  N   N4        1.0  0.11400  0.03350  0.28100  1.0000
  N   N5        1.0  0.71500  0.16700  0.43800  1.0000
  N   N6        1.0  0.84800  0.71700  0.44800  1.0000
  N   N7        1.0  0.15200  0.28300  0.55200  1.0000
  N   N8        1.0  0.28500  0.83300  0.56200  1.0000
  N   N9        1.0  0.88600  0.96600  0.71900  1.0000
  N   N10       1.0  0.61400  0.46600  0.78100  1.0000
  N   N11       1.0  0.21500  0.33300  0.93800  1.0000
  N   N12       1.0  0.34800  0.78300  0.94800  1.0000
  Na  Na1       1.0  0.50000  0.50000  0.00000  1.0000
  Na  Na2       1.0  0.00000  0.00000  0.50000  1.0000
  Rb  Rb1       1.0  0.52100  0.93100  0.25000  1.0000
  Rb  Rb2       1.0  0.97900  0.43100  0.25000  1.0000
  Rb  Rb3       1.0  0.02150  0.56900  0.75000  1.0000
  Rb  Rb4       1.0  0.47900  0.06940  0.75000  1.0000
