data_image0
_chemical_formula_structural       Al4As4Cu4O20
_chemical_formula_sum              "Al4 As4 Cu4 O20"
_cell_length_a       7.33104
_cell_length_b       10.1787
_cell_length_c       5.57239
_cell_angle_alpha    90
_cell_angle_beta     100.201
_cell_angle_gamma    90

_space_group_name_H-M_alt    "P 1"
_space_group_IT_number       1

loop_
  _space_group_symop_operation_xyz
  'x, y, z'

loop_
  _atom_site_type_symbol
  _atom_site_label
  _atom_site_symmetry_multiplicity
  _atom_site_fract_x
  _atom_site_fract_y
  _atom_site_fract_z
  _atom_site_occupancy
  Al  Al1       1.0  0.85700  0.67700  0.07130  1.0000
  Al  Al2       1.0  0.14300  0.17700  0.42900  1.0000
  Al  Al3       1.0  0.85700  0.82300  0.57100  1.0000
  Al  Al4       1.0  0.14300  0.32300  0.92900  1.0000
  As  As1       1.0  0.27300  0.61100  0.07340  1.0000
  As  As2       1.0  0.72700  0.11100  0.42700  1.0000
  As  As3       1.0  0.27300  0.88900  0.57300  1.0000
  As  As4       1.0  0.72700  0.38900  0.92700  1.0000
  Cu  Cu1       1.0  0.54100  0.85700  0.09120  1.0000
  Cu  Cu2       1.0  0.45900  0.35700  0.40900  1.0000
  Cu  Cu3       1.0  0.54100  0.64300  0.59100  1.0000
  Cu  Cu4       1.0  0.45900  0.14300  0.90900  1.0000
  O   O1        1.0  0.56400  0.30600  0.05150  1.0000
  O   O2        1.0  0.81400  0.51000  0.12900  1.0000
  O   O3        1.0  0.09750  0.70900  0.13200  1.0000
  O   O4        1.0  0.62300  0.03830  0.15000  1.0000
  O   O5        1.0  0.23300  0.28000  0.22900  1.0000
  O   O6        1.0  0.76700  0.78000  0.27100  1.0000
  O   O7        1.0  0.37700  0.53800  0.35000  1.0000
  O   O8        1.0  0.90300  0.20900  0.36800  1.0000
  O   O9        1.0  0.18600  0.00976  0.37100  1.0000
  O   O10       1.0  0.43600  0.80600  0.44900  1.0000
  O   O11       1.0  0.56400  0.19400  0.55100  1.0000
  O   O12       1.0  0.81400  0.99000  0.62900  1.0000
  O   O13       1.0  0.09750  0.79100  0.63200  1.0000
  O   O14       1.0  0.62300  0.46200  0.65000  1.0000
  O   O15       1.0  0.23300  0.22000  0.72900  1.0000
  O   O16       1.0  0.76700  0.72000  0.77100  1.0000
  O   O17       1.0  0.37700  0.96200  0.85000  1.0000
  O   O18       1.0  0.90300  0.29100  0.86800  1.0000
  O   O19       1.0  0.18600  0.49000  0.87100  1.0000
  O   O20       1.0  0.43600  0.69400  0.94900  1.0000
