data_image0
_chemical_formula_structural       Ba2Nd4O20Ti6
_chemical_formula_sum              "Ba2 Nd4 O20 Ti6"
_cell_length_a       14.1524
_cell_length_b       3.9139
_cell_length_c       7.64929
_cell_angle_alpha    90
_cell_angle_beta     90
_cell_angle_gamma    97.9482

_space_group_name_H-M_alt    "P 1"
_space_group_IT_number       1

loop_
  _space_group_symop_operation_xyz
  'x, y, z'

loop_
  _atom_site_type_symbol
  _atom_site_label
  _atom_site_symmetry_multiplicity
  _atom_site_fract_x
  _atom_site_fract_y
  _atom_site_fract_z
  _atom_site_occupancy
  Ba  Ba1       1.0  0.48600  0.74300  0.25000  1.0000
  Ba  Ba2       1.0  0.51400  0.25700  0.75000  1.0000
  Nd  Nd1       1.0  0.83800  0.41900  0.25000  1.0000
  Nd  Nd2       1.0  0.14500  0.57300  0.25000  1.0000
  Nd  Nd3       1.0  0.85500  0.42700  0.75000  1.0000
  Nd  Nd4       1.0  0.16200  0.58100  0.75000  1.0000
  O   O1        1.0  0.00000  0.50000  0.00000  1.0000
  O   O2        1.0  0.26200  0.63100  0.00854  1.0000
  O   O3        1.0  0.41700  0.20800  0.04990  1.0000
  O   O4        1.0  0.86600  0.93300  0.05670  1.0000
  O   O5        1.0  0.03540  0.01770  0.25000  1.0000
  O   O6        1.0  0.24400  0.12200  0.25000  1.0000
  O   O7        1.0  0.70400  0.85200  0.25000  1.0000
  O   O8        1.0  0.86600  0.93300  0.44300  1.0000
  O   O9        1.0  0.41700  0.20800  0.45000  1.0000
  O   O10       1.0  0.26200  0.63100  0.49100  1.0000
  O   O11       1.0  0.00000  0.50000  0.50000  1.0000
  O   O12       1.0  0.73800  0.36900  0.50900  1.0000
  O   O13       1.0  0.58300  0.79200  0.55000  1.0000
  O   O14       1.0  0.13400  0.06710  0.55700  1.0000
  O   O15       1.0  0.29600  0.14800  0.75000  1.0000
  O   O16       1.0  0.75600  0.87800  0.75000  1.0000
  O   O17       1.0  0.96500  0.98200  0.75000  1.0000
  O   O18       1.0  0.13400  0.06710  0.94300  1.0000
  O   O19       1.0  0.58300  0.79200  0.95000  1.0000
  O   O20       1.0  0.73800  0.36900  0.99100  1.0000
  Ti  Ti1       1.0  0.00000  0.00000  0.00000  1.0000
  Ti  Ti2       1.0  0.29200  0.14600  0.00575  1.0000
  Ti  Ti3       1.0  0.29200  0.14600  0.49400  1.0000
  Ti  Ti4       1.0  0.00000  0.00000  0.50000  1.0000
  Ti  Ti5       1.0  0.70800  0.85400  0.50600  1.0000
  Ti  Ti6       1.0  0.70800  0.85400  0.99400  1.0000
