data_image0
_chemical_formula_structural       Eu8O20Re4
_chemical_formula_sum              "Eu8 O20 Re4"
_cell_length_a       8.74711
_cell_length_b       8.74711
_cell_length_c       5.69376
_cell_angle_alpha    90
_cell_angle_beta     90
_cell_angle_gamma    90

_space_group_name_H-M_alt    "P 1"
_space_group_IT_number       1

loop_
  _space_group_symop_operation_xyz
  'x, y, z'

loop_
  _atom_site_type_symbol
  _atom_site_label
  _atom_site_symmetry_multiplicity
  _atom_site_fract_x
  _atom_site_fract_y
  _atom_site_fract_z
  _atom_site_occupancy
  Eu  Eu1       1.0  0.89600  0.10500  0.25000  1.0000
  Eu  Eu2       1.0  0.60400  0.39500  0.25000  1.0000
  Eu  Eu3       1.0  0.10500  0.60400  0.25000  1.0000
  Eu  Eu4       1.0  0.39500  0.89600  0.25000  1.0000
  Eu  Eu5       1.0  0.60500  0.10400  0.75000  1.0000
  Eu  Eu6       1.0  0.89500  0.39600  0.75000  1.0000
  Eu  Eu7       1.0  0.39600  0.60500  0.75000  1.0000
  Eu  Eu8       1.0  0.10400  0.89500  0.75000  1.0000
  O   O1        1.0  0.75000  0.25000  0.00000  1.0000
  O   O2        1.0  0.25000  0.75000  0.00000  1.0000
  O   O3        1.0  0.16500  0.05790  0.10700  1.0000
  O   O4        1.0  0.44200  0.16500  0.10700  1.0000
  O   O5        1.0  0.05790  0.33500  0.10700  1.0000
  O   O6        1.0  0.33500  0.44200  0.10700  1.0000
  O   O7        1.0  0.83400  0.55700  0.39100  1.0000
  O   O8        1.0  0.55700  0.66600  0.39100  1.0000
  O   O9        1.0  0.94300  0.83400  0.39100  1.0000
  O   O10       1.0  0.66600  0.94300  0.39100  1.0000
  O   O11       1.0  0.75000  0.25000  0.50000  1.0000
  O   O12       1.0  0.25000  0.75000  0.50000  1.0000
  O   O13       1.0  0.33400  0.05750  0.60900  1.0000
  O   O14       1.0  0.05750  0.16600  0.60900  1.0000
  O   O15       1.0  0.44300  0.33400  0.60900  1.0000
  O   O16       1.0  0.16600  0.44300  0.60900  1.0000
  O   O17       1.0  0.66500  0.55800  0.89300  1.0000
  O   O18       1.0  0.94200  0.66500  0.89300  1.0000
  O   O19       1.0  0.55800  0.83500  0.89300  1.0000
  O   O20       1.0  0.83500  0.94200  0.89300  1.0000
  Re  Re1       1.0  0.25000  0.25000  0.09680  1.0000
  Re  Re2       1.0  0.75000  0.75000  0.40400  1.0000
  Re  Re3       1.0  0.25000  0.25000  0.59600  1.0000
  Re  Re4       1.0  0.75000  0.75000  0.90300  1.0000
