data_image0
_chemical_formula_structural       Ce12Rh12Si8
_chemical_formula_sum              "Ce12 Rh12 Si8"
_cell_length_a       7.8351
_cell_length_b       15.085
_cell_length_c       5.85143
_cell_angle_alpha    90
_cell_angle_beta     90
_cell_angle_gamma    90

_space_group_name_H-M_alt    "P 1"
_space_group_IT_number       1

loop_
  _space_group_symop_operation_xyz
  'x, y, z'

loop_
  _atom_site_type_symbol
  _atom_site_label
  _atom_site_symmetry_multiplicity
  _atom_site_fract_x
  _atom_site_fract_y
  _atom_site_fract_z
  _atom_site_occupancy
  Ce  Ce1       1.0  0.16400  0.25000  0.11600  1.0000
  Ce  Ce2       1.0  0.47400  0.60900  0.14000  1.0000
  Ce  Ce3       1.0  0.47400  0.89100  0.14000  1.0000
  Ce  Ce4       1.0  0.97400  0.60900  0.36000  1.0000
  Ce  Ce5       1.0  0.97400  0.89100  0.36000  1.0000
  Ce  Ce6       1.0  0.66400  0.25000  0.38400  1.0000
  Ce  Ce7       1.0  0.33600  0.75000  0.61600  1.0000
  Ce  Ce8       1.0  0.02590  0.10900  0.64000  1.0000
  Ce  Ce9       1.0  0.02590  0.39100  0.64000  1.0000
  Ce  Ce10      1.0  0.52600  0.10900  0.86000  1.0000
  Ce  Ce11      1.0  0.52600  0.39100  0.86000  1.0000
  Ce  Ce12      1.0  0.83600  0.75000  0.88400  1.0000
  Rh  Rh1       1.0  0.18200  0.75000  0.07090  1.0000
  Rh  Rh2       1.0  0.16100  0.03700  0.10400  1.0000
  Rh  Rh3       1.0  0.16100  0.46300  0.10400  1.0000
  Rh  Rh4       1.0  0.66100  0.03700  0.39600  1.0000
  Rh  Rh5       1.0  0.66100  0.46300  0.39600  1.0000
  Rh  Rh6       1.0  0.68200  0.75000  0.42900  1.0000
  Rh  Rh7       1.0  0.31800  0.25000  0.57100  1.0000
  Rh  Rh8       1.0  0.33900  0.53700  0.60400  1.0000
  Rh  Rh9       1.0  0.33900  0.96300  0.60400  1.0000
  Rh  Rh10      1.0  0.83900  0.53700  0.89600  1.0000
  Rh  Rh11      1.0  0.83900  0.96300  0.89600  1.0000
  Rh  Rh12      1.0  0.81800  0.25000  0.92900  1.0000
  Si  Si1       1.0  0.87300  0.09630  0.13500  1.0000
  Si  Si2       1.0  0.87300  0.40400  0.13500  1.0000
  Si  Si3       1.0  0.37300  0.09630  0.36500  1.0000
  Si  Si4       1.0  0.37300  0.40400  0.36500  1.0000
  Si  Si5       1.0  0.62700  0.59600  0.63500  1.0000
  Si  Si6       1.0  0.62700  0.90400  0.63500  1.0000
  Si  Si7       1.0  0.12700  0.59600  0.86500  1.0000
  Si  Si8       1.0  0.12700  0.90400  0.86500  1.0000
