data_image0
_chemical_formula_structural       La4Mn8O20
_chemical_formula_sum              "La4 Mn8 O20"
_cell_length_a       7.62479
_cell_length_b       8.71715
_cell_length_c       5.76985
_cell_angle_alpha    90
_cell_angle_beta     90
_cell_angle_gamma    90

_space_group_name_H-M_alt    "P 1"
_space_group_IT_number       1

loop_
  _space_group_symop_operation_xyz
  'x, y, z'

loop_
  _atom_site_type_symbol
  _atom_site_label
  _atom_site_symmetry_multiplicity
  _atom_site_fract_x
  _atom_site_fract_y
  _atom_site_fract_z
  _atom_site_occupancy
  La  La1       1.0  0.14300  0.17300  0.00000  1.0000
  La  La2       1.0  0.64300  0.32700  0.00000  1.0000
  La  La3       1.0  0.35700  0.67300  0.00000  1.0000
  La  La4       1.0  0.85700  0.82700  0.00000  1.0000
  Mn  Mn1       1.0  0.50000  0.00000  0.25800  1.0000
  Mn  Mn2       1.0  0.00000  0.50000  0.25800  1.0000
  Mn  Mn3       1.0  0.91000  0.14900  0.50000  1.0000
  Mn  Mn4       1.0  0.41000  0.35100  0.50000  1.0000
  Mn  Mn5       1.0  0.59000  0.64900  0.50000  1.0000
  Mn  Mn6       1.0  0.08970  0.85100  0.50000  1.0000
  Mn  Mn7       1.0  0.50000  0.00000  0.74200  1.0000
  Mn  Mn8       1.0  0.00000  0.50000  0.74200  1.0000
  O   O1        1.0  0.65600  0.05160  0.00000  1.0000
  O   O2        1.0  0.15600  0.44800  0.00000  1.0000
  O   O3        1.0  0.84400  0.55200  0.00000  1.0000
  O   O4        1.0  0.34400  0.94800  0.00000  1.0000
  O   O5        1.0  0.40200  0.20600  0.25100  1.0000
  O   O6        1.0  0.90200  0.29400  0.25100  1.0000
  O   O7        1.0  0.09820  0.70600  0.25100  1.0000
  O   O8        1.0  0.59800  0.79400  0.25100  1.0000
  O   O9        1.0  0.00000  0.00000  0.27900  1.0000
  O   O10       1.0  0.50000  0.50000  0.27900  1.0000
  O   O11       1.0  0.65300  0.06390  0.50000  1.0000
  O   O12       1.0  0.15300  0.43600  0.50000  1.0000
  O   O13       1.0  0.84700  0.56400  0.50000  1.0000
  O   O14       1.0  0.34700  0.93600  0.50000  1.0000
  O   O15       1.0  0.00000  0.00000  0.72100  1.0000
  O   O16       1.0  0.50000  0.50000  0.72100  1.0000
  O   O17       1.0  0.40200  0.20600  0.74900  1.0000
  O   O18       1.0  0.90200  0.29400  0.74900  1.0000
  O   O19       1.0  0.09820  0.70600  0.74900  1.0000
  O   O20       1.0  0.59800  0.79400  0.74900  1.0000
