data_image0
_chemical_formula_structural       Be4Ge4Na8O16
_chemical_formula_sum              "Be4 Ge4 Na8 O16"
_cell_length_a       7.22461
_cell_length_b       4.98651
_cell_length_c       10.05
_cell_angle_alpha    90
_cell_angle_beta     90.3601
_cell_angle_gamma    90

_space_group_name_H-M_alt    "P 1"
_space_group_IT_number       1

loop_
  _space_group_symop_operation_xyz
  'x, y, z'

loop_
  _atom_site_type_symbol
  _atom_site_label
  _atom_site_symmetry_multiplicity
  _atom_site_fract_x
  _atom_site_fract_y
  _atom_site_fract_z
  _atom_site_occupancy
  Be  Be1       1.0  0.49900  0.84300  0.08720  1.0000
  Be  Be2       1.0  0.50100  0.34300  0.41300  1.0000
  Be  Be3       1.0  0.49900  0.65700  0.58700  1.0000
  Be  Be4       1.0  0.50100  0.15700  0.91300  1.0000
  Ge  Ge1       1.0  0.27800  0.34500  0.16000  1.0000
  Ge  Ge2       1.0  0.72200  0.84500  0.34000  1.0000
  Ge  Ge3       1.0  0.27800  0.15500  0.66000  1.0000
  Ge  Ge4       1.0  0.72200  0.65500  0.84000  1.0000
  Na  Na1       1.0  0.99800  0.79200  0.10900  1.0000
  Na  Na2       1.0  0.73900  0.31700  0.13800  1.0000
  Na  Na3       1.0  0.26100  0.81700  0.36200  1.0000
  Na  Na4       1.0  0.00160  0.29200  0.39100  1.0000
  Na  Na5       1.0  0.99800  0.70800  0.60900  1.0000
  Na  Na6       1.0  0.73900  0.18300  0.63800  1.0000
  Na  Na7       1.0  0.26100  0.68300  0.86200  1.0000
  Na  Na8       1.0  0.00160  0.20800  0.89000  1.0000
  O   O1        1.0  0.45600  0.17200  0.07510  1.0000
  O   O2        1.0  0.04890  0.26200  0.12300  1.0000
  O   O3        1.0  0.31000  0.69200  0.12700  1.0000
  O   O4        1.0  0.68700  0.78000  0.16800  1.0000
  O   O5        1.0  0.31300  0.28000  0.33200  1.0000
  O   O6        1.0  0.69000  0.19200  0.37300  1.0000
  O   O7        1.0  0.95100  0.76200  0.37700  1.0000
  O   O8        1.0  0.54400  0.67200  0.42500  1.0000
  O   O9        1.0  0.45600  0.32800  0.57500  1.0000
  O   O10       1.0  0.04890  0.23800  0.62300  1.0000
  O   O11       1.0  0.31000  0.80800  0.62700  1.0000
  O   O12       1.0  0.68700  0.72000  0.66800  1.0000
  O   O13       1.0  0.31300  0.22000  0.83200  1.0000
  O   O14       1.0  0.69000  0.30800  0.87300  1.0000
  O   O15       1.0  0.95100  0.73800  0.87700  1.0000
  O   O16       1.0  0.54400  0.82800  0.92500  1.0000
