data_image0
_chemical_formula_structural       Li2Ni4O20P6
_chemical_formula_sum              "Li2 Ni4 O20 P6"
_cell_length_a       4.55984
_cell_length_b       8.30035
_cell_length_c       8.88087
_cell_angle_alpha    90
_cell_angle_beta     97.8752
_cell_angle_gamma    90

_space_group_name_H-M_alt    "P 1"
_space_group_IT_number       1

loop_
  _space_group_symop_operation_xyz
  'x, y, z'

loop_
  _atom_site_type_symbol
  _atom_site_label
  _atom_site_symmetry_multiplicity
  _atom_site_fract_x
  _atom_site_fract_y
  _atom_site_fract_z
  _atom_site_occupancy
  Li  Li1       1.0  0.00000  0.00000  0.00000  1.0000
  Li  Li2       1.0  0.00000  0.50000  0.00000  1.0000
  Ni  Ni1       1.0  0.03710  0.06810  0.33600  1.0000
  Ni  Ni2       1.0  0.03710  0.43200  0.33600  1.0000
  Ni  Ni3       1.0  0.96300  0.56800  0.66400  1.0000
  Ni  Ni4       1.0  0.96300  0.93200  0.66400  1.0000
  O   O1        1.0  0.43700  0.75000  0.02400  1.0000
  O   O2        1.0  0.29100  0.09580  0.16000  1.0000
  O   O3        1.0  0.29100  0.40400  0.16000  1.0000
  O   O4        1.0  0.84100  0.59600  0.18700  1.0000
  O   O5        1.0  0.84100  0.90400  0.18700  1.0000
  O   O6        1.0  0.77300  0.25000  0.24100  1.0000
  O   O7        1.0  0.42700  0.75000  0.29000  1.0000
  O   O8        1.0  0.29000  0.25000  0.44400  1.0000
  O   O9        1.0  0.22800  0.59400  0.48900  1.0000
  O   O10       1.0  0.22800  0.90600  0.48900  1.0000
  O   O11       1.0  0.77200  0.09440  0.51100  1.0000
  O   O12       1.0  0.77200  0.40600  0.51100  1.0000
  O   O13       1.0  0.71000  0.75000  0.55600  1.0000
  O   O14       1.0  0.57300  0.25000  0.71000  1.0000
  O   O15       1.0  0.22700  0.75000  0.75900  1.0000
  O   O16       1.0  0.15900  0.09610  0.81300  1.0000
  O   O17       1.0  0.15900  0.40400  0.81300  1.0000
  O   O18       1.0  0.70900  0.59600  0.84000  1.0000
  O   O19       1.0  0.70900  0.90400  0.84000  1.0000
  O   O20       1.0  0.56300  0.25000  0.97600  1.0000
  P   P1        1.0  0.46600  0.25000  0.14700  1.0000
  P   P2        1.0  0.66500  0.75000  0.17800  1.0000
  P   P3        1.0  0.39800  0.75000  0.46700  1.0000
  P   P4        1.0  0.60200  0.25000  0.53300  1.0000
  P   P5        1.0  0.33500  0.25000  0.82200  1.0000
  P   P6        1.0  0.53400  0.75000  0.85300  1.0000
