data_image0
_chemical_formula_structural       Cl6Er2O24
_chemical_formula_sum              "Cl6 Er2 O24"
_cell_length_a       9.00507
_cell_length_b       9.00507
_cell_length_c       5.56331
_cell_angle_alpha    90
_cell_angle_beta     90
_cell_angle_gamma    120.001

_space_group_name_H-M_alt    "P 1"
_space_group_IT_number       1

loop_
  _space_group_symop_operation_xyz
  'x, y, z'

loop_
  _atom_site_type_symbol
  _atom_site_label
  _atom_site_symmetry_multiplicity
  _atom_site_fract_x
  _atom_site_fract_y
  _atom_site_fract_z
  _atom_site_occupancy
  Cl  Cl1       1.0  0.28900  0.38200  0.25000  1.0000
  Cl  Cl2       1.0  0.09310  0.71100  0.25000  1.0000
  Cl  Cl3       1.0  0.61800  0.90700  0.25000  1.0000
  Cl  Cl4       1.0  0.38200  0.09310  0.75000  1.0000
  Cl  Cl5       1.0  0.90700  0.28900  0.75000  1.0000
  Cl  Cl6       1.0  0.71100  0.61800  0.75000  1.0000
  Er  Er1       1.0  0.66700  0.33300  0.25000  1.0000
  Er  Er2       1.0  0.33300  0.66700  0.75000  1.0000
  O   O1        1.0  0.54700  0.79600  0.03830  1.0000
  O   O2        1.0  0.24900  0.45300  0.03830  1.0000
  O   O3        1.0  0.20400  0.75100  0.03830  1.0000
  O   O4        1.0  0.55300  0.02690  0.25000  1.0000
  O   O5        1.0  0.18700  0.20100  0.25000  1.0000
  O   O6        1.0  0.47400  0.44700  0.25000  1.0000
  O   O7        1.0  0.97300  0.52600  0.25000  1.0000
  O   O8        1.0  0.01380  0.81300  0.25000  1.0000
  O   O9        1.0  0.79900  0.98600  0.25000  1.0000
  O   O10       1.0  0.24900  0.45300  0.46200  1.0000
  O   O11       1.0  0.20400  0.75100  0.46200  1.0000
  O   O12       1.0  0.54700  0.79600  0.46200  1.0000
  O   O13       1.0  0.45300  0.20400  0.53800  1.0000
  O   O14       1.0  0.79600  0.24900  0.53800  1.0000
  O   O15       1.0  0.75100  0.54700  0.53800  1.0000
  O   O16       1.0  0.20100  0.01380  0.75000  1.0000
  O   O17       1.0  0.98600  0.18700  0.75000  1.0000
  O   O18       1.0  0.02690  0.47400  0.75000  1.0000
  O   O19       1.0  0.52600  0.55300  0.75000  1.0000
  O   O20       1.0  0.81300  0.79900  0.75000  1.0000
  O   O21       1.0  0.44700  0.97300  0.75000  1.0000
  O   O22       1.0  0.79600  0.24900  0.96200  1.0000
  O   O23       1.0  0.75100  0.54700  0.96200  1.0000
  O   O24       1.0  0.45300  0.20400  0.96200  1.0000
