data_image0
_chemical_formula_structural       Ba8Sn4Te20
_chemical_formula_sum              "Ba8 Sn4 Te20"
_cell_length_a       6.94649
_cell_length_b       24.6762
_cell_length_c       7.01448
_cell_angle_alpha    90
_cell_angle_beta     90
_cell_angle_gamma    90

_space_group_name_H-M_alt    "P 1"
_space_group_IT_number       1

loop_
  _space_group_symop_operation_xyz
  'x, y, z'

loop_
  _atom_site_type_symbol
  _atom_site_label
  _atom_site_symmetry_multiplicity
  _atom_site_fract_x
  _atom_site_fract_y
  _atom_site_fract_z
  _atom_site_occupancy
  Ba  Ba1       1.0  0.00643  0.60100  0.01060  1.0000
  Ba  Ba2       1.0  0.00643  0.89900  0.01060  1.0000
  Ba  Ba3       1.0  0.50600  0.60100  0.48900  1.0000
  Ba  Ba4       1.0  0.50600  0.89900  0.48900  1.0000
  Ba  Ba5       1.0  0.49400  0.10100  0.51100  1.0000
  Ba  Ba6       1.0  0.49400  0.39900  0.51100  1.0000
  Ba  Ba7       1.0  0.99400  0.10100  0.98900  1.0000
  Ba  Ba8       1.0  0.99400  0.39900  0.98900  1.0000
  Sn  Sn1       1.0  0.39700  0.75000  0.08540  1.0000
  Sn  Sn2       1.0  0.89700  0.75000  0.41500  1.0000
  Sn  Sn3       1.0  0.10300  0.25000  0.58500  1.0000
  Sn  Sn4       1.0  0.60300  0.25000  0.91500  1.0000
  Te  Te1       1.0  0.49100  0.14500  0.01570  1.0000
  Te  Te2       1.0  0.49100  0.35500  0.01570  1.0000
  Te  Te3       1.0  0.98800  0.75000  0.01710  1.0000
  Te  Te4       1.0  0.35500  0.00315  0.14400  1.0000
  Te  Te5       1.0  0.35500  0.49700  0.14400  1.0000
  Te  Te6       1.0  0.85500  0.00315  0.35600  1.0000
  Te  Te7       1.0  0.85500  0.49700  0.35600  1.0000
  Te  Te8       1.0  0.48800  0.75000  0.48300  1.0000
  Te  Te9       1.0  0.99100  0.14500  0.48400  1.0000
  Te  Te10      1.0  0.99100  0.35500  0.48400  1.0000
  Te  Te11      1.0  0.00862  0.64500  0.51600  1.0000
  Te  Te12      1.0  0.00862  0.85500  0.51600  1.0000
  Te  Te13      1.0  0.51200  0.25000  0.51700  1.0000
  Te  Te14      1.0  0.14500  0.50300  0.64400  1.0000
  Te  Te15      1.0  0.14500  0.99700  0.64400  1.0000
  Te  Te16      1.0  0.64500  0.50300  0.85600  1.0000
  Te  Te17      1.0  0.64500  0.99700  0.85600  1.0000
  Te  Te18      1.0  0.01180  0.25000  0.98300  1.0000
  Te  Te19      1.0  0.50900  0.64500  0.98400  1.0000
  Te  Te20      1.0  0.50900  0.85500  0.98400  1.0000
