data_image0
_chemical_formula_structural       In8K8Se16
_chemical_formula_sum              "In8 K8 Se16"
_cell_length_a       8.24397
_cell_length_b       8.24397
_cell_length_c       15.9546
_cell_angle_alpha    97.4497
_cell_angle_beta     82.5503
_cell_angle_gamma    90.0001

_space_group_name_H-M_alt    "P 1"
_space_group_IT_number       1

loop_
  _space_group_symop_operation_xyz
  'x, y, z'

loop_
  _atom_site_type_symbol
  _atom_site_label
  _atom_site_symmetry_multiplicity
  _atom_site_fract_x
  _atom_site_fract_y
  _atom_site_fract_z
  _atom_site_occupancy
  In  In1       1.0  0.08770  0.28900  0.15600  1.0000
  In  In2       1.0  0.58400  0.28900  0.15700  1.0000
  In  In3       1.0  0.28900  0.58400  0.34300  1.0000
  In  In4       1.0  0.28900  0.08770  0.34400  1.0000
  In  In5       1.0  0.71100  0.91200  0.65600  1.0000
  In  In6       1.0  0.71100  0.41600  0.65700  1.0000
  In  In7       1.0  0.41600  0.71100  0.84300  1.0000
  In  In8       1.0  0.91200  0.71100  0.84400  1.0000
  K   K1        1.0  0.84600  0.78000  0.11400  1.0000
  K   K2        1.0  0.34400  0.77900  0.12000  1.0000
  K   K3        1.0  0.77900  0.34400  0.38000  1.0000
  K   K4        1.0  0.78000  0.84600  0.38600  1.0000
  K   K5        1.0  0.22000  0.15400  0.61400  1.0000
  K   K6        1.0  0.22100  0.65600  0.62000  1.0000
  K   K7        1.0  0.65600  0.22100  0.88000  1.0000
  K   K8        1.0  0.15400  0.22000  0.88600  1.0000
  Se  Se1       1.0  0.36200  0.26400  0.05350  1.0000
  Se  Se2       1.0  0.86100  0.26200  0.05450  1.0000
  Se  Se3       1.0  0.57500  0.04910  0.25000  1.0000
  Se  Se4       1.0  0.04950  0.04950  0.25000  1.0000
  Se  Se5       1.0  0.57600  0.57600  0.25000  1.0000
  Se  Se6       1.0  0.04910  0.57500  0.25000  1.0000
  Se  Se7       1.0  0.26200  0.86100  0.44500  1.0000
  Se  Se8       1.0  0.26400  0.36200  0.44600  1.0000
  Se  Se9       1.0  0.73600  0.63800  0.55400  1.0000
  Se  Se10      1.0  0.73800  0.13900  0.55500  1.0000
  Se  Se11      1.0  0.95100  0.42500  0.75000  1.0000
  Se  Se12      1.0  0.42400  0.42400  0.75000  1.0000
  Se  Se13      1.0  0.95000  0.95000  0.75000  1.0000
  Se  Se14      1.0  0.42500  0.95100  0.75000  1.0000
  Se  Se15      1.0  0.13900  0.73800  0.94500  1.0000
  Se  Se16      1.0  0.63800  0.73600  0.94600  1.0000
