data_image0
_chemical_formula_structural       Cl26P2Re4
_chemical_formula_sum              "Cl26 P2 Re4"
_cell_length_a       8.69297
_cell_length_b       10.5278
_cell_length_c       9.43059
_cell_angle_alpha    90
_cell_angle_beta     99.6131
_cell_angle_gamma    90

_space_group_name_H-M_alt    "P 1"
_space_group_IT_number       1

loop_
  _space_group_symop_operation_xyz
  'x, y, z'

loop_
  _atom_site_type_symbol
  _atom_site_label
  _atom_site_symmetry_multiplicity
  _atom_site_fract_x
  _atom_site_fract_y
  _atom_site_fract_z
  _atom_site_occupancy
  Cl  Cl1       1.0  0.90000  0.25000  0.07120  1.0000
  Cl  Cl2       1.0  0.85400  0.58400  0.08420  1.0000
  Cl  Cl3       1.0  0.85400  0.91600  0.08420  1.0000
  Cl  Cl4       1.0  0.45200  0.25000  0.11200  1.0000
  Cl  Cl5       1.0  0.51000  0.59200  0.18300  1.0000
  Cl  Cl6       1.0  0.51000  0.90800  0.18300  1.0000
  Cl  Cl7       1.0  0.19100  0.09440  0.27100  1.0000
  Cl  Cl8       1.0  0.19100  0.40600  0.27100  1.0000
  Cl  Cl9       1.0  0.18200  0.75000  0.28700  1.0000
  Cl  Cl10      1.0  0.80400  0.75000  0.37400  1.0000
  Cl  Cl11      1.0  0.81400  0.09830  0.41700  1.0000
  Cl  Cl12      1.0  0.81400  0.40200  0.41700  1.0000
  Cl  Cl13      1.0  0.51200  0.25000  0.47600  1.0000
  Cl  Cl14      1.0  0.48800  0.75000  0.52400  1.0000
  Cl  Cl15      1.0  0.18600  0.59800  0.58300  1.0000
  Cl  Cl16      1.0  0.18600  0.90200  0.58300  1.0000
  Cl  Cl17      1.0  0.19600  0.25000  0.62600  1.0000
  Cl  Cl18      1.0  0.81800  0.25000  0.71300  1.0000
  Cl  Cl19      1.0  0.80900  0.59400  0.72900  1.0000
  Cl  Cl20      1.0  0.80900  0.90600  0.72900  1.0000
  Cl  Cl21      1.0  0.49000  0.09200  0.81700  1.0000
  Cl  Cl22      1.0  0.49000  0.40800  0.81700  1.0000
  Cl  Cl23      1.0  0.54800  0.75000  0.88800  1.0000
  Cl  Cl24      1.0  0.14600  0.08400  0.91600  1.0000
  Cl  Cl25      1.0  0.14600  0.41600  0.91600  1.0000
  Cl  Cl26      1.0  0.10000  0.75000  0.92900  1.0000
  P   P1        1.0  0.25900  0.75000  0.49300  1.0000
  P   P2        1.0  0.74100  0.25000  0.50700  1.0000
  Re  Re1       1.0  0.16900  0.25000  0.09500  1.0000
  Re  Re2       1.0  0.67700  0.75000  0.13500  1.0000
  Re  Re3       1.0  0.32300  0.25000  0.86500  1.0000
  Re  Re4       1.0  0.83100  0.75000  0.90500  1.0000
