data_image0
_chemical_formula_structural       H16Li4N8Rb4
_chemical_formula_sum              "H16 Li4 N8 Rb4"
_cell_length_a       7.69444
_cell_length_b       3.78554
_cell_length_c       11.4171
_cell_angle_alpha    90
_cell_angle_beta     90
_cell_angle_gamma    90

_space_group_name_H-M_alt    "P 1"
_space_group_IT_number       1

loop_
  _space_group_symop_operation_xyz
  'x, y, z'

loop_
  _atom_site_type_symbol
  _atom_site_label
  _atom_site_symmetry_multiplicity
  _atom_site_fract_x
  _atom_site_fract_y
  _atom_site_fract_z
  _atom_site_occupancy
  H   H1        1.0  0.74900  0.25000  0.06360  1.0000
  H   H2        1.0  0.10300  0.03970  0.07130  1.0000
  H   H3        1.0  0.10300  0.46000  0.07130  1.0000
  H   H4        1.0  0.62700  0.25000  0.17900  1.0000
  H   H5        1.0  0.12700  0.25000  0.32100  1.0000
  H   H6        1.0  0.60300  0.03970  0.42900  1.0000
  H   H7        1.0  0.60300  0.46000  0.42900  1.0000
  H   H8        1.0  0.24900  0.25000  0.43600  1.0000
  H   H9        1.0  0.75100  0.75000  0.56400  1.0000
  H   H10       1.0  0.39700  0.54000  0.57100  1.0000
  H   H11       1.0  0.39700  0.96000  0.57100  1.0000
  H   H12       1.0  0.87300  0.75000  0.67900  1.0000
  H   H13       1.0  0.37300  0.75000  0.82100  1.0000
  H   H14       1.0  0.89700  0.54000  0.92900  1.0000
  H   H15       1.0  0.89700  0.96000  0.92900  1.0000
  H   H16       1.0  0.25100  0.75000  0.93600  1.0000
  Li  Li1       1.0  0.38600  0.25000  0.00219  1.0000
  Li  Li2       1.0  0.88600  0.25000  0.49800  1.0000
  Li  Li3       1.0  0.11400  0.75000  0.50200  1.0000
  Li  Li4       1.0  0.61400  0.75000  0.99800  1.0000
  N   N1        1.0  0.62000  0.25000  0.08890  1.0000
  N   N2        1.0  0.16100  0.25000  0.11300  1.0000
  N   N3        1.0  0.66100  0.25000  0.38700  1.0000
  N   N4        1.0  0.12000  0.25000  0.41100  1.0000
  N   N5        1.0  0.88000  0.75000  0.58900  1.0000
  N   N6        1.0  0.33900  0.75000  0.61300  1.0000
  N   N7        1.0  0.83900  0.75000  0.88700  1.0000
  N   N8        1.0  0.38000  0.75000  0.91100  1.0000
  Rb  Rb1       1.0  0.37600  0.75000  0.24400  1.0000
  Rb  Rb2       1.0  0.87600  0.75000  0.25600  1.0000
  Rb  Rb3       1.0  0.12400  0.25000  0.74400  1.0000
  Rb  Rb4       1.0  0.62400  0.25000  0.75600  1.0000
