data_image0
_chemical_formula_structural       Al4Ca2H8O16Si2
_chemical_formula_sum              "Al4 Ca2 H8 O16 Si2"
_cell_length_a       12.0902
_cell_length_b       4.90926
_cell_length_c       4.90926
_cell_angle_alpha    90
_cell_angle_beta     101.714
_cell_angle_gamma    101.714

_space_group_name_H-M_alt    "P 1"
_space_group_IT_number       1

loop_
  _space_group_symop_operation_xyz
  'x, y, z'

loop_
  _atom_site_type_symbol
  _atom_site_label
  _atom_site_symmetry_multiplicity
  _atom_site_fract_x
  _atom_site_fract_y
  _atom_site_fract_z
  _atom_site_occupancy
  Al  Al1       1.0  0.56800  0.78400  0.03420  1.0000
  Al  Al2       1.0  0.06840  0.53400  0.28400  1.0000
  Al  Al3       1.0  0.93200  0.46600  0.71600  1.0000
  Al  Al4       1.0  0.43200  0.21600  0.96600  1.0000
  Ca  Ca1       1.0  0.75000  0.37500  0.12500  1.0000
  Ca  Ca2       1.0  0.25000  0.62500  0.87500  1.0000
  H   H1        1.0  0.93100  0.07560  0.02780  1.0000
  H   H2        1.0  0.43100  0.52800  0.35600  1.0000
  H   H3        1.0  0.93100  0.85600  0.40400  1.0000
  H   H4        1.0  0.56900  0.09640  0.42400  1.0000
  H   H5        1.0  0.43100  0.90400  0.57600  1.0000
  H   H6        1.0  0.06860  0.14400  0.59600  1.0000
  H   H7        1.0  0.56900  0.47200  0.64400  1.0000
  H   H8        1.0  0.06860  0.92400  0.97200  1.0000
  O   O1        1.0  0.93900  0.27700  0.05030  1.0000
  O   O2        1.0  0.43900  0.55000  0.16300  1.0000
  O   O3        1.0  0.32800  0.02640  0.17000  1.0000
  O   O4        1.0  0.17200  0.33000  0.19900  1.0000
  O   O5        1.0  0.56100  0.11100  0.22300  1.0000
  O   O6        1.0  0.67200  0.69900  0.34200  1.0000
  O   O7        1.0  0.93900  0.66300  0.38900  1.0000
  O   O8        1.0  0.17200  0.84200  0.47400  1.0000
  O   O9        1.0  0.82800  0.15800  0.52600  1.0000
  O   O10       1.0  0.06070  0.33700  0.61100  1.0000
  O   O11       1.0  0.32800  0.30100  0.65800  1.0000
  O   O12       1.0  0.43900  0.88900  0.77700  1.0000
  O   O13       1.0  0.82800  0.67000  0.80100  1.0000
  O   O14       1.0  0.67200  0.97400  0.83000  1.0000
  O   O15       1.0  0.56100  0.45000  0.83700  1.0000
  O   O16       1.0  0.06070  0.72300  0.95000  1.0000
  Si  Si1       1.0  0.25000  0.12500  0.37500  1.0000
  Si  Si2       1.0  0.75000  0.87500  0.62500  1.0000
