data_image0
_chemical_formula_structural       Fe4H20Zr8
_chemical_formula_sum              "Fe4 H20 Zr8"
_cell_length_a       6.87542
_cell_length_b       6.87542
_cell_length_c       5.5986
_cell_angle_alpha    90
_cell_angle_beta     90
_cell_angle_gamma    90

_space_group_name_H-M_alt    "P 1"
_space_group_IT_number       1

loop_
  _space_group_symop_operation_xyz
  'x, y, z'

loop_
  _atom_site_type_symbol
  _atom_site_label
  _atom_site_symmetry_multiplicity
  _atom_site_fract_x
  _atom_site_fract_y
  _atom_site_fract_z
  _atom_site_occupancy
  Fe  Fe1       1.0  0.25000  0.25000  0.00906  1.0000
  Fe  Fe2       1.0  0.75000  0.75000  0.49100  1.0000
  Fe  Fe3       1.0  0.25000  0.25000  0.50900  1.0000
  Fe  Fe4       1.0  0.75000  0.75000  0.99100  1.0000
  H   H1        1.0  0.75000  0.25000  0.00000  1.0000
  H   H2        1.0  0.25000  0.75000  0.00000  1.0000
  H   H3        1.0  0.33300  0.03630  0.07290  1.0000
  H   H4        1.0  0.03630  0.16700  0.07290  1.0000
  H   H5        1.0  0.46400  0.33300  0.07290  1.0000
  H   H6        1.0  0.16700  0.46400  0.07290  1.0000
  H   H7        1.0  0.66700  0.53600  0.42700  1.0000
  H   H8        1.0  0.96400  0.66700  0.42700  1.0000
  H   H9        1.0  0.53600  0.83300  0.42700  1.0000
  H   H10       1.0  0.83300  0.96400  0.42700  1.0000
  H   H11       1.0  0.75000  0.25000  0.50000  1.0000
  H   H12       1.0  0.25000  0.75000  0.50000  1.0000
  H   H13       1.0  0.16700  0.03630  0.57300  1.0000
  H   H14       1.0  0.46400  0.16700  0.57300  1.0000
  H   H15       1.0  0.03630  0.33300  0.57300  1.0000
  H   H16       1.0  0.33300  0.46400  0.57300  1.0000
  H   H17       1.0  0.83300  0.53600  0.92700  1.0000
  H   H18       1.0  0.53600  0.66700  0.92700  1.0000
  H   H19       1.0  0.96400  0.83300  0.92700  1.0000
  H   H20       1.0  0.66700  0.96400  0.92700  1.0000
  Zr  Zr1       1.0  0.58800  0.08850  0.25000  1.0000
  Zr  Zr2       1.0  0.91200  0.41200  0.25000  1.0000
  Zr  Zr3       1.0  0.41200  0.58800  0.25000  1.0000
  Zr  Zr4       1.0  0.08850  0.91200  0.25000  1.0000
  Zr  Zr5       1.0  0.91200  0.08850  0.75000  1.0000
  Zr  Zr6       1.0  0.58800  0.41200  0.75000  1.0000
  Zr  Zr7       1.0  0.08850  0.58800  0.75000  1.0000
  Zr  Zr8       1.0  0.41200  0.91200  0.75000  1.0000
