data_image0
_chemical_formula_structural       O20Pb4Se8
_chemical_formula_sum              "O20 Pb4 Se8"
_cell_length_a       4.42556
_cell_length_b       9.40917
_cell_length_c       11.413
_cell_angle_alpha    90
_cell_angle_beta     89.9692
_cell_angle_gamma    90

_space_group_name_H-M_alt    "P 1"
_space_group_IT_number       1

loop_
  _space_group_symop_operation_xyz
  'x, y, z'

loop_
  _atom_site_type_symbol
  _atom_site_label
  _atom_site_symmetry_multiplicity
  _atom_site_fract_x
  _atom_site_fract_y
  _atom_site_fract_z
  _atom_site_occupancy
  O   O1        1.0  0.83400  0.14600  0.02600  1.0000
  O   O2        1.0  0.27600  0.58900  0.05740  1.0000
  O   O3        1.0  0.25200  0.30600  0.13500  1.0000
  O   O4        1.0  0.84300  0.74100  0.15900  1.0000
  O   O5        1.0  0.18900  0.03370  0.19500  1.0000
  O   O6        1.0  0.31100  0.53400  0.30500  1.0000
  O   O7        1.0  0.65700  0.24100  0.34100  1.0000
  O   O8        1.0  0.24800  0.80600  0.36500  1.0000
  O   O9        1.0  0.22400  0.08920  0.44300  1.0000
  O   O10       1.0  0.66600  0.64600  0.47400  1.0000
  O   O11       1.0  0.33400  0.35400  0.52600  1.0000
  O   O12       1.0  0.77600  0.91100  0.55700  1.0000
  O   O13       1.0  0.75200  0.19400  0.63500  1.0000
  O   O14       1.0  0.34300  0.75900  0.65900  1.0000
  O   O15       1.0  0.68900  0.46600  0.69500  1.0000
  O   O16       1.0  0.81100  0.96600  0.80500  1.0000
  O   O17       1.0  0.15700  0.25900  0.84100  1.0000
  O   O18       1.0  0.74800  0.69400  0.86500  1.0000
  O   O19       1.0  0.72400  0.41100  0.94300  1.0000
  O   O20       1.0  0.16600  0.85400  0.97400  1.0000
  Pb  Pb1       1.0  0.72900  0.45600  0.15700  1.0000
  Pb  Pb2       1.0  0.77100  0.95600  0.34300  1.0000
  Pb  Pb3       1.0  0.22900  0.04430  0.65700  1.0000
  Pb  Pb4       1.0  0.27100  0.54400  0.84300  1.0000
  Se  Se1       1.0  0.23600  0.14000  0.07600  1.0000
  Se  Se2       1.0  0.21200  0.75400  0.11900  1.0000
  Se  Se3       1.0  0.28800  0.25400  0.38100  1.0000
  Se  Se4       1.0  0.26400  0.64000  0.42400  1.0000
  Se  Se5       1.0  0.73600  0.36000  0.57600  1.0000
  Se  Se6       1.0  0.71200  0.74600  0.61900  1.0000
  Se  Se7       1.0  0.78800  0.24600  0.88100  1.0000
  Se  Se8       1.0  0.76400  0.86000  0.92400  1.0000
