data_image0
_chemical_formula_structural       C12Fe2N12Na2Rb4
_chemical_formula_sum              "C12 Fe2 N12 Na2 Rb4"
_cell_length_a       7.16705
_cell_length_b       7.65186
_cell_length_c       10.4253
_cell_angle_alpha    90
_cell_angle_beta     90.5383
_cell_angle_gamma    90

_space_group_name_H-M_alt    "P 1"
_space_group_IT_number       1

loop_
  _space_group_symop_operation_xyz
  'x, y, z'

loop_
  _atom_site_type_symbol
  _atom_site_label
  _atom_site_symmetry_multiplicity
  _atom_site_fract_x
  _atom_site_fract_y
  _atom_site_fract_z
  _atom_site_occupancy
  C   C1        1.0  0.78300  0.13500  0.03250  1.0000
  C   C2        1.0  0.86700  0.79100  0.03890  1.0000
  C   C3        1.0  0.07150  0.01900  0.17500  1.0000
  C   C4        1.0  0.42900  0.51900  0.32500  1.0000
  C   C5        1.0  0.63300  0.29100  0.46100  1.0000
  C   C6        1.0  0.71700  0.63500  0.46700  1.0000
  C   C7        1.0  0.28300  0.36500  0.53300  1.0000
  C   C8        1.0  0.36700  0.70900  0.53900  1.0000
  C   C9        1.0  0.57100  0.48100  0.67500  1.0000
  C   C10       1.0  0.92900  0.98100  0.82500  1.0000
  C   C11       1.0  0.13300  0.20900  0.96100  1.0000
  C   C12       1.0  0.21700  0.86500  0.96700  1.0000
  Fe  Fe1       1.0  0.00000  0.00000  0.00000  1.0000
  Fe  Fe2       1.0  0.50000  0.50000  0.50000  1.0000
  N   N1        1.0  0.64900  0.21800  0.05480  1.0000
  N   N2        1.0  0.78400  0.66300  0.06410  1.0000
  N   N3        1.0  0.38400  0.53400  0.21700  1.0000
  N   N4        1.0  0.11600  0.03440  0.28300  1.0000
  N   N5        1.0  0.71600  0.16300  0.43600  1.0000
  N   N6        1.0  0.85100  0.71800  0.44500  1.0000
  N   N7        1.0  0.14900  0.28200  0.55500  1.0000
  N   N8        1.0  0.28400  0.83700  0.56400  1.0000
  N   N9        1.0  0.88400  0.96600  0.71700  1.0000
  N   N10       1.0  0.61600  0.46600  0.78300  1.0000
  N   N11       1.0  0.21600  0.33700  0.93600  1.0000
  N   N12       1.0  0.35100  0.78200  0.94500  1.0000
  Na  Na1       1.0  0.50000  0.50000  0.00000  1.0000
  Na  Na2       1.0  0.00000  0.00000  0.50000  1.0000
  Rb  Rb1       1.0  0.52200  0.92800  0.24900  1.0000
  Rb  Rb2       1.0  0.97800  0.42800  0.25100  1.0000
  Rb  Rb3       1.0  0.02250  0.57200  0.74900  1.0000
  Rb  Rb4       1.0  0.47800  0.07180  0.75100  1.0000
