data_image0
_chemical_formula_structural       K8Mn4Se16Sn4
_chemical_formula_sum              "K8 Mn4 Se16 Sn4"
_cell_length_a       10.6933
_cell_length_b       10.6933
_cell_length_c       8.43628
_cell_angle_alpha    90
_cell_angle_beta     90
_cell_angle_gamma    90

_space_group_name_H-M_alt    "P 1"
_space_group_IT_number       1

loop_
  _space_group_symop_operation_xyz
  'x, y, z'

loop_
  _atom_site_type_symbol
  _atom_site_label
  _atom_site_symmetry_multiplicity
  _atom_site_fract_x
  _atom_site_fract_y
  _atom_site_fract_z
  _atom_site_occupancy
  K   K1        1.0  0.00000  0.00000  0.00000  1.0000
  K   K2        1.0  0.75100  0.25100  0.25000  1.0000
  K   K3        1.0  0.00000  0.50000  0.25000  1.0000
  K   K4        1.0  0.24900  0.74900  0.25000  1.0000
  K   K5        1.0  0.50000  0.50000  0.50000  1.0000
  K   K6        1.0  0.50000  0.00000  0.75000  1.0000
  K   K7        1.0  0.25100  0.24900  0.75000  1.0000
  K   K8        1.0  0.74900  0.75100  0.75000  1.0000
  Mn  Mn1       1.0  0.50000  0.50000  0.00000  1.0000
  Mn  Mn2       1.0  0.50000  0.00000  0.25000  1.0000
  Mn  Mn3       1.0  0.00000  0.00000  0.50000  1.0000
  Mn  Mn4       1.0  0.00000  0.50000  0.75000  1.0000
  Se  Se1       1.0  0.30700  0.02680  0.07070  1.0000
  Se  Se2       1.0  0.69300  0.97300  0.07070  1.0000
  Se  Se3       1.0  0.29000  0.43400  0.10800  1.0000
  Se  Se4       1.0  0.71000  0.56600  0.10800  1.0000
  Se  Se5       1.0  0.06630  0.21000  0.39200  1.0000
  Se  Se6       1.0  0.93400  0.79000  0.39200  1.0000
  Se  Se7       1.0  0.47300  0.19300  0.42900  1.0000
  Se  Se8       1.0  0.52700  0.80700  0.42900  1.0000
  Se  Se9       1.0  0.80700  0.47300  0.57100  1.0000
  Se  Se10      1.0  0.19300  0.52700  0.57100  1.0000
  Se  Se11      1.0  0.79000  0.06630  0.60800  1.0000
  Se  Se12      1.0  0.21000  0.93400  0.60800  1.0000
  Se  Se13      1.0  0.56600  0.29000  0.89200  1.0000
  Se  Se14      1.0  0.43400  0.71000  0.89200  1.0000
  Se  Se15      1.0  0.97300  0.30700  0.92900  1.0000
  Se  Se16      1.0  0.02680  0.69300  0.92900  1.0000
  Sn  Sn1       1.0  0.28000  0.22000  0.25000  1.0000
  Sn  Sn2       1.0  0.72000  0.78000  0.25000  1.0000
  Sn  Sn3       1.0  0.78000  0.28000  0.75000  1.0000
  Sn  Sn4       1.0  0.22000  0.72000  0.75000  1.0000
