data_image0
_chemical_formula_structural       C15Os5Tb12
_chemical_formula_sum              "C15 Os5 Tb12"
_cell_length_a       10.7505
_cell_length_b       10.7505
_cell_length_c       5.11266
_cell_angle_alpha    90
_cell_angle_beta     90
_cell_angle_gamma    120

_space_group_name_H-M_alt    "P 1"
_space_group_IT_number       1

loop_
  _space_group_symop_operation_xyz
  'x, y, z'

loop_
  _atom_site_type_symbol
  _atom_site_label
  _atom_site_symmetry_multiplicity
  _atom_site_fract_x
  _atom_site_fract_y
  _atom_site_fract_z
  _atom_site_occupancy
  C   C1        1.0  0.33500  0.00000  0.00000  1.0000
  C   C2        1.0  0.46000  0.00000  0.00000  1.0000
  C   C3        1.0  0.79300  0.00000  0.00000  1.0000
  C   C4        1.0  0.20700  0.20700  0.00000  1.0000
  C   C5        1.0  0.00000  0.33500  0.00000  1.0000
  C   C6        1.0  0.00000  0.46000  0.00000  1.0000
  C   C7        1.0  0.54000  0.54000  0.00000  1.0000
  C   C8        1.0  0.66500  0.66500  0.00000  1.0000
  C   C9        1.0  0.00000  0.79300  0.00000  1.0000
  C   C10       1.0  0.71600  0.18500  0.50000  1.0000
  C   C11       1.0  0.46900  0.28400  0.50000  1.0000
  C   C12       1.0  0.28400  0.46900  0.50000  1.0000
  C   C13       1.0  0.81500  0.53100  0.50000  1.0000
  C   C14       1.0  0.18500  0.71600  0.50000  1.0000
  C   C15       1.0  0.53100  0.81500  0.50000  1.0000
  Os  Os1       1.0  0.16100  0.00000  0.00000  1.0000
  Os  Os2       1.0  0.00000  0.16100  0.00000  1.0000
  Os  Os3       1.0  0.83900  0.83900  0.00000  1.0000
  Os  Os4       1.0  0.66700  0.33300  0.50000  1.0000
  Os  Os5       1.0  0.33300  0.66700  0.50000  1.0000
  Tb  Tb1       1.0  0.72700  0.18300  0.00000  1.0000
  Tb  Tb2       1.0  0.45600  0.27300  0.00000  1.0000
  Tb  Tb3       1.0  0.27300  0.45600  0.00000  1.0000
  Tb  Tb4       1.0  0.81700  0.54400  0.00000  1.0000
  Tb  Tb5       1.0  0.18300  0.72700  0.00000  1.0000
  Tb  Tb6       1.0  0.54400  0.81700  0.00000  1.0000
  Tb  Tb7       1.0  0.43500  0.00000  0.50000  1.0000
  Tb  Tb8       1.0  0.79400  0.00000  0.50000  1.0000
  Tb  Tb9       1.0  0.20600  0.20600  0.50000  1.0000
  Tb  Tb10      1.0  0.00000  0.43500  0.50000  1.0000
  Tb  Tb11      1.0  0.56500  0.56500  0.50000  1.0000
  Tb  Tb12      1.0  0.00000  0.79400  0.50000  1.0000
