data_image0
_chemical_formula_structural       Mn8O20Yb4
_chemical_formula_sum              "Mn8 O20 Yb4"
_cell_length_a       6.98118
_cell_length_b       8.36128
_cell_length_c       5.7638
_cell_angle_alpha    90
_cell_angle_beta     90
_cell_angle_gamma    90

_space_group_name_H-M_alt    "P 1"
_space_group_IT_number       1

loop_
  _space_group_symop_operation_xyz
  'x, y, z'

loop_
  _atom_site_type_symbol
  _atom_site_label
  _atom_site_symmetry_multiplicity
  _atom_site_fract_x
  _atom_site_fract_y
  _atom_site_fract_z
  _atom_site_occupancy
  Mn  Mn1       1.0  0.50000  0.00000  0.24500  1.0000
  Mn  Mn2       1.0  0.00000  0.50000  0.24500  1.0000
  Mn  Mn3       1.0  0.90800  0.15400  0.50000  1.0000
  Mn  Mn4       1.0  0.40800  0.34600  0.50000  1.0000
  Mn  Mn5       1.0  0.59200  0.65400  0.50000  1.0000
  Mn  Mn6       1.0  0.09170  0.84600  0.50000  1.0000
  Mn  Mn7       1.0  0.50000  0.00000  0.75500  1.0000
  Mn  Mn8       1.0  0.00000  0.50000  0.75500  1.0000
  O   O1        1.0  0.66500  0.05740  0.00000  1.0000
  O   O2        1.0  0.16500  0.44300  0.00000  1.0000
  O   O3        1.0  0.83500  0.55700  0.00000  1.0000
  O   O4        1.0  0.33500  0.94300  0.00000  1.0000
  O   O5        1.0  0.38200  0.20500  0.24700  1.0000
  O   O6        1.0  0.88200  0.29500  0.24700  1.0000
  O   O7        1.0  0.11800  0.70500  0.24700  1.0000
  O   O8        1.0  0.61800  0.79500  0.24700  1.0000
  O   O9        1.0  0.00000  0.00000  0.28600  1.0000
  O   O10       1.0  0.50000  0.50000  0.28600  1.0000
  O   O11       1.0  0.65200  0.09090  0.50000  1.0000
  O   O12       1.0  0.15200  0.40900  0.50000  1.0000
  O   O13       1.0  0.84800  0.59100  0.50000  1.0000
  O   O14       1.0  0.34800  0.90900  0.50000  1.0000
  O   O15       1.0  0.00000  0.00000  0.71400  1.0000
  O   O16       1.0  0.50000  0.50000  0.71400  1.0000
  O   O17       1.0  0.38200  0.20500  0.75300  1.0000
  O   O18       1.0  0.88200  0.29500  0.75300  1.0000
  O   O19       1.0  0.11800  0.70500  0.75300  1.0000
  O   O20       1.0  0.61800  0.79500  0.75300  1.0000
  Yb  Yb1       1.0  0.12100  0.16900  0.00000  1.0000
  Yb  Yb2       1.0  0.62100  0.33100  0.00000  1.0000
  Yb  Yb3       1.0  0.37900  0.66900  0.00000  1.0000
  Yb  Yb4       1.0  0.87900  0.83100  0.00000  1.0000
