data_image0
_chemical_formula_structural       Ba2F20Te4
_chemical_formula_sum              "Ba2 F20 Te4"
_cell_length_a       4.69628
_cell_length_b       8.59018
_cell_length_c       9.83445
_cell_angle_alpha    111.204
_cell_angle_beta     90
_cell_angle_gamma    105.864

_space_group_name_H-M_alt    "P 1"
_space_group_IT_number       1

loop_
  _space_group_symop_operation_xyz
  'x, y, z'

loop_
  _atom_site_type_symbol
  _atom_site_label
  _atom_site_symmetry_multiplicity
  _atom_site_fract_x
  _atom_site_fract_y
  _atom_site_fract_z
  _atom_site_occupancy
  Ba  Ba1       1.0  0.03830  0.00000  0.25000  1.0000
  Ba  Ba2       1.0  0.96200  0.00000  0.75000  1.0000
  F   F1        1.0  0.89600  0.65000  0.03130  1.0000
  F   F2        1.0  0.81200  0.11900  0.05270  1.0000
  F   F3        1.0  0.48200  0.84500  0.13300  1.0000
  F   F4        1.0  0.38300  0.22800  0.15900  1.0000
  F   F5        1.0  0.54300  0.58900  0.23900  1.0000
  F   F6        1.0  0.95500  0.41100  0.26100  1.0000
  F   F7        1.0  0.15400  0.77200  0.34100  1.0000
  F   F8        1.0  0.63700  0.15500  0.36700  1.0000
  F   F9        1.0  0.69300  0.88100  0.44700  1.0000
  F   F10       1.0  0.24600  0.35000  0.46900  1.0000
  F   F11       1.0  0.75400  0.65000  0.53100  1.0000
  F   F12       1.0  0.30700  0.11900  0.55300  1.0000
  F   F13       1.0  0.36300  0.84500  0.63300  1.0000
  F   F14       1.0  0.84600  0.22800  0.65900  1.0000
  F   F15       1.0  0.04530  0.58900  0.73900  1.0000
  F   F16       1.0  0.45700  0.41100  0.76100  1.0000
  F   F17       1.0  0.61700  0.77200  0.84100  1.0000
  F   F18       1.0  0.51800  0.15500  0.86700  1.0000
  F   F19       1.0  0.18800  0.88100  0.94700  1.0000
  F   F20       1.0  0.10400  0.35000  0.96900  1.0000
  Te  Te1       1.0  0.71700  0.33200  0.06890  1.0000
  Te  Te2       1.0  0.38500  0.66800  0.43100  1.0000
  Te  Te3       1.0  0.61500  0.33200  0.56900  1.0000
  Te  Te4       1.0  0.28300  0.66800  0.93100  1.0000
