data_image0
_chemical_formula_structural       CoCuO7P2
_chemical_formula_sum              "Co1 Cu1 O7 P2"
_cell_length_a       6.89721
_cell_length_b       6.61696
_cell_length_c       6.31139
_cell_angle_alpha    109.345
_cell_angle_beta     133.418
_cell_angle_gamma    38.7629

_space_group_name_H-M_alt    "P 1"
_space_group_IT_number       1

loop_
  _space_group_symop_operation_xyz
  'x, y, z'

loop_
  _atom_site_type_symbol
  _atom_site_label
  _atom_site_symmetry_multiplicity
  _atom_site_fract_x
  _atom_site_fract_y
  _atom_site_fract_z
  _atom_site_occupancy
  Co  Co1       1.0  0.92300  0.36800  0.19400  1.0000
  Cu  Cu1       1.0  0.16000  0.75300  0.43600  1.0000
  O   O1        1.0  0.62700  0.91700  0.12900  1.0000
  O   O2        1.0  0.07790  0.90200  0.13000  1.0000
  O   O3        1.0  0.01140  0.21800  0.50800  1.0000
  O   O4        1.0  0.45200  0.21800  0.50900  1.0000
  O   O5        1.0  0.02960  0.57000  0.80800  1.0000
  O   O6        1.0  0.81800  0.40100  0.81200  1.0000
  O   O7        1.0  0.25500  0.73000  0.81400  1.0000
  P   P1        1.0  0.13100  0.25900  0.81400  1.0000
  P   P2        1.0  0.94400  0.87100  0.81400  1.0000
