data_image0
_chemical_formula_structural       Mn6O20Se6
_chemical_formula_sum              "Mn6 O20 Se6"
_cell_length_a       6.71456
_cell_length_b       8.33419
_cell_length_c       9.54251
_cell_angle_alpha    98.3147
_cell_angle_beta     110.599
_cell_angle_gamma    113.755

_space_group_name_H-M_alt    "P 1"
_space_group_IT_number       1

loop_
  _space_group_symop_operation_xyz
  'x, y, z'

loop_
  _atom_site_type_symbol
  _atom_site_label
  _atom_site_symmetry_multiplicity
  _atom_site_fract_x
  _atom_site_fract_y
  _atom_site_fract_z
  _atom_site_occupancy
  Mn  Mn1       1.0  0.00000  0.50000  0.00000  1.0000
  Mn  Mn2       1.0  0.50000  0.50000  0.00000  1.0000
  Mn  Mn3       1.0  0.47300  0.85600  0.08970  1.0000
  Mn  Mn4       1.0  0.00000  0.00000  0.50000  1.0000
  Mn  Mn5       1.0  0.50000  0.00000  0.50000  1.0000
  Mn  Mn6       1.0  0.52700  0.14400  0.91000  1.0000
  O   O1        1.0  0.70900  0.40200  0.01670  1.0000
  O   O2        1.0  0.14100  0.81400  0.07550  1.0000
  O   O3        1.0  0.74900  0.81400  0.07550  1.0000
  O   O4        1.0  0.63100  0.11900  0.14300  1.0000
  O   O5        1.0  0.15900  0.50700  0.21900  1.0000
  O   O6        1.0  0.56700  0.50700  0.21900  1.0000
  O   O7        1.0  0.58200  0.83200  0.33200  1.0000
  O   O8        1.0  0.12900  0.91100  0.34700  1.0000
  O   O9        1.0  0.02190  0.22200  0.41400  1.0000
  O   O10       1.0  0.61300  0.22200  0.41400  1.0000
  O   O11       1.0  0.38700  0.77800  0.58600  1.0000
  O   O12       1.0  0.97800  0.77800  0.58600  1.0000
  O   O13       1.0  0.87100  0.08860  0.65300  1.0000
  O   O14       1.0  0.41800  0.16800  0.66800  1.0000
  O   O15       1.0  0.43300  0.49300  0.78100  1.0000
  O   O16       1.0  0.84100  0.49300  0.78100  1.0000
  O   O17       1.0  0.36900  0.88100  0.85700  1.0000
  O   O18       1.0  0.25100  0.18600  0.92400  1.0000
  O   O19       1.0  0.85900  0.18600  0.92400  1.0000
  O   O20       1.0  0.29100  0.59800  0.98300  1.0000
  Se  Se1       1.0  0.06370  0.95600  0.17100  1.0000
  Se  Se2       1.0  0.46700  0.59900  0.33500  1.0000
  Se  Se3       1.0  0.81600  0.29500  0.33700  1.0000
  Se  Se4       1.0  0.18400  0.70500  0.66300  1.0000
  Se  Se5       1.0  0.53300  0.40100  0.66500  1.0000
  Se  Se6       1.0  0.93600  0.04360  0.82900  1.0000
