data_image0
_chemical_formula_structural       Cs2H8Li2N4O12S4
_chemical_formula_sum              "Cs2 H8 Li2 N4 O12 S4"
_cell_length_a       5.46575
_cell_length_b       7.69109
_cell_length_c       9.59254
_cell_angle_alpha    73.1982
_cell_angle_beta     76.2335
_cell_angle_gamma    86.9359

_space_group_name_H-M_alt    "P 1"
_space_group_IT_number       1

loop_
  _space_group_symop_operation_xyz
  'x, y, z'

loop_
  _atom_site_type_symbol
  _atom_site_label
  _atom_site_symmetry_multiplicity
  _atom_site_fract_x
  _atom_site_fract_y
  _atom_site_fract_z
  _atom_site_occupancy
  Cs  Cs1       1.0  0.19200  0.76100  0.08500  1.0000
  Cs  Cs2       1.0  0.80800  0.23900  0.91500  1.0000
  H   H1        1.0  0.97200  0.03660  0.36200  1.0000
  H   H2        1.0  0.28000  0.02190  0.36800  1.0000
  H   H3        1.0  0.10700  0.26800  0.48200  1.0000
  H   H4        1.0  0.19800  0.47300  0.48600  1.0000
  H   H5        1.0  0.80200  0.52700  0.51400  1.0000
  H   H6        1.0  0.89300  0.73200  0.51800  1.0000
  H   H7        1.0  0.72000  0.97800  0.63200  1.0000
  H   H8        1.0  0.02790  0.96300  0.63800  1.0000
  Li  Li1       1.0  0.65000  0.39000  0.28600  1.0000
  Li  Li2       1.0  0.35000  0.61000  0.71400  1.0000
  N   N1        1.0  0.13300  0.10800  0.35100  1.0000
  N   N2        1.0  0.85000  0.65800  0.45100  1.0000
  N   N3        1.0  0.15000  0.34200  0.54900  1.0000
  N   N4        1.0  0.86700  0.89200  0.64900  1.0000
  O   O1        1.0  0.24900  0.15200  0.06770  1.0000
  O   O2        1.0  0.97800  0.36600  0.17400  1.0000
  O   O3        1.0  0.42500  0.35300  0.17500  1.0000
  O   O4        1.0  0.56200  0.63600  0.29300  1.0000
  O   O5        1.0  0.69300  0.93700  0.29400  1.0000
  O   O6        1.0  0.61400  0.24800  0.49400  1.0000
  O   O7        1.0  0.38600  0.75200  0.50600  1.0000
  O   O8        1.0  0.30700  0.06290  0.70600  1.0000
  O   O9        1.0  0.43800  0.36400  0.70700  1.0000
  O   O10       1.0  0.57500  0.64700  0.82500  1.0000
  O   O11       1.0  0.02180  0.63400  0.82600  1.0000
  O   O12       1.0  0.75100  0.84800  0.93200  1.0000
  S   S1        1.0  0.20200  0.25200  0.18000  1.0000
  S   S2        1.0  0.60900  0.75200  0.38200  1.0000
  S   S3        1.0  0.39100  0.24800  0.61800  1.0000
  S   S4        1.0  0.79800  0.74900  0.82000  1.0000
