data_image0
_chemical_formula_structural       Ag4Rb8S16Sb4
_chemical_formula_sum              "Ag4 Rb8 S16 Sb4"
_cell_length_a       8.3154
_cell_length_b       10.9623
_cell_length_c       10.5246
_cell_angle_alpha    90
_cell_angle_beta     91.5399
_cell_angle_gamma    90

_space_group_name_H-M_alt    "P 1"
_space_group_IT_number       1

loop_
  _space_group_symop_operation_xyz
  'x, y, z'

loop_
  _atom_site_type_symbol
  _atom_site_label
  _atom_site_symmetry_multiplicity
  _atom_site_fract_x
  _atom_site_fract_y
  _atom_site_fract_z
  _atom_site_occupancy
  Ag  Ag1       1.0  0.87100  0.96800  0.22000  1.0000
  Ag  Ag2       1.0  0.62900  0.46800  0.28000  1.0000
  Ag  Ag3       1.0  0.37100  0.53200  0.72000  1.0000
  Ag  Ag4       1.0  0.12900  0.03160  0.78000  1.0000
  Rb  Rb1       1.0  0.64100  0.72800  0.00873  1.0000
  Rb  Rb2       1.0  0.12700  0.49100  0.23700  1.0000
  Rb  Rb3       1.0  0.37300  0.99100  0.26300  1.0000
  Rb  Rb4       1.0  0.85900  0.22800  0.49100  1.0000
  Rb  Rb5       1.0  0.14100  0.77200  0.50900  1.0000
  Rb  Rb6       1.0  0.62700  0.00920  0.73700  1.0000
  Rb  Rb7       1.0  0.87300  0.50900  0.76300  1.0000
  Rb  Rb8       1.0  0.35900  0.27200  0.99100  1.0000
  S   S1        1.0  0.66100  0.06920  0.05020  1.0000
  S   S2        1.0  0.74100  0.42300  0.06020  1.0000
  S   S3        1.0  0.01580  0.77400  0.16000  1.0000
  S   S4        1.0  0.04300  0.18500  0.20800  1.0000
  S   S5        1.0  0.45700  0.68500  0.29200  1.0000
  S   S6        1.0  0.48400  0.27400  0.34000  1.0000
  S   S7        1.0  0.75900  0.92300  0.44000  1.0000
  S   S8        1.0  0.83900  0.56900  0.45000  1.0000
  S   S9        1.0  0.16100  0.43100  0.55000  1.0000
  S   S10       1.0  0.24100  0.07660  0.56000  1.0000
  S   S11       1.0  0.51600  0.72600  0.66000  1.0000
  S   S12       1.0  0.54300  0.31500  0.70800  1.0000
  S   S13       1.0  0.95700  0.81500  0.79200  1.0000
  S   S14       1.0  0.98400  0.22600  0.84000  1.0000
  S   S15       1.0  0.25900  0.57700  0.94000  1.0000
  S   S16       1.0  0.33900  0.93100  0.95000  1.0000
  Sb  Sb1       1.0  0.85700  0.22500  0.03920  1.0000
  Sb  Sb2       1.0  0.64300  0.72500  0.46100  1.0000
  Sb  Sb3       1.0  0.35700  0.27500  0.53900  1.0000
  Sb  Sb4       1.0  0.14300  0.77500  0.96100  1.0000
