data_image0
_chemical_formula_structural       Cl6O24Yb2
_chemical_formula_sum              "Cl6 O24 Yb2"
_cell_length_a       9.01504
_cell_length_b       9.01415
_cell_length_c       5.62227
_cell_angle_alpha    90
_cell_angle_beta     90
_cell_angle_gamma    120.019

_space_group_name_H-M_alt    "P 1"
_space_group_IT_number       1

loop_
  _space_group_symop_operation_xyz
  'x, y, z'

loop_
  _atom_site_type_symbol
  _atom_site_label
  _atom_site_symmetry_multiplicity
  _atom_site_fract_x
  _atom_site_fract_y
  _atom_site_fract_z
  _atom_site_occupancy
  Cl  Cl1       1.0  0.71100  0.09260  0.25000  1.0000
  Cl  Cl2       1.0  0.38100  0.28900  0.25000  1.0000
  Cl  Cl3       1.0  0.90700  0.61900  0.25000  1.0000
  Cl  Cl4       1.0  0.09260  0.38100  0.75000  1.0000
  Cl  Cl5       1.0  0.61900  0.71100  0.75000  1.0000
  Cl  Cl6       1.0  0.28900  0.90700  0.75000  1.0000
  O   O1        1.0  0.75300  0.20300  0.04100  1.0000
  O   O2        1.0  0.79700  0.55000  0.04110  1.0000
  O   O3        1.0  0.45000  0.24700  0.04120  1.0000
  O   O4        1.0  0.81200  0.01110  0.25000  1.0000
  O   O5        1.0  0.19900  0.18800  0.25000  1.0000
  O   O6        1.0  0.44500  0.47200  0.25000  1.0000
  O   O7        1.0  0.02650  0.55500  0.25000  1.0000
  O   O8        1.0  0.98900  0.80100  0.25000  1.0000
  O   O9        1.0  0.52800  0.97300  0.25000  1.0000
  O   O10       1.0  0.45000  0.24700  0.45900  1.0000
  O   O11       1.0  0.79700  0.55000  0.45900  1.0000
  O   O12       1.0  0.75300  0.20300  0.45900  1.0000
  O   O13       1.0  0.24700  0.79700  0.54100  1.0000
  O   O14       1.0  0.20300  0.45000  0.54100  1.0000
  O   O15       1.0  0.55000  0.75300  0.54100  1.0000
  O   O16       1.0  0.47200  0.02650  0.75000  1.0000
  O   O17       1.0  0.01100  0.19900  0.75000  1.0000
  O   O18       1.0  0.97400  0.44500  0.75000  1.0000
  O   O19       1.0  0.55500  0.52800  0.75000  1.0000
  O   O20       1.0  0.80100  0.81200  0.75000  1.0000
  O   O21       1.0  0.18800  0.98900  0.75000  1.0000
  O   O22       1.0  0.55000  0.75300  0.95900  1.0000
  O   O23       1.0  0.20300  0.45000  0.95900  1.0000
  O   O24       1.0  0.24700  0.79700  0.95900  1.0000
  Yb  Yb1       1.0  0.33300  0.66700  0.25000  1.0000
  Yb  Yb2       1.0  0.66700  0.33300  0.75000  1.0000
