data_image0
_chemical_formula_structural       Cu4Fe4O20P4
_chemical_formula_sum              "Cu4 Fe4 O20 P4"
_cell_length_a       7.51243
_cell_length_b       6.38907
_cell_length_c       7.14856
_cell_angle_alpha    90
_cell_angle_beta     90
_cell_angle_gamma    90

_space_group_name_H-M_alt    "P 1"
_space_group_IT_number       1

loop_
  _space_group_symop_operation_xyz
  'x, y, z'

loop_
  _atom_site_type_symbol
  _atom_site_label
  _atom_site_symmetry_multiplicity
  _atom_site_fract_x
  _atom_site_fract_y
  _atom_site_fract_z
  _atom_site_occupancy
  Cu  Cu1       1.0  0.00000  0.00000  0.00000  1.0000
  Cu  Cu2       1.0  0.00000  0.50000  0.00000  1.0000
  Cu  Cu3       1.0  0.50000  0.00000  0.50000  1.0000
  Cu  Cu4       1.0  0.50000  0.50000  0.50000  1.0000
  Fe  Fe1       1.0  0.32600  0.75000  0.21400  1.0000
  Fe  Fe2       1.0  0.82600  0.75000  0.28600  1.0000
  Fe  Fe3       1.0  0.17400  0.25000  0.71400  1.0000
  Fe  Fe4       1.0  0.67400  0.25000  0.78600  1.0000
  O   O1        1.0  0.76900  0.75000  0.00236  1.0000
  O   O2        1.0  0.56900  0.25000  0.03080  1.0000
  O   O3        1.0  0.08760  0.75000  0.13000  1.0000
  O   O4        1.0  0.87400  0.05560  0.23800  1.0000
  O   O5        1.0  0.87400  0.44400  0.23800  1.0000
  O   O6        1.0  0.37400  0.05560  0.26200  1.0000
  O   O7        1.0  0.37400  0.44400  0.26200  1.0000
  O   O8        1.0  0.58800  0.75000  0.37000  1.0000
  O   O9        1.0  0.06870  0.25000  0.46900  1.0000
  O   O10       1.0  0.26900  0.75000  0.49800  1.0000
  O   O11       1.0  0.73100  0.25000  0.50200  1.0000
  O   O12       1.0  0.93100  0.75000  0.53100  1.0000
  O   O13       1.0  0.41200  0.25000  0.63000  1.0000
  O   O14       1.0  0.62600  0.55600  0.73800  1.0000
  O   O15       1.0  0.62600  0.94400  0.73800  1.0000
  O   O16       1.0  0.12600  0.55600  0.76200  1.0000
  O   O17       1.0  0.12600  0.94400  0.76200  1.0000
  O   O18       1.0  0.91200  0.25000  0.87000  1.0000
  O   O19       1.0  0.43100  0.75000  0.96900  1.0000
  O   O20       1.0  0.23100  0.25000  0.99800  1.0000
  P   P1        1.0  0.39100  0.25000  0.13200  1.0000
  P   P2        1.0  0.89100  0.25000  0.36800  1.0000
  P   P3        1.0  0.10900  0.75000  0.63200  1.0000
  P   P4        1.0  0.60900  0.75000  0.86800  1.0000
