data_image0
_chemical_formula_structural       Cu8S8Sm8Te8
_chemical_formula_sum              "Cu8 S8 Sm8 Te8"
_cell_length_a       7.59313
_cell_length_b       12.6721
_cell_length_c       7.56641
_cell_angle_alpha    90
_cell_angle_beta     90
_cell_angle_gamma    90

_space_group_name_H-M_alt    "P 1"
_space_group_IT_number       1

loop_
  _space_group_symop_operation_xyz
  'x, y, z'

loop_
  _atom_site_type_symbol
  _atom_site_label
  _atom_site_symmetry_multiplicity
  _atom_site_fract_x
  _atom_site_fract_y
  _atom_site_fract_z
  _atom_site_occupancy
  Cu  Cu1       1.0  0.07120  0.20900  0.16800  1.0000
  Cu  Cu2       1.0  0.42900  0.70900  0.16800  1.0000
  Cu  Cu3       1.0  0.57100  0.20900  0.33200  1.0000
  Cu  Cu4       1.0  0.92900  0.70900  0.33200  1.0000
  Cu  Cu5       1.0  0.07120  0.29100  0.66800  1.0000
  Cu  Cu6       1.0  0.42900  0.79100  0.66800  1.0000
  Cu  Cu7       1.0  0.57100  0.29100  0.83200  1.0000
  Cu  Cu8       1.0  0.92900  0.79100  0.83200  1.0000
  S   S1        1.0  0.00212  0.03740  0.23900  1.0000
  S   S2        1.0  0.49800  0.53700  0.23900  1.0000
  S   S3        1.0  0.50200  0.03740  0.26100  1.0000
  S   S4        1.0  0.99800  0.53700  0.26100  1.0000
  S   S5        1.0  0.00212  0.46300  0.73900  1.0000
  S   S6        1.0  0.49800  0.96300  0.73900  1.0000
  S   S7        1.0  0.50200  0.46300  0.76100  1.0000
  S   S8        1.0  0.99800  0.96300  0.76100  1.0000
  Sm  Sm1       1.0  0.24000  0.43200  0.02150  1.0000
  Sm  Sm2       1.0  0.26000  0.93200  0.02150  1.0000
  Sm  Sm3       1.0  0.74000  0.43200  0.47900  1.0000
  Sm  Sm4       1.0  0.76000  0.93200  0.47900  1.0000
  Sm  Sm5       1.0  0.24000  0.06820  0.52100  1.0000
  Sm  Sm6       1.0  0.26000  0.56800  0.52100  1.0000
  Sm  Sm7       1.0  0.74000  0.06820  0.97900  1.0000
  Sm  Sm8       1.0  0.76000  0.56800  0.97900  1.0000
  Te  Te1       1.0  0.77800  0.30700  0.11100  1.0000
  Te  Te2       1.0  0.72200  0.80700  0.11100  1.0000
  Te  Te3       1.0  0.27800  0.30700  0.38900  1.0000
  Te  Te4       1.0  0.22200  0.80700  0.38900  1.0000
  Te  Te5       1.0  0.77800  0.19300  0.61100  1.0000
  Te  Te6       1.0  0.72200  0.69300  0.61100  1.0000
  Te  Te7       1.0  0.27800  0.19300  0.88900  1.0000
  Te  Te8       1.0  0.22200  0.69300  0.88900  1.0000
