data_image0
_chemical_formula_structural       O16Pr8Si4Te4
_chemical_formula_sum              "O16 Pr8 Si4 Te4"
_cell_length_a       6.35385
_cell_length_b       7.25392
_cell_length_c       11.2367
_cell_angle_alpha    90
_cell_angle_beta     90
_cell_angle_gamma    90

_space_group_name_H-M_alt    "P 1"
_space_group_IT_number       1

loop_
  _space_group_symop_operation_xyz
  'x, y, z'

loop_
  _atom_site_type_symbol
  _atom_site_label
  _atom_site_symmetry_multiplicity
  _atom_site_fract_x
  _atom_site_fract_y
  _atom_site_fract_z
  _atom_site_occupancy
  O   O1        1.0  0.26800  0.42300  0.03590  1.0000
  O   O2        1.0  0.73200  0.92300  0.03590  1.0000
  O   O3        1.0  0.95100  0.23000  0.11500  1.0000
  O   O4        1.0  0.04860  0.73000  0.11500  1.0000
  O   O5        1.0  0.95100  0.23000  0.38500  1.0000
  O   O6        1.0  0.04860  0.73000  0.38500  1.0000
  O   O7        1.0  0.26800  0.42300  0.46400  1.0000
  O   O8        1.0  0.73200  0.92300  0.46400  1.0000
  O   O9        1.0  0.26800  0.07720  0.53600  1.0000
  O   O10       1.0  0.73200  0.57700  0.53600  1.0000
  O   O11       1.0  0.95100  0.27000  0.61500  1.0000
  O   O12       1.0  0.04860  0.77000  0.61500  1.0000
  O   O13       1.0  0.95100  0.27000  0.88500  1.0000
  O   O14       1.0  0.04860  0.77000  0.88500  1.0000
  O   O15       1.0  0.26800  0.07720  0.96400  1.0000
  O   O16       1.0  0.73200  0.57700  0.96400  1.0000
  Pr  Pr1       1.0  0.61000  0.25000  0.00000  1.0000
  Pr  Pr2       1.0  0.39000  0.75000  0.00000  1.0000
  Pr  Pr3       1.0  0.11300  0.46000  0.25000  1.0000
  Pr  Pr4       1.0  0.88700  0.96000  0.25000  1.0000
  Pr  Pr5       1.0  0.61000  0.25000  0.50000  1.0000
  Pr  Pr6       1.0  0.39000  0.75000  0.50000  1.0000
  Pr  Pr7       1.0  0.11300  0.03960  0.75000  1.0000
  Pr  Pr8       1.0  0.88700  0.54000  0.75000  1.0000
  Si  Si1       1.0  0.11300  0.25000  0.00000  1.0000
  Si  Si2       1.0  0.88700  0.75000  0.00000  1.0000
  Si  Si3       1.0  0.11300  0.25000  0.50000  1.0000
  Si  Si4       1.0  0.88700  0.75000  0.50000  1.0000
  Te  Te1       1.0  0.40200  0.07400  0.25000  1.0000
  Te  Te2       1.0  0.59800  0.57400  0.25000  1.0000
  Te  Te3       1.0  0.40200  0.42600  0.75000  1.0000
  Te  Te4       1.0  0.59800  0.92600  0.75000  1.0000
