data_image0
_chemical_formula_structural       Cl20Na4Sn8
_chemical_formula_sum              "Cl20 Na4 Sn8"
_cell_length_a       8.30165
_cell_length_b       12.0496
_cell_length_c       8.70159
_cell_angle_alpha    90
_cell_angle_beta     90
_cell_angle_gamma    90

_space_group_name_H-M_alt    "P 1"
_space_group_IT_number       1

loop_
  _space_group_symop_operation_xyz
  'x, y, z'

loop_
  _atom_site_type_symbol
  _atom_site_label
  _atom_site_symmetry_multiplicity
  _atom_site_fract_x
  _atom_site_fract_y
  _atom_site_fract_z
  _atom_site_occupancy
  Cl  Cl1       1.0  0.33900  0.10400  0.00000  1.0000
  Cl  Cl2       1.0  0.81300  0.43600  0.00000  1.0000
  Cl  Cl3       1.0  0.18700  0.56400  0.00000  1.0000
  Cl  Cl4       1.0  0.66100  0.89600  0.00000  1.0000
  Cl  Cl5       1.0  0.00000  0.00000  0.20600  1.0000
  Cl  Cl6       1.0  0.67100  0.20700  0.22200  1.0000
  Cl  Cl7       1.0  0.32900  0.79300  0.22200  1.0000
  Cl  Cl8       1.0  0.17100  0.29300  0.27800  1.0000
  Cl  Cl9       1.0  0.82900  0.70700  0.27800  1.0000
  Cl  Cl10      1.0  0.50000  0.50000  0.29400  1.0000
  Cl  Cl11      1.0  0.31300  0.06410  0.50000  1.0000
  Cl  Cl12      1.0  0.83900  0.39600  0.50000  1.0000
  Cl  Cl13      1.0  0.16100  0.60400  0.50000  1.0000
  Cl  Cl14      1.0  0.68700  0.93600  0.50000  1.0000
  Cl  Cl15      1.0  0.50000  0.50000  0.70600  1.0000
  Cl  Cl16      1.0  0.17100  0.29300  0.72200  1.0000
  Cl  Cl17      1.0  0.82900  0.70700  0.72200  1.0000
  Cl  Cl18      1.0  0.67100  0.20700  0.77800  1.0000
  Cl  Cl19      1.0  0.32900  0.79300  0.77800  1.0000
  Cl  Cl20      1.0  0.00000  0.00000  0.79400  1.0000
  Na  Na1       1.0  0.50000  0.00000  0.24800  1.0000
  Na  Na2       1.0  0.00000  0.50000  0.25200  1.0000
  Na  Na3       1.0  0.00000  0.50000  0.74800  1.0000
  Na  Na4       1.0  0.50000  0.00000  0.75200  1.0000
  Sn  Sn1       1.0  0.04260  0.17000  0.00000  1.0000
  Sn  Sn2       1.0  0.54300  0.32600  0.00000  1.0000
  Sn  Sn3       1.0  0.45700  0.67400  0.00000  1.0000
  Sn  Sn4       1.0  0.95700  0.83000  0.00000  1.0000
  Sn  Sn5       1.0  0.04270  0.17400  0.50000  1.0000
  Sn  Sn6       1.0  0.54300  0.33000  0.50000  1.0000
  Sn  Sn7       1.0  0.45700  0.67000  0.50000  1.0000
  Sn  Sn8       1.0  0.95700  0.82600  0.50000  1.0000
