data_image0
_chemical_formula_structural       Mn8O20Sm4
_chemical_formula_sum              "Mn8 O20 Sm4"
_cell_length_a       7.37342
_cell_length_b       8.59686
_cell_length_c       5.74817
_cell_angle_alpha    90
_cell_angle_beta     90
_cell_angle_gamma    90

_space_group_name_H-M_alt    "P 1"
_space_group_IT_number       1

loop_
  _space_group_symop_operation_xyz
  'x, y, z'

loop_
  _atom_site_type_symbol
  _atom_site_label
  _atom_site_symmetry_multiplicity
  _atom_site_fract_x
  _atom_site_fract_y
  _atom_site_fract_z
  _atom_site_occupancy
  Mn  Mn1       1.0  0.50000  0.00000  0.25500  1.0000
  Mn  Mn2       1.0  0.00000  0.50000  0.25500  1.0000
  Mn  Mn3       1.0  0.91200  0.15100  0.50000  1.0000
  Mn  Mn4       1.0  0.41200  0.34900  0.50000  1.0000
  Mn  Mn5       1.0  0.58800  0.65100  0.50000  1.0000
  Mn  Mn6       1.0  0.08810  0.84900  0.50000  1.0000
  Mn  Mn7       1.0  0.50000  0.00000  0.74500  1.0000
  Mn  Mn8       1.0  0.00000  0.50000  0.74500  1.0000
  O   O1        1.0  0.66300  0.05440  0.00000  1.0000
  O   O2        1.0  0.16300  0.44600  0.00000  1.0000
  O   O3        1.0  0.83700  0.55400  0.00000  1.0000
  O   O4        1.0  0.33700  0.94600  0.00000  1.0000
  O   O5        1.0  0.39700  0.20700  0.24500  1.0000
  O   O6        1.0  0.89700  0.29300  0.24500  1.0000
  O   O7        1.0  0.10300  0.70700  0.24500  1.0000
  O   O8        1.0  0.60300  0.79300  0.24500  1.0000
  O   O9        1.0  0.00000  0.00000  0.27400  1.0000
  O   O10       1.0  0.50000  0.50000  0.27400  1.0000
  O   O11       1.0  0.65300  0.06670  0.50000  1.0000
  O   O12       1.0  0.15300  0.43300  0.50000  1.0000
  O   O13       1.0  0.84700  0.56700  0.50000  1.0000
  O   O14       1.0  0.34700  0.93300  0.50000  1.0000
  O   O15       1.0  0.00000  0.00000  0.72600  1.0000
  O   O16       1.0  0.50000  0.50000  0.72600  1.0000
  O   O17       1.0  0.39700  0.20700  0.75500  1.0000
  O   O18       1.0  0.89700  0.29300  0.75500  1.0000
  O   O19       1.0  0.10300  0.70700  0.75500  1.0000
  O   O20       1.0  0.60300  0.79300  0.75500  1.0000
  Sm  Sm1       1.0  0.13700  0.17200  0.00000  1.0000
  Sm  Sm2       1.0  0.63700  0.32800  0.00000  1.0000
  Sm  Sm3       1.0  0.36300  0.67200  0.00000  1.0000
  Sm  Sm4       1.0  0.86300  0.82800  0.00000  1.0000
