data_image0
_chemical_formula_structural       H8O16P4Rb2Zn
_chemical_formula_sum              "H8 O16 P4 Rb2 Zn1"
_cell_length_a       6.83278
_cell_length_b       7.1939
_cell_length_c       7.59894
_cell_angle_alpha    81.0771
_cell_angle_beta     70.5003
_cell_angle_gamma    85.7102

_space_group_name_H-M_alt    "P 1"
_space_group_IT_number       1

loop_
  _space_group_symop_operation_xyz
  'x, y, z'

loop_
  _atom_site_type_symbol
  _atom_site_label
  _atom_site_symmetry_multiplicity
  _atom_site_fract_x
  _atom_site_fract_y
  _atom_site_fract_z
  _atom_site_occupancy
  H   H1        1.0  0.23900  0.97300  0.03950  1.0000
  H   H2        1.0  0.88300  0.17000  0.20500  1.0000
  H   H3        1.0  0.88500  0.31100  0.35100  1.0000
  H   H4        1.0  0.40600  0.73400  0.43100  1.0000
  H   H5        1.0  0.59400  0.26600  0.56900  1.0000
  H   H6        1.0  0.11500  0.68900  0.64900  1.0000
  H   H7        1.0  0.11700  0.83000  0.79500  1.0000
  H   H8        1.0  0.76100  0.02750  0.96100  1.0000
  O   O1        1.0  0.19300  0.61600  0.10900  1.0000
  O   O2        1.0  0.76400  0.99900  0.14900  1.0000
  O   O3        1.0  0.72900  0.64700  0.15000  1.0000
  O   O4        1.0  0.24700  0.93500  0.17800  1.0000
  O   O5        1.0  0.95500  0.27900  0.22100  1.0000
  O   O6        1.0  0.90600  0.76700  0.36300  1.0000
  O   O7        1.0  0.22900  0.65300  0.42700  1.0000
  O   O8        1.0  0.53300  0.80100  0.44200  1.0000
  O   O9        1.0  0.46700  0.19900  0.55800  1.0000
  O   O10       1.0  0.77100  0.34700  0.57300  1.0000
  O   O11       1.0  0.09440  0.23300  0.63700  1.0000
  O   O12       1.0  0.04530  0.72100  0.77900  1.0000
  O   O13       1.0  0.75300  0.06500  0.82200  1.0000
  O   O14       1.0  0.27100  0.35300  0.85000  1.0000
  O   O15       1.0  0.23600  0.00070  0.85100  1.0000
  O   O16       1.0  0.80700  0.38400  0.89100  1.0000
  P   P1        1.0  0.72800  0.80300  0.26200  1.0000
  P   P2        1.0  0.15200  0.73600  0.26500  1.0000
  P   P3        1.0  0.84800  0.26400  0.73500  1.0000
  P   P4        1.0  0.27200  0.19700  0.73800  1.0000
  Rb  Rb1       1.0  0.40900  0.28400  0.20700  1.0000
  Rb  Rb2       1.0  0.59100  0.71600  0.79300  1.0000
  Zn  Zn1       1.0  0.00000  0.50000  0.00000  1.0000
