data_image0
_chemical_formula_structural       F12H12N4Sn4
_chemical_formula_sum              "F12 H12 N4 Sn4"
_cell_length_a       5.26236
_cell_length_b       7.65358
_cell_length_c       7.65479
_cell_angle_alpha    101.125
_cell_angle_beta     100.29
_cell_angle_gamma    100.284

_space_group_name_H-M_alt    "P 1"
_space_group_IT_number       1

loop_
  _space_group_symop_operation_xyz
  'x, y, z'

loop_
  _atom_site_type_symbol
  _atom_site_label
  _atom_site_symmetry_multiplicity
  _atom_site_fract_x
  _atom_site_fract_y
  _atom_site_fract_z
  _atom_site_occupancy
  F   F1        1.0  0.91600  0.29200  0.00507  1.0000
  F   F2        1.0  0.62600  0.55400  0.15800  1.0000
  F   F3        1.0  0.41600  0.00516  0.29200  1.0000
  F   F4        1.0  0.30600  0.32500  0.30600  1.0000
  F   F5        1.0  0.80600  0.30600  0.32400  1.0000
  F   F6        1.0  0.87500  0.84300  0.44700  1.0000
  F   F7        1.0  0.12600  0.15800  0.55400  1.0000
  F   F8        1.0  0.19300  0.69300  0.67400  1.0000
  F   F9        1.0  0.69300  0.67400  0.69300  1.0000
  F   F10       1.0  0.58400  0.99500  0.70800  1.0000
  F   F11       1.0  0.37500  0.44700  0.84300  1.0000
  F   F12       1.0  0.08410  0.70800  0.99400  1.0000
  H   H1        1.0  0.08740  0.63400  0.15800  1.0000
  H   H2        1.0  0.09920  0.47500  0.29200  1.0000
  H   H3        1.0  0.51500  0.64200  0.33100  1.0000
  H   H4        1.0  0.98600  0.67000  0.35900  1.0000
  H   H5        1.0  0.41300  0.84200  0.36600  1.0000
  H   H6        1.0  0.59900  0.29200  0.47500  1.0000
  H   H7        1.0  0.40100  0.70900  0.52600  1.0000
  H   H8        1.0  0.58700  0.15800  0.63400  1.0000
  H   H9        1.0  0.01460  0.33100  0.64100  1.0000
  H   H10       1.0  0.48600  0.35800  0.67000  1.0000
  H   H11       1.0  0.90100  0.52500  0.70900  1.0000
  H   H12       1.0  0.91300  0.36600  0.84200  1.0000
  N   N1        1.0  0.11900  0.61300  0.29400  1.0000
  N   N2        1.0  0.38100  0.70700  0.38800  1.0000
  N   N3        1.0  0.62000  0.29300  0.61200  1.0000
  N   N4        1.0  0.88100  0.38800  0.70700  1.0000
  Sn  Sn1       1.0  0.51300  0.26200  0.06480  1.0000
  Sn  Sn2       1.0  0.01260  0.06490  0.26200  1.0000
  Sn  Sn3       1.0  0.98700  0.93400  0.73800  1.0000
  Sn  Sn4       1.0  0.48700  0.73800  0.93400  1.0000
