data_image0
_chemical_formula_structural       H10N2O14Se4V2
_chemical_formula_sum              "H10 N2 O14 Se4 V2"
_cell_length_a       3.87002
_cell_length_b       10.5247
_cell_length_c       7.87444
_cell_angle_alpha    90
_cell_angle_beta     98.6932
_cell_angle_gamma    90

_space_group_name_H-M_alt    "P 1"
_space_group_IT_number       1

loop_
  _space_group_symop_operation_xyz
  'x, y, z'

loop_
  _atom_site_type_symbol
  _atom_site_label
  _atom_site_symmetry_multiplicity
  _atom_site_fract_x
  _atom_site_fract_y
  _atom_site_fract_z
  _atom_site_occupancy
  H   H1        1.0  0.50000  0.00000  0.00000  1.0000
  H   H2        1.0  0.50000  0.50000  0.00000  1.0000
  H   H3        1.0  0.98800  0.16900  0.01690  1.0000
  H   H4        1.0  0.98800  0.33100  0.01690  1.0000
  H   H5        1.0  0.74400  0.75000  0.10200  1.0000
  H   H6        1.0  0.33200  0.25000  0.11400  1.0000
  H   H7        1.0  0.66800  0.75000  0.88600  1.0000
  H   H8        1.0  0.25600  0.25000  0.89800  1.0000
  H   H9        1.0  0.01230  0.66900  0.98300  1.0000
  H   H10       1.0  0.01230  0.83100  0.98300  1.0000
  N   N1        1.0  0.14000  0.25000  0.00841  1.0000
  N   N2        1.0  0.86000  0.75000  0.99200  1.0000
  O   O1        1.0  0.72000  0.05390  0.09880  1.0000
  O   O2        1.0  0.72000  0.44600  0.09880  1.0000
  O   O3        1.0  0.45100  0.62500  0.26500  1.0000
  O   O4        1.0  0.45100  0.87500  0.26500  1.0000
  O   O5        1.0  0.41400  0.11700  0.36500  1.0000
  O   O6        1.0  0.41400  0.38300  0.36500  1.0000
  O   O7        1.0  0.00989  0.75000  0.46400  1.0000
  O   O8        1.0  0.99000  0.25000  0.53600  1.0000
  O   O9        1.0  0.58600  0.61700  0.63500  1.0000
  O   O10       1.0  0.58600  0.88300  0.63500  1.0000
  O   O11       1.0  0.54900  0.12500  0.73500  1.0000
  O   O12       1.0  0.54900  0.37500  0.73500  1.0000
  O   O13       1.0  0.28000  0.55400  0.90100  1.0000
  O   O14       1.0  0.28000  0.94600  0.90100  1.0000
  Se  Se1       1.0  0.71700  0.00845  0.30900  1.0000
  Se  Se2       1.0  0.71700  0.49200  0.30900  1.0000
  Se  Se3       1.0  0.28300  0.50800  0.69100  1.0000
  Se  Se4       1.0  0.28300  0.99200  0.69100  1.0000
  V   V1        1.0  0.44500  0.75000  0.45400  1.0000
  V   V2        1.0  0.55500  0.25000  0.54600  1.0000
