data_image0
_chemical_formula_structural       H4Na4O16Si4Zn4
_chemical_formula_sum              "H4 Na4 O16 Si4 Zn4"
_cell_length_a       7.63096
_cell_length_b       9.30654
_cell_length_c       5.1394
_cell_angle_alpha    90
_cell_angle_beta     90
_cell_angle_gamma    90

_space_group_name_H-M_alt    "P 1"
_space_group_IT_number       1

loop_
  _space_group_symop_operation_xyz
  'x, y, z'

loop_
  _atom_site_type_symbol
  _atom_site_label
  _atom_site_symmetry_multiplicity
  _atom_site_fract_x
  _atom_site_fract_y
  _atom_site_fract_z
  _atom_site_occupancy
  H   H1        1.0  0.28600  0.62500  0.02190  1.0000
  H   H2        1.0  0.71400  0.12500  0.47800  1.0000
  H   H3        1.0  0.21400  0.37500  0.52200  1.0000
  H   H4        1.0  0.78600  0.87500  0.97800  1.0000
  Na  Na1       1.0  0.20900  0.33500  0.02300  1.0000
  Na  Na2       1.0  0.79100  0.83500  0.47700  1.0000
  Na  Na3       1.0  0.29100  0.66500  0.52300  1.0000
  Na  Na4       1.0  0.70900  0.16500  0.97700  1.0000
  O   O1        1.0  0.95900  0.82800  0.08670  1.0000
  O   O2        1.0  0.17100  0.59200  0.10900  1.0000
  O   O3        1.0  0.83200  0.56700  0.12700  1.0000
  O   O4        1.0  0.51400  0.34500  0.17200  1.0000
  O   O5        1.0  0.48600  0.84500  0.32800  1.0000
  O   O6        1.0  0.16800  0.06720  0.37300  1.0000
  O   O7        1.0  0.82900  0.09230  0.39100  1.0000
  O   O8        1.0  0.04130  0.32800  0.41300  1.0000
  O   O9        1.0  0.54100  0.17200  0.58700  1.0000
  O   O10       1.0  0.32900  0.40800  0.60900  1.0000
  O   O11       1.0  0.66800  0.43300  0.62700  1.0000
  O   O12       1.0  0.98600  0.65500  0.67200  1.0000
  O   O13       1.0  0.01390  0.15500  0.82800  1.0000
  O   O14       1.0  0.33200  0.93300  0.87300  1.0000
  O   O15       1.0  0.67100  0.90800  0.89100  1.0000
  O   O16       1.0  0.45900  0.67200  0.91300  1.0000
  Si  Si1       1.0  0.48700  0.83800  0.01170  1.0000
  Si  Si2       1.0  0.51300  0.33800  0.48800  1.0000
  Si  Si3       1.0  0.01290  0.16200  0.51200  1.0000
  Si  Si4       1.0  0.98700  0.66200  0.98800  1.0000
  Zn  Zn1       1.0  0.10800  0.99200  0.02230  1.0000
  Zn  Zn2       1.0  0.89200  0.49200  0.47800  1.0000
  Zn  Zn3       1.0  0.39200  0.00762  0.52200  1.0000
  Zn  Zn4       1.0  0.60800  0.50800  0.97800  1.0000
