data_image0
_chemical_formula_structural       B4H8Li4O16
_chemical_formula_sum              "B4 H8 Li4 O16"
_cell_length_a       6.86292
_cell_length_b       7.69453
_cell_length_c       4.92519
_cell_angle_alpha    90
_cell_angle_beta     98.1945
_cell_angle_gamma    90

_space_group_name_H-M_alt    "P 1"
_space_group_IT_number       1

loop_
  _space_group_symop_operation_xyz
  'x, y, z'

loop_
  _atom_site_type_symbol
  _atom_site_label
  _atom_site_symmetry_multiplicity
  _atom_site_fract_x
  _atom_site_fract_y
  _atom_site_fract_z
  _atom_site_occupancy
  B   B1        1.0  0.20300  0.53400  0.02450  1.0000
  B   B2        1.0  0.79700  0.03450  0.47600  1.0000
  B   B3        1.0  0.20300  0.96600  0.52400  1.0000
  B   B4        1.0  0.79700  0.46600  0.97600  1.0000
  H   H1        1.0  0.59300  0.63600  0.08520  1.0000
  H   H2        1.0  0.65500  0.22700  0.24100  1.0000
  H   H3        1.0  0.34500  0.72700  0.25900  1.0000
  H   H4        1.0  0.40700  0.13600  0.41500  1.0000
  H   H5        1.0  0.59300  0.86400  0.58500  1.0000
  H   H6        1.0  0.65500  0.27300  0.74100  1.0000
  H   H7        1.0  0.34500  0.77300  0.75900  1.0000
  H   H8        1.0  0.40700  0.36400  0.91500  1.0000
  Li  Li1       1.0  0.10100  0.17500  0.06350  1.0000
  Li  Li2       1.0  0.89900  0.67500  0.43600  1.0000
  Li  Li3       1.0  0.10100  0.32500  0.56400  1.0000
  Li  Li4       1.0  0.89900  0.82500  0.93600  1.0000
  O   O1        1.0  0.73800  0.62700  0.08660  1.0000
  O   O2        1.0  0.35800  0.66200  0.08850  1.0000
  O   O3        1.0  0.94800  0.37700  0.18300  1.0000
  O   O4        1.0  0.89200  0.00432  0.22500  1.0000
  O   O5        1.0  0.10800  0.50400  0.27500  1.0000
  O   O6        1.0  0.05220  0.87700  0.31700  1.0000
  O   O7        1.0  0.64200  0.16200  0.41200  1.0000
  O   O8        1.0  0.26200  0.12700  0.41300  1.0000
  O   O9        1.0  0.73800  0.87300  0.58700  1.0000
  O   O10       1.0  0.35800  0.83800  0.58900  1.0000
  O   O11       1.0  0.94800  0.12300  0.68300  1.0000
  O   O12       1.0  0.89200  0.49600  0.72500  1.0000
  O   O13       1.0  0.10800  0.99600  0.77500  1.0000
  O   O14       1.0  0.05220  0.62300  0.81700  1.0000
  O   O15       1.0  0.64200  0.33800  0.91100  1.0000
  O   O16       1.0  0.26200  0.37300  0.91300  1.0000
