data_image0
_chemical_formula_structural       C15Dy12Mn5
_chemical_formula_sum              "C15 Dy12 Mn5"
_cell_length_a       10.4462
_cell_length_b       10.4462
_cell_length_c       5.04535
_cell_angle_alpha    90
_cell_angle_beta     90
_cell_angle_gamma    119.999

_space_group_name_H-M_alt    "P 1"
_space_group_IT_number       1

loop_
  _space_group_symop_operation_xyz
  'x, y, z'

loop_
  _atom_site_type_symbol
  _atom_site_label
  _atom_site_symmetry_multiplicity
  _atom_site_fract_x
  _atom_site_fract_y
  _atom_site_fract_z
  _atom_site_occupancy
  C   C1        1.0  0.32500  0.00000  0.00000  1.0000
  C   C2        1.0  0.45500  0.00000  0.00000  1.0000
  C   C3        1.0  0.79900  0.00000  0.00000  1.0000
  C   C4        1.0  0.20100  0.20100  0.00000  1.0000
  C   C5        1.0  0.00000  0.32500  0.00000  1.0000
  C   C6        1.0  0.00000  0.45500  0.00000  1.0000
  C   C7        1.0  0.54500  0.54500  0.00000  1.0000
  C   C8        1.0  0.67500  0.67500  0.00000  1.0000
  C   C9        1.0  1.00000  0.79900  0.00000  1.0000
  C   C10       1.0  0.71800  0.19400  0.50000  1.0000
  C   C11       1.0  0.47600  0.28200  0.50000  1.0000
  C   C12       1.0  0.28200  0.47600  0.50000  1.0000
  C   C13       1.0  0.80600  0.52400  0.50000  1.0000
  C   C14       1.0  0.19400  0.71800  0.50000  1.0000
  C   C15       1.0  0.52400  0.80600  0.50000  1.0000
  Dy  Dy1       1.0  0.73100  0.18600  0.00000  1.0000
  Dy  Dy2       1.0  0.45600  0.26900  0.00000  1.0000
  Dy  Dy3       1.0  0.26900  0.45600  0.00000  1.0000
  Dy  Dy4       1.0  0.81400  0.54500  0.00000  1.0000
  Dy  Dy5       1.0  0.18600  0.73100  0.00000  1.0000
  Dy  Dy6       1.0  0.54500  0.81400  0.00000  1.0000
  Dy  Dy7       1.0  0.43100  0.00000  0.50000  1.0000
  Dy  Dy8       1.0  0.79400  0.00000  0.50000  1.0000
  Dy  Dy9       1.0  0.20600  0.20600  0.50000  1.0000
  Dy  Dy10      1.0  0.00000  0.43100  0.50000  1.0000
  Dy  Dy11      1.0  0.56900  0.56900  0.50000  1.0000
  Dy  Dy12      1.0  0.00000  0.79400  0.50000  1.0000
  Mn  Mn1       1.0  0.15300  0.00000  0.00000  1.0000
  Mn  Mn2       1.0  0.00000  0.15300  0.00000  1.0000
  Mn  Mn3       1.0  0.84700  0.84700  0.00000  1.0000
  Mn  Mn4       1.0  0.66700  0.33300  0.50000  1.0000
  Mn  Mn5       1.0  0.33300  0.66700  0.50000  1.0000
