data_image0
_chemical_formula_structural       Bi4Ni4O20P4
_chemical_formula_sum              "Bi4 Ni4 O20 P4"
_cell_length_a       7.14586
_cell_length_b       11.1963
_cell_length_c       5.13844
_cell_angle_alpha    90
_cell_angle_beta     107.059
_cell_angle_gamma    90

_space_group_name_H-M_alt    "P 1"
_space_group_IT_number       1

loop_
  _space_group_symop_operation_xyz
  'x, y, z'

loop_
  _atom_site_type_symbol
  _atom_site_label
  _atom_site_symmetry_multiplicity
  _atom_site_fract_x
  _atom_site_fract_y
  _atom_site_fract_z
  _atom_site_occupancy
  Bi  Bi1       1.0  0.19400  0.10300  0.10900  1.0000
  Bi  Bi2       1.0  0.30600  0.60300  0.39100  1.0000
  Bi  Bi3       1.0  0.69400  0.39700  0.60900  1.0000
  Bi  Bi4       1.0  0.80600  0.89700  0.89100  1.0000
  Ni  Ni1       1.0  0.68400  0.57900  0.12900  1.0000
  Ni  Ni2       1.0  0.81600  0.07940  0.37100  1.0000
  Ni  Ni3       1.0  0.18400  0.92100  0.62900  1.0000
  Ni  Ni4       1.0  0.31600  0.42100  0.87100  1.0000
  O   O1        1.0  0.88900  0.67300  0.01860  1.0000
  O   O2        1.0  0.33700  0.91800  0.04310  1.0000
  O   O3        1.0  0.82800  0.41800  0.11300  1.0000
  O   O4        1.0  0.51400  0.72100  0.18400  1.0000
  O   O5        1.0  0.48200  0.47400  0.24300  1.0000
  O   O6        1.0  0.01770  0.97400  0.25700  1.0000
  O   O7        1.0  0.98600  0.22100  0.31600  1.0000
  O   O8        1.0  0.67200  0.91800  0.38700  1.0000
  O   O9        1.0  0.16300  0.41800  0.45700  1.0000
  O   O10       1.0  0.61100  0.17300  0.48100  1.0000
  O   O11       1.0  0.38900  0.82700  0.51900  1.0000
  O   O12       1.0  0.83700  0.58200  0.54300  1.0000
  O   O13       1.0  0.32800  0.08210  0.61300  1.0000
  O   O14       1.0  0.01440  0.77900  0.68400  1.0000
  O   O15       1.0  0.98200  0.02580  0.74300  1.0000
  O   O16       1.0  0.51800  0.52600  0.75700  1.0000
  O   O17       1.0  0.48600  0.27900  0.81600  1.0000
  O   O18       1.0  0.17200  0.58200  0.88700  1.0000
  O   O19       1.0  0.66300  0.08240  0.95700  1.0000
  O   O20       1.0  0.11100  0.32700  0.98100  1.0000
  P   P1        1.0  0.02200  0.34800  0.22000  1.0000
  P   P2        1.0  0.47800  0.84800  0.28000  1.0000
  P   P3        1.0  0.52200  0.15200  0.72000  1.0000
  P   P4        1.0  0.97800  0.65200  0.78000  1.0000
