data_image0
_chemical_formula_structural       C12O12Ru4Se4
_chemical_formula_sum              "C12 O12 Ru4 Se4"
_cell_length_a       8.84167
_cell_length_b       8.84167
_cell_length_c       8.84167
_cell_angle_alpha    109.471
_cell_angle_beta     109.471
_cell_angle_gamma    109.471

_space_group_name_H-M_alt    "P 1"
_space_group_IT_number       1

loop_
  _space_group_symop_operation_xyz
  'x, y, z'

loop_
  _atom_site_type_symbol
  _atom_site_label
  _atom_site_symmetry_multiplicity
  _atom_site_fract_x
  _atom_site_fract_y
  _atom_site_fract_z
  _atom_site_occupancy
  C   C1        1.0  0.44700  0.19200  0.00000  1.0000
  C   C2        1.0  0.19200  0.44700  0.00000  1.0000
  C   C3        1.0  0.44700  0.00000  0.19200  1.0000
  C   C4        1.0  0.00000  0.44700  0.19200  1.0000
  C   C5        1.0  0.80800  0.80800  0.25400  1.0000
  C   C6        1.0  0.19200  0.00000  0.44700  1.0000
  C   C7        1.0  0.00000  0.19200  0.44700  1.0000
  C   C8        1.0  0.74600  0.55300  0.55300  1.0000
  C   C9        1.0  0.55300  0.74600  0.55300  1.0000
  C   C10       1.0  0.55300  0.55300  0.74600  1.0000
  C   C11       1.0  0.80800  0.25400  0.80800  1.0000
  C   C12       1.0  0.25400  0.80800  0.80800  1.0000
  O   O1        1.0  0.55800  0.30800  0.00000  1.0000
  O   O2        1.0  0.30800  0.55800  0.00000  1.0000
  O   O3        1.0  0.69200  0.69200  0.25000  1.0000
  O   O4        1.0  0.55800  0.00000  0.30800  1.0000
  O   O5        1.0  0.00000  0.55800  0.30800  1.0000
  O   O6        1.0  0.75000  0.44200  0.44200  1.0000
  O   O7        1.0  0.44200  0.75000  0.44200  1.0000
  O   O8        1.0  0.30800  0.00000  0.55800  1.0000
  O   O9        1.0  0.00000  0.30800  0.55800  1.0000
  O   O10       1.0  0.69200  0.25000  0.69200  1.0000
  O   O11       1.0  0.25000  0.69200  0.69200  1.0000
  O   O12       1.0  0.44200  0.44200  0.75000  1.0000
  Ru  Ru1       1.0  0.26400  0.00000  0.00000  1.0000
  Ru  Ru2       1.0  0.00000  0.26400  0.00000  1.0000
  Ru  Ru3       1.0  0.00000  0.00000  0.26400  1.0000
  Ru  Ru4       1.0  0.73600  0.73600  0.73600  1.0000
  Se  Se1       1.0  0.75800  0.00000  0.00000  1.0000
  Se  Se2       1.0  0.00000  0.75800  0.00000  1.0000
  Se  Se3       1.0  0.24200  0.24200  0.24200  1.0000
  Se  Se4       1.0  0.00000  0.00000  0.75800  1.0000
