data_image0
_chemical_formula_structural       CsF6O18S6Sb
_chemical_formula_sum              "Cs1 F6 O18 S6 Sb1"
_cell_length_a       7.64855
_cell_length_b       7.64855
_cell_length_c       7.64855
_cell_angle_alpha    97.5674
_cell_angle_beta     97.5674
_cell_angle_gamma    97.5674

_space_group_name_H-M_alt    "P 1"
_space_group_IT_number       1

loop_
  _space_group_symop_operation_xyz
  'x, y, z'

loop_
  _atom_site_type_symbol
  _atom_site_label
  _atom_site_symmetry_multiplicity
  _atom_site_fract_x
  _atom_site_fract_y
  _atom_site_fract_z
  _atom_site_occupancy
  Cs  Cs1       1.0  0.00000  0.00000  0.00000  1.0000
  F   F1        1.0  0.44300  0.65200  0.09880  1.0000
  F   F2        1.0  0.90100  0.55700  0.34800  1.0000
  F   F3        1.0  0.65200  0.09880  0.44300  1.0000
  F   F4        1.0  0.34800  0.90100  0.55700  1.0000
  F   F5        1.0  0.09880  0.44300  0.65200  1.0000
  F   F6        1.0  0.55700  0.34800  0.90100  1.0000
  O   O1        1.0  0.24300  0.37400  0.05310  1.0000
  O   O2        1.0  0.12900  0.66500  0.09680  1.0000
  O   O3        1.0  0.66500  0.09680  0.12900  1.0000
  O   O4        1.0  0.37400  0.05310  0.24300  1.0000
  O   O5        1.0  0.57300  0.34400  0.29900  1.0000
  O   O6        1.0  0.90300  0.87100  0.33500  1.0000
  O   O7        1.0  0.29900  0.57300  0.34400  1.0000
  O   O8        1.0  0.05310  0.24300  0.37400  1.0000
  O   O9        1.0  0.65600  0.70100  0.42700  1.0000
  O   O10       1.0  0.34400  0.29900  0.57300  1.0000
  O   O11       1.0  0.94700  0.75700  0.62600  1.0000
  O   O12       1.0  0.70100  0.42700  0.65600  1.0000
  O   O13       1.0  0.09680  0.12900  0.66500  1.0000
  O   O14       1.0  0.42700  0.65600  0.70100  1.0000
  O   O15       1.0  0.62600  0.94700  0.75700  1.0000
  O   O16       1.0  0.33500  0.90300  0.87100  1.0000
  O   O17       1.0  0.87100  0.33500  0.90300  1.0000
  O   O18       1.0  0.75700  0.62600  0.94700  1.0000
  S   S1        1.0  0.25900  0.55400  0.13700  1.0000
  S   S2        1.0  0.55400  0.13700  0.25900  1.0000
  S   S3        1.0  0.86300  0.74100  0.44600  1.0000
  S   S4        1.0  0.13700  0.25900  0.55400  1.0000
  S   S5        1.0  0.44600  0.86300  0.74100  1.0000
  S   S6        1.0  0.74100  0.44600  0.86300  1.0000
  Sb  Sb1       1.0  0.50000  0.50000  0.50000  1.0000
